REMARK  Name = ZINC55000438
REMARK  9 active torsions:
REMARK  status: ('A' for Active; 'I' for Inactive)
REMARK    1  A    between atoms: C_1  and  C_2
REMARK    2  A    between atoms: C_7  and  C_9
REMARK    3  A    between atoms: C_7  and  C_10
REMARK    4  A    between atoms: C_13  and  C_18
REMARK    5  A    between atoms: C_14  and  C_16
REMARK    6  A    between atoms: C_16  and  N_17
REMARK    7  A    between atoms: C_18  and  C_19
REMARK    8  A    between atoms: C_18  and  C_20
REMARK    9  A    between atoms: C_18  and  C_21
REMARK                            x       y       z     vdW  Elec       q    Type
REMARK                         _______ _______ _______ _____ _____    ______ ____
ROOT
ATOM      1  C   UNL     1      -2.143   1.553  -0.368  0.00  0.00    +0.039 C 
ATOM      2  C   UNL     1      -1.483   0.173  -0.314  0.00  0.00    +0.133 C 
ATOM      3  C   UNL     1      -0.636  -0.040  -1.573  0.00  0.00    +0.138 C 
ATOM      4  N   UNL     1       0.132  -1.285  -1.411  0.00  0.00    -0.304 N 
ATOM      5  C   UNL     1       0.905  -1.464  -0.172  0.00  0.00    +0.141 C 
ATOM      6  C   UNL     1      -0.017  -1.182   1.019  0.00  0.00    +0.080 C 
ATOM      7  O   UNL     1      -0.643   0.091   0.840  0.00  0.00    -0.368 OA
ATOM      8  C   UNL     1       0.804  -1.171   2.310  0.00  0.00    +0.043 C 
ATOM      9  C   UNL     1      -1.090  -2.270   1.104  0.00  0.00    +0.043 C 
ATOM     10  C   UNL     1       0.126  -2.260  -2.396  0.00  0.00    +0.161 A 
ATOM     11  N   UNL     1      -0.503  -2.251  -3.552  0.00  0.00    -0.229 NA
ATOM     12  C   UNL     1      -0.405  -3.269  -4.389  0.00  0.00    +0.057 A 
ATOM     13  C   UNL     1       0.367  -4.312  -4.003  0.00  0.00    -0.003 A 
ATOM     14  S   UNL     1       0.928  -3.740  -2.408  0.00  0.00    -0.059 S 
ENDROOT
BRANCH  12  15
ATOM     15  C   UNL     1      -1.122  -3.268  -5.715  0.00  0.00    +0.005 C 
ATOM     16  C   UNL     1      -1.783  -1.907  -5.937  0.00  0.00    +0.017 C 
ATOM     17  C   UNL     1      -0.118  -3.537  -6.838  0.00  0.00    +0.017 C 
ATOM     18  C   UNL     1      -2.193  -4.361  -5.716  0.00  0.00    +0.017 C 
ENDBRANCH  12  15
BRANCH  13  19
ATOM     19  C   UNL     1       0.673  -5.600  -4.723  0.00  0.00    -0.041 C 
BRANCH  19  20
ATOM     20  N   UNL     1       1.961  -5.478  -5.420  0.00  0.00    +0.381 N 
ATOM     21  H   UNL     1       1.963  -4.637  -5.977  0.00  0.00    -0.090 HD
ATOM     22  H   UNL     1       2.707  -5.434  -4.742  0.00  0.00    -0.090 HD
ATOM     23  H   UNL     1       2.097  -6.278  -6.018  0.00  0.00    -0.090 HD
ENDBRANCH  19  20
ENDBRANCH  13  19
TORSDOF 3
