REMARK  Name = ZINC58344933
REMARK  8 active torsions:
REMARK  status: ('A' for Active; 'I' for Inactive)
REMARK    1  A    between atoms: C_1  and  C_2
REMARK    2  A    between atoms: C_2  and  C_4
REMARK    3  A    between atoms: C_2  and  N_10
REMARK    4  A    between atoms: C_4  and  N_5
REMARK    5  A    between atoms: N_13  and  C_14
REMARK    6  A    between atoms: C_17  and  N_24
REMARK    7  A    between atoms: C_19  and  C_20
REMARK    8  A    between atoms: N_27  and  C_30
REMARK                            x       y       z     vdW  Elec       q    Type
REMARK                         _______ _______ _______ _____ _____    ______ ____
ROOT
ATOM      1  C   UNL     1      -4.093  -1.180  -2.299  0.00  0.00    +0.047 A 
ATOM      2  C   UNL     1      -3.536  -0.850  -3.528  0.00  0.00    +0.026 A 
ATOM      3  C   UNL     1      -4.302  -0.920  -4.674  0.00  0.00    +0.025 A 
ATOM      4  C   UNL     1      -5.630  -1.319  -4.599  0.00  0.00    +0.030 A 
ATOM      5  C   UNL     1      -6.187  -1.649  -3.370  0.00  0.00    +0.037 A 
ATOM      6  C   UNL     1      -5.419  -1.584  -2.224  0.00  0.00    +0.078 A 
ENDROOT
BRANCH   4   7
ATOM      7  N   UNL     1      -6.407  -1.390  -5.760  0.00  0.00    -0.333 N 
ATOM      8  C   UNL     1      -7.846  -1.688  -5.691  0.00  0.00    +0.086 C 
ATOM      9  C   UNL     1      -8.600  -0.633  -6.508  0.00  0.00    -0.060 C 
ATOM     10  N   UNL     1      -8.055  -0.589  -7.871  0.00  0.00    +0.380 N 
ATOM     11  C   UNL     1      -6.658  -0.137  -7.836  0.00  0.00    -0.060 C 
ATOM     12  C   UNL     1      -5.809  -1.162  -7.085  0.00  0.00    +0.086 C 
ATOM     13  C   UNL     1      -8.848   0.343  -8.684  0.00  0.00    -0.096 C 
ATOM     14  H   UNL     1      -8.099  -1.510  -8.280  0.00  0.00    -0.082 HD
ENDBRANCH   4   7
BRANCH   1  18
ATOM     15  N   UNL     1      -1.687  -0.029   0.142  0.00  0.00    -0.295 N 
ATOM     16  C   UNL     1      -2.374  -0.153  -1.010  0.00  0.00    +0.304 C 
ATOM     17  O   UNL     1      -2.145   0.599  -1.938  0.00  0.00    -0.253 OA
ATOM     18  N   UNL     1      -3.315  -1.109  -1.135  0.00  0.00    -0.269 N 
ATOM     19  H   UNL     1      -1.870  -0.629   0.883  0.00  0.00    +0.151 HD
ATOM     20  H   UNL     1      -3.454  -1.749  -0.419  0.00  0.00    +0.156 HD
BRANCH  15  22
ATOM     21  C   UNL     1      -1.325   2.324   0.702  0.00  0.00    +0.029 C 
ATOM     22  C   UNL     1      -0.664   1.010   0.278  0.00  0.00    +0.091 C 
BRANCH  22  23
ATOM     23  C   UNL     1       0.356   0.588   1.337  0.00  0.00    +0.144 C 
BRANCH  23  24
ATOM     24  N   UNL     1       1.073  -0.604   0.876  0.00  0.00    -0.337 N 
ATOM     25  C   UNL     1       0.708  -1.905   1.091  0.00  0.00    +0.104 A 
ATOM     26  C   UNL     1       1.641  -2.675   0.498  0.00  0.00    +0.101 A 
ATOM     27  N   UNL     1       2.551  -1.865  -0.063  0.00  0.00    -0.352 N 
ATOM     28  C   UNL     1       2.215  -0.623   0.155  0.00  0.00    +0.173 A 
ATOM     29  H   UNL     1       3.333  -2.157  -0.556  0.00  0.00    +0.166 HD
ENDBRANCH  23  24
ENDBRANCH  22  23
ENDBRANCH  15  22
ENDBRANCH   1  18
BRANCH   6  30
ATOM     30  C   UNL     1      -6.022  -1.948  -0.892  0.00  0.00    +0.419 C 
ATOM     31  F   UNL     1      -7.359  -2.320  -1.070  0.00  0.00    -0.166 F 
ATOM     32  F   UNL     1      -5.311  -3.015  -0.334  0.00  0.00    -0.166 F 
ATOM     33  F   UNL     1      -5.956  -0.844  -0.034  0.00  0.00    -0.166 F 
ENDBRANCH   6  30
TORSDOF 6
