REMARK  Name = ZINC22061868
REMARK  15 active torsions:
REMARK  status: ('A' for Active; 'I' for Inactive)
REMARK    1  A    between atoms: C_1  and  C_2
REMARK    2  A    between atoms: C_2  and  C_3
REMARK    3  A    between atoms: C_3  and  C_4
REMARK    4  A    between atoms: C_7  and  C_12
REMARK    5  A    between atoms: N_9  and  C_11
REMARK    6  A    between atoms: N_14  and  C_15
REMARK    7  A    between atoms: C_15  and  C_17
REMARK    8  A    between atoms: C_15  and  C_33
REMARK    9  A    between atoms: C_19  and  O_32
REMARK   10  A    between atoms: C_21  and  O_31
REMARK   11  A    between atoms: C_23  and  O_30
REMARK   12  A    between atoms: C_25  and  S_28
REMARK   13  A    between atoms: S_28  and  C_29
REMARK   14  A    between atoms: C_33  and  C_35
REMARK   15  A    between atoms: C_33  and  O_36
REMARK                            x       y       z     vdW  Elec       q    Type
REMARK                         _______ _______ _______ _____ _____    ______ ____
ROOT
ATOM      1  C   UNL     1       4.466  -1.195   1.525  0.00  0.00    +0.132 C 
ENDROOT
BRANCH   1   2
ATOM      2  C   UNL     1       5.355  -0.688   2.662  0.00  0.00    +0.173 C 
ATOM      3  C   UNL     1       5.058   0.791   2.921  0.00  0.00    +0.176 C 
ATOM      4  C   UNL     1       5.908   1.276   4.100  0.00  0.00    +0.177 C 
ATOM      5  C   UNL     1       5.613   0.401   5.322  0.00  0.00    +0.184 C 
ATOM      6  C   UNL     1       5.888  -1.064   4.970  0.00  0.00    +0.207 C 
ATOM      7  O   UNL     1       5.088  -1.441   3.847  0.00  0.00    -0.356 OA
BRANCH   6   8
ATOM      8  S   UNL     1       5.473  -2.115   6.389  0.00  0.00    -0.131 S 
ATOM      9  C   UNL     1       6.129  -3.744   5.934  0.00  0.00    +0.087 C 
ENDBRANCH   6   8
BRANCH   5  10
ATOM     10  O   UNL     1       6.452   0.798   6.408  0.00  0.00    -0.386 OA
ATOM     11  H   UNL     1       6.382   0.279   7.376  0.00  0.00    +0.210 HD
ENDBRANCH   5  10
BRANCH   4  12
ATOM     12  O   UNL     1       5.585   2.636   4.396  0.00  0.00    -0.386 OA
ATOM     13  H   UNL     1       6.098   3.157   5.218  0.00  0.00    +0.210 HD
ENDBRANCH   4  12
BRANCH   3  14
ATOM     14  O   UNL     1       5.379   1.554   1.756  0.00  0.00    -0.387 OA
ATOM     15  H   UNL     1       5.231   2.644   1.754  0.00  0.00    +0.210 HD
ENDBRANCH   3  14
ENDBRANCH   1   2
BRANCH   1  18
ATOM     16  C   UNL     1       2.155  -0.805   0.857  0.00  0.00    +0.200 C 
ATOM     17  O   UNL     1       2.502  -0.916  -0.300  0.00  0.00    -0.278 OA
ATOM     18  N   UNL     1       3.062  -0.928   1.847  0.00  0.00    -0.309 N 
ATOM     19  H   UNL     1       2.747  -0.827   2.896  0.00  0.00    +0.149 HD
BRANCH  16  22
ATOM     20  C   UNL     1      -1.498  -1.478   1.219  0.00  0.00    -0.029 C 
ATOM     21  C   UNL     1      -0.025  -1.849   1.535  0.00  0.00    -0.005 C 
ATOM     22  C   UNL     1       0.711  -0.531   1.188  0.00  0.00    +0.019 C 
ATOM     23  N   UNL     1       0.002  -0.004   0.002  0.00  0.00    +0.386 N 
ATOM     24  C   UNL     1      -1.367  -0.551  -0.008  0.00  0.00    -0.075 C 
ATOM     25  C   UNL     1      -0.018   1.465   0.010  0.00  0.00    -0.095 C 
ATOM     26  H   UNL     1       0.529  -0.310  -0.914  0.00  0.00    -0.081 HD
BRANCH  20  27
ATOM     27  C   UNL     1      -2.307  -2.728   0.868  0.00  0.00    +0.001 C 
BRANCH  27  29
ATOM     28  C   UNL     1      -4.587  -3.599   0.332  0.00  0.00    +0.004 C 
ATOM     29  C   UNL     1      -3.778  -2.349   0.683  0.00  0.00    -0.003 C 
ENDBRANCH  27  29
ENDBRANCH  20  27
ENDBRANCH  16  22
ENDBRANCH   1  18
BRANCH   1  30
ATOM     30  C   UNL     1       4.671  -2.701   1.349  0.00  0.00    +0.134 C 
ATOM     31  C   UNL     1       3.782  -3.208   0.212  0.00  0.00    +0.039 C 
BRANCH  30  32
ATOM     32  O   UNL     1       6.041  -2.961   1.035  0.00  0.00    -0.390 OA
ATOM     33  H   UNL     1       6.381  -3.995   0.873  0.00  0.00    +0.210 HD
ENDBRANCH  30  32
ENDBRANCH   1  30
TORSDOF 11
