REMARK  Name = ZINC38136732
REMARK  3 active torsions:
REMARK  status: ('A' for Active; 'I' for Inactive)
REMARK    1  A    between atoms: C_6  and  O_7
REMARK    2  A    between atoms: O_7  and  C_8
REMARK    3  A    between atoms: C_14  and  N_16
REMARK                            x       y       z     vdW  Elec       q    Type
REMARK                         _______ _______ _______ _____ _____    ______ ____
ROOT
ATOM      1  C   UNL     1      -0.004   1.364   0.233  0.00  0.00    +0.047 A 
ATOM      2  C   UNL     1       1.182   2.071   0.228  0.00  0.00    +0.027 A 
ATOM      3  C   UNL     1       2.381   1.412  -0.006  0.00  0.00    +0.037 A 
ATOM      4  C   UNL     1       2.387   0.042  -0.234  0.00  0.00    -0.022 A 
ATOM      5  C   UNL     1       1.200  -0.664  -0.230  0.00  0.00    +0.051 A 
ATOM      6  C   UNL     1       0.002  -0.004   0.004  0.00  0.00    +0.121 A 
ATOM      7  C   UNL     1       3.690  -0.671  -0.487  0.00  0.00    +0.046 C 
ATOM      8  C   UNL     1       4.639   0.253  -1.251  0.00  0.00    +0.101 C 
ATOM      9  C   UNL     1       4.685   1.603  -0.587  0.00  0.00    +0.218 C 
ATOM     10  O   UNL     1       5.724   2.228  -0.570  0.00  0.00    -0.275 OA
ATOM     11  N   UNL     1       3.586   2.125  -0.012  0.00  0.00    -0.285 N 
ATOM     12  H   UNL     1       3.629   3.002   0.402  0.00  0.00    +0.155 HD
ENDROOT
BRANCH   6  13
ATOM     13  O   UNL     1      -1.166  -0.700   0.010  0.00  0.00    -0.488 OA
BRANCH  13  14
ATOM     14  C   UNL     1      -2.371   0.058   0.137  0.00  0.00    +0.185 C 
ATOM     15  C   UNL     1      -2.659   0.317   1.618  0.00  0.00    +0.202 C 
ATOM     16  O   UNL     1      -3.894   1.024   1.745  0.00  0.00    -0.376 OA
ATOM     17  C   UNL     1      -5.027   0.317   1.236  0.00  0.00    +0.158 C 
ATOM     18  C   UNL     1      -4.834   0.058  -0.261  0.00  0.00    +0.015 C 
ATOM     19  C   UNL     1      -3.536  -0.728  -0.473  0.00  0.00    -0.029 C 
BRANCH  19  20
ATOM     20  N   UNL     1      -3.303  -0.915  -1.912  0.00  0.00    +0.382 N 
ATOM     21  H   UNL     1      -2.445  -1.426  -2.050  0.00  0.00    -0.089 HD
ATOM     22  H   UNL     1      -4.071  -1.432  -2.312  0.00  0.00    -0.089 HD
ATOM     23  H   UNL     1      -3.234  -0.014  -2.361  0.00  0.00    -0.089 HD
ENDBRANCH  19  20
ENDBRANCH  13  14
ENDBRANCH   6  13
TORSDOF 3
