REMARK  Name = ZINC54397608
REMARK  4 active torsions:
REMARK  status: ('A' for Active; 'I' for Inactive)
REMARK    1  A    between atoms: C_1  and  C_2
REMARK    2  A    between atoms: C_2  and  C_17
REMARK    3  A    between atoms: C_9  and  C_14
REMARK    4  A    between atoms: C_14  and  N_16
REMARK                            x       y       z     vdW  Elec       q    Type
REMARK                         _______ _______ _______ _____ _____    ______ ____
ROOT
ATOM      1  C   UNL     1       1.646   2.150  -1.310  0.00  0.00    +0.034 C 
ATOM      2  C   UNL     1       1.698   0.665  -1.675  0.00  0.00    +0.054 C 
ATOM      3  C   UNL     1       0.669   0.367  -2.771  0.00  0.00    +0.185 C 
ATOM      4  O   UNL     1      -0.647   0.528  -2.237  0.00  0.00    -0.376 OA
ATOM      5  C   UNL     1      -0.962  -0.372  -1.173  0.00  0.00    +0.179 C 
ATOM      6  C   UNL     1      -0.016  -0.111   0.005  0.00  0.00    +0.135 C 
ATOM      7  N   UNL     1       1.368  -0.147  -0.494  0.00  0.00    -0.304 N 
ATOM      8  C   UNL     1       2.329  -0.922   0.130  0.00  0.00    +0.150 A 
ATOM      9  C   UNL     1       3.258  -0.329   1.002  0.00  0.00    +0.131 A 
ATOM     10  N   UNL     1       4.178  -1.084   1.596  0.00  0.00    -0.248 NA
ATOM     11  C   UNL     1       4.216  -2.381   1.365  0.00  0.00    +0.131 A 
ATOM     12  C   UNL     1       3.300  -2.966   0.503  0.00  0.00    +0.132 A 
ATOM     13  N   UNL     1       2.377  -2.231  -0.089  0.00  0.00    -0.237 NA
ATOM     14  C   UNL     1       3.100   0.306  -2.172  0.00  0.00    +0.034 C 
ENDROOT
BRANCH   9  15
ATOM     15  C   UNL     1       3.213   1.123   1.258  0.00  0.00    +0.099 C 
ATOM     16  S   UNL     1       1.704   1.922   1.387  0.00  0.00    -0.033 S 
BRANCH  15  17
ATOM     17  N   UNL     1       4.358   1.820   1.390  0.00  0.00    -0.350 N 
ATOM     18  H   UNL     1       5.213   1.367   1.317  0.00  0.00    +0.143 HD
ATOM     19  H   UNL     1       4.329   2.775   1.558  0.00  0.00    +0.143 HD
ENDBRANCH  15  17
ENDBRANCH   9  15
TORSDOF 2
