REMARK  Name = ZINC43407753
REMARK  2 active torsions:
REMARK  status: ('A' for Active; 'I' for Inactive)
REMARK    1  A    between atoms: C_6  and  C_7
REMARK    2  A    between atoms: N_8  and  O_9
REMARK                            x       y       z     vdW  Elec       q    Type
REMARK                         _______ _______ _______ _____ _____    ______ ____
ROOT
ATOM      1  C   UNL     1      -0.362   1.486  -0.117  0.00  0.00    +0.020 A 
ATOM      2  C   UNL     1       0.700   2.294  -0.494  0.00  0.00    -0.027 A 
ATOM      3  C   UNL     1       1.965   1.749  -0.613  0.00  0.00    +0.021 A 
ATOM      4  N   UNL     1       2.170   0.464  -0.371  0.00  0.00    -0.346 N 
ATOM      5  C   UNL     1       1.193  -0.349  -0.009  0.00  0.00    +0.110 A 
ATOM      6  C   UNL     1      -0.117   0.135   0.132  0.00  0.00    +0.056 A 
ATOM      7  N   UNL     1       1.463  -1.686   0.232  0.00  0.00    -0.315 N 
ATOM      8  C   UNL     1       1.512  -2.619  -0.906  0.00  0.00    +0.107 C 
ATOM      9  C   UNL     1       2.674  -3.644  -0.898  0.00  0.00    +0.029 C 
ATOM     10  C   UNL     1       3.996  -3.047  -0.528  0.00  0.00    +0.071 C 
ATOM     11  S   UNL     1       4.221  -3.099   1.288  0.00  0.00    -0.159 S 
ATOM     12  C   UNL     1       3.165  -1.859   1.922  0.00  0.00    +0.088 C 
ATOM     13  C   UNL     1       1.691  -2.114   1.576  0.00  0.00    +0.117 C 
ATOM     14  C   UNL     1       2.944   2.827  -1.033  0.00  0.00    +0.054 C 
ATOM     15  C   UNL     1       2.071   3.977  -1.579  0.00  0.00    +0.011 C 
ATOM     16  C   UNL     1       0.741   3.770  -0.824  0.00  0.00    +0.037 C 
ATOM     17  H   UNL     1       3.067   0.106  -0.463  0.00  0.00    +0.167 HD
ENDROOT
BRANCH   6  18
ATOM     18  C   UNL     1      -1.215  -0.768   0.537  0.00  0.00    +0.166 C 
ATOM     19  N   UNL     1      -1.944  -0.482   1.578  0.00  0.00    -0.071 NA
ATOM     20  N   UNL     1      -1.469  -1.919  -0.190  0.00  0.00    -0.340 N 
ATOM     21  H   UNL     1      -0.927  -2.133  -0.965  0.00  0.00    +0.144 HD
ATOM     22  H   UNL     1      -2.190  -2.512   0.076  0.00  0.00    +0.144 HD
BRANCH  19  23
ATOM     23  O   UNL     1      -1.613   0.630   2.389  0.00  0.00    -0.408 OA
ATOM     24  H   UNL     1      -2.252   0.808   3.092  0.00  0.00    +0.328 HD
ENDBRANCH  19  23
ENDBRANCH   6  18
TORSDOF 2
