REMARK  Name = ZINC05685238
REMARK  3 active torsions:
REMARK  status: ('A' for Active; 'I' for Inactive)
REMARK    1  A    between atoms: C_4  and  C_7
REMARK    2  A    between atoms: C_13  and  C_16
REMARK    3  A    between atoms: C_19  and  O_22
REMARK                            x       y       z     vdW  Elec       q    Type
REMARK                         _______ _______ _______ _____ _____    ______ ____
ROOT
ATOM      1  C   UNL     1       3.695  -0.685  -0.038  0.00  0.00    +0.182 A 
ATOM      2  N   UNL     1       4.865  -0.164  -0.316  0.00  0.00    -0.127 NA
ATOM      3  N   UNL     1       5.776  -1.070  -0.249  0.00  0.00    -0.120 NA
ATOM      4  C   UNL     1       5.235  -2.211   0.055  0.00  0.00    +0.211 A 
ATOM      5  N   UNL     1       3.888  -2.034   0.243  0.00  0.00    -0.220 N 
ATOM      6  N   UNL     1       3.126  -3.093   0.639  0.00  0.00    -0.263 N 
ATOM      7  C   UNL     1       3.713  -4.429   0.355  0.00  0.00    +0.183 C 
ATOM      8  S   UNL     1       5.494  -3.950   0.342  0.00  0.00    -0.056 S 
ATOM      9  H   UNL     1       2.869  -3.010   1.612  0.00  0.00    +0.168 HD
ENDROOT
BRANCH   1  13
ATOM     10  C   UNL     1      -0.017   1.379   0.010  0.00  0.00    +0.000 A 
ATOM     11  C   UNL     1       1.168   2.094   0.002  0.00  0.00    +0.001 A 
ATOM     12  C   UNL     1       2.377   1.429  -0.013  0.00  0.00    +0.011 A 
ATOM     13  C   UNL     1       2.403   0.034  -0.021  0.00  0.00    +0.021 A 
ATOM     14  C   UNL     1       1.204  -0.681  -0.013  0.00  0.00    +0.011 A 
ATOM     15  C   UNL     1       0.002  -0.004   0.002  0.00  0.00    +0.001 A 
ENDBRANCH   1  13
BRANCH   7  16
ATOM     16  C   UNL     1       3.276  -4.953  -0.989  0.00  0.00    -0.015 A 
ATOM     17  C   UNL     1       2.995  -4.070  -2.015  0.00  0.00    +0.010 A 
ATOM     18  C   UNL     1       2.593  -4.547  -3.248  0.00  0.00    +0.046 A 
ATOM     19  C   UNL     1       2.472  -5.914  -3.455  0.00  0.00    +0.117 A 
ATOM     20  C   UNL     1       2.755  -6.798  -2.424  0.00  0.00    +0.046 A 
ATOM     21  C   UNL     1       3.162  -6.315  -1.195  0.00  0.00    +0.010 A 
BRANCH  19  22
ATOM     22  O   UNL     1       2.077  -6.386  -4.667  0.00  0.00    -0.507 OA
ATOM     23  H   UNL     1       2.805  -6.557  -5.279  0.00  0.00    +0.292 HD
ENDBRANCH  19  22
ENDBRANCH   7  16
TORSDOF 3
