REMARK  Name = ZINC48222079
REMARK  6 active torsions:
REMARK  status: ('A' for Active; 'I' for Inactive)
REMARK    1  A    between atoms: C_1  and  C_2
REMARK    2  A    between atoms: C_2  and  C_3
REMARK    3  A    between atoms: C_4  and  C_18
REMARK    4  A    between atoms: C_5  and  C_17
REMARK    5  A    between atoms: C_8  and  C_9
REMARK    6  A    between atoms: C_18  and  C_20
REMARK                            x       y       z     vdW  Elec       q    Type
REMARK                         _______ _______ _______ _____ _____    ______ ____
ROOT
ATOM      1  C   UNL     1       0.749  -0.479  -1.205  0.00  0.00    -0.007 A 
ATOM      2  C   UNL     1       0.159  -0.558  -2.489  0.00  0.00    +0.041 A 
ATOM      3  C   UNL     1       1.127  -1.051  -3.350  0.00  0.00    +0.024 A 
ATOM      4  N   UNL     1       2.248  -1.266  -2.646  0.00  0.00    -0.354 N 
ATOM      5  H   UNL     1       3.080  -1.610  -3.007  0.00  0.00    +0.166 HD
ATOM      6  C   UNL     1       2.035  -0.914  -1.330  0.00  0.00    +0.106 A 
ATOM      7  C   UNL     1       0.949  -1.304  -4.825  0.00  0.00    +0.064 C 
ENDROOT
BRANCH   6   8
ATOM      8  C   UNL     1       3.022  -0.999  -0.248  0.00  0.00    +0.266 C 
ATOM      9  O   UNL     1       2.718  -0.662   0.881  0.00  0.00    -0.268 OA
ATOM     10  N   UNL     1       4.267  -1.449  -0.504  0.00  0.00    -0.260 N 
ATOM     11  C   UNL     1       5.196  -1.528   0.514  0.00  0.00    +0.156 C 
ATOM     12  N   UNL     1       5.023  -1.213   1.764  0.00  0.00    -0.262 NA
ATOM     13  C   UNL     1       6.104  -1.324   2.727  0.00  0.00    +0.155 C 
ATOM     14  C   UNL     1       7.231  -2.251   2.196  0.00  0.00    +0.100 C 
ATOM     15  S   UNL     1       6.886  -2.091   0.393  0.00  0.00    -0.089 S 
ATOM     16  H   UNL     1       4.509  -1.717  -1.405  0.00  0.00    +0.157 HD
ENDBRANCH   6   8
BRANCH   2  17
ATOM     17  C   UNL     1      -1.216  -0.188  -2.841  0.00  0.00    +0.162 C 
ATOM     18  O   UNL     1      -1.461   0.935  -3.228  0.00  0.00    -0.292 OA
ATOM     19  C   UNL     1      -2.323  -1.204  -2.723  0.00  0.00    +0.091 C 
ENDBRANCH   2  17
BRANCH   1  21
ATOM     20  C   UNL     1       0.289   1.511   0.202  0.00  0.00    +0.009 C 
ATOM     21  C   UNL     1       0.085   0.001   0.060  0.00  0.00    +0.035 C 
ENDBRANCH   1  21
TORSDOF 3
