REMARK  Name = ZINC20464804
REMARK  8 active torsions:
REMARK  status: ('A' for Active; 'I' for Inactive)
REMARK    1  A    between atoms: C_4  and  N_7
REMARK    2  A    between atoms: N_10  and  C_13
REMARK    3  A    between atoms: C_15  and  C_25
REMARK    4  A    between atoms: C_18  and  C_23
REMARK    5  A    between atoms: C_20  and  O_22
REMARK    6  A    between atoms: C_23  and  O_24
REMARK    7  A    between atoms: C_25  and  N_26
REMARK    8  A    between atoms: N_26  and  C_27
REMARK                            x       y       z     vdW  Elec       q    Type
REMARK                         _______ _______ _______ _____ _____    ______ ____
ROOT
ATOM      1  C   UNL     1       3.887   6.218   0.998  0.00  0.00    +0.115 C 
ATOM      2  C   UNL     1       2.651   5.568   0.338  0.00  0.00    +0.122 C 
ATOM      3  O   UNL     1       1.530   6.017   1.131  0.00  0.00    -0.369 OA
ATOM      4  C   UNL     1       1.802   7.405   1.423  0.00  0.00    +0.174 C 
ATOM      5  C   UNL     1       3.316   7.455   1.728  0.00  0.00    +0.165 C 
ENDROOT
BRANCH   1   9
ATOM      6  N   UNL     1       5.439   4.477   4.520  0.00  0.00    -0.327 N 
ATOM      7  C   UNL     1       6.386   4.843   3.458  0.00  0.00    +0.120 C 
ATOM      8  C   UNL     1       5.732   5.866   2.526  0.00  0.00    +0.104 C 
ATOM      9  N   UNL     1       4.504   5.293   1.958  0.00  0.00    -0.292 NA
ATOM     10  C   UNL     1       3.557   4.927   3.020  0.00  0.00    +0.104 C 
ATOM     11  C   UNL     1       4.211   3.904   3.952  0.00  0.00    +0.120 C 
BRANCH   6  15
ATOM     12  C   UNL     1       7.189   1.855   7.240  0.00  0.00    +0.000 A 
ATOM     13  C   UNL     1       5.878   2.259   7.417  0.00  0.00    +0.002 A 
ATOM     14  C   UNL     1       5.295   3.129   6.517  0.00  0.00    +0.023 A 
ATOM     15  C   UNL     1       6.026   3.597   5.433  0.00  0.00    +0.030 A 
ATOM     16  C   UNL     1       7.341   3.185   5.255  0.00  0.00    +0.023 A 
ATOM     17  C   UNL     1       7.920   2.319   6.162  0.00  0.00    +0.002 A 
ENDBRANCH   6  15
ENDBRANCH   1   9
BRANCH   5  18
ATOM     18  O   UNL     1       3.549   7.358   3.135  0.00  0.00    -0.388 OA
ATOM     19  H   UNL     1       3.205   8.158   3.806  0.00  0.00    +0.210 HD
ENDBRANCH   5  18
BRANCH   4  20
ATOM     20  C   UNL     1       0.998   7.863   2.641  0.00  0.00    +0.190 C 
BRANCH  20  21
ATOM     21  O   UNL     1      -0.389   7.921   2.302  0.00  0.00    -0.392 OA
ATOM     22  H   UNL     1      -1.127   8.233   3.056  0.00  0.00    +0.210 HD
ENDBRANCH  20  21
ENDBRANCH   4  20
BRANCH   2  23
ATOM     23  C   UNL     1       2.761   4.043   0.388  0.00  0.00    -0.049 C 
BRANCH  23  24
ATOM     24  N   UNL     1       1.657   3.447  -0.377  0.00  0.00    +0.383 N 
ATOM     25  H   UNL     1       0.698   3.760   0.061  0.00  0.00    -0.085 HD
ATOM     26  H   UNL     1       1.711   3.785  -1.422  0.00  0.00    -0.085 HD
BRANCH  24  27
ATOM     27  C   UNL     1       1.731   1.980  -0.351  0.00  0.00    -0.067 C 
ATOM     28  C   UNL     1       0.334   1.393  -0.577  0.00  0.00    +0.012 C 
ATOM     29  C   UNL     1       0.433  -0.134  -0.627  0.00  0.00    +0.158 C 
ATOM     30  O   UNL     1       1.339  -0.517  -1.664  0.00  0.00    -0.380 OA
ATOM     31  C   UNL     1       2.672  -0.036  -1.482  0.00  0.00    +0.158 C 
ATOM     32  C   UNL     1       2.663   1.494  -1.466  0.00  0.00    +0.012 C 
ENDBRANCH  24  27
ENDBRANCH  23  24
ENDBRANCH   2  23
TORSDOF 8
