REMARK  Name = ZINC39291831
REMARK  5 active torsions:
REMARK  status: ('A' for Active; 'I' for Inactive)
REMARK    1  A    between atoms: C_1  and  C_2
REMARK    2  A    between atoms: C_2  and  O_3
REMARK    3  A    between atoms: O_3  and  C_4
REMARK    4  A    between atoms: C_4  and  C_6
REMARK    5  A    between atoms: C_15  and  N_26
REMARK                            x       y       z     vdW  Elec       q    Type
REMARK                         _______ _______ _______ _____ _____    ______ ____
ROOT
ATOM      1  C   UNL     1       1.115  -1.756  -2.421  0.00  0.00    +0.050 C 
ATOM      2  C   UNL     1       1.103  -3.099  -2.435  0.00  0.00    +0.078 C 
ATOM      3  N   UNL     1       1.703  -3.811  -3.433  0.00  0.00    -0.346 N 
ATOM      4  C   UNL     1       2.632  -3.127  -4.342  0.00  0.00    +0.075 C 
ATOM      5  C   UNL     1       3.968  -2.907  -3.642  0.00  0.00    +0.023 C 
ATOM      6  C   UNL     1       4.926  -2.078  -4.515  0.00  0.00    +0.006 C 
ATOM      7  C   UNL     1       4.229  -0.777  -4.839  0.00  0.00    +0.001 C 
ATOM      8  C   UNL     1       5.027   0.295  -5.557  0.00  0.00    -0.042 C 
ATOM      9  C   UNL     1       4.066   1.465  -5.926  0.00  0.00    +0.151 C 
ATOM     10  S   UNL     1       2.438   0.614  -6.093  0.00  0.00    -0.029 S 
ATOM     11  O   UNL     1       2.031   0.656  -7.454  0.00  0.00    -0.174 OA
ATOM     12  O   UNL     1       1.559   1.091  -5.084  0.00  0.00    -0.174 OA
ATOM     13  C   UNL     1       2.967  -1.093  -5.690  0.00  0.00    +0.137 C 
ATOM     14  C   UNL     1       1.989  -1.788  -4.750  0.00  0.00    +0.038 C 
ATOM     15  C   UNL     1       1.790  -0.944  -3.490  0.00  0.00    +0.050 C 
ATOM     16  H   UNL     1       1.518  -4.757  -3.540  0.00  0.00    +0.146 HD
ENDROOT
BRANCH   8  17
ATOM     17  N   UNL     1       6.092   0.792  -4.675  0.00  0.00    +0.383 N 
ATOM     18  C   UNL     1       6.791   1.937  -5.312  0.00  0.00    -0.078 C 
ATOM     19  C   UNL     1       7.437   2.671  -4.110  0.00  0.00    -0.020 C 
ATOM     20  C   UNL     1       6.366   2.531  -3.004  0.00  0.00    -0.020 C 
ATOM     21  C   UNL     1       5.512   1.319  -3.421  0.00  0.00    -0.078 C 
ATOM     22  H   UNL     1       6.748   0.053  -4.471  0.00  0.00    -0.081 HD
ENDBRANCH   8  17
BRANCH   1  23
ATOM     23  C   UNL     1       0.465  -1.082  -1.364  0.00  0.00    +0.336 C 
ATOM     24  O   UNL     1      -0.089  -1.717  -0.486  0.00  0.00    -0.245 OA
BRANCH  23  25
ATOM     25  O   UNL     1       0.457   0.268  -1.328  0.00  0.00    -0.462 OA
BRANCH  25  27
ATOM     26  C   UNL     1      -0.122   2.405  -0.360  0.00  0.00    +0.048 C 
ATOM     27  C   UNL     1      -0.219   0.883  -0.231  0.00  0.00    +0.229 C 
ENDBRANCH  25  27
ENDBRANCH  23  25
ENDBRANCH   1  23
TORSDOF 4
