REMARK  Name = ZINC15419057
REMARK  9 active torsions:
REMARK  status: ('A' for Active; 'I' for Inactive)
REMARK    1  A    between atoms: C_1  and  C_2
REMARK    2  A    between atoms: C_2  and  C_3
REMARK    3  A    between atoms: C_3  and  N_4
REMARK    4  A    between atoms: C_5  and  C_7
REMARK    5  A    between atoms: C_7  and  N_52
REMARK    6  A    between atoms: C_8  and  N_52
REMARK    7  A    between atoms: C_9  and  C_10
REMARK    8  A    between atoms: C_9  and  N_52
REMARK    9  A    between atoms: N_12  and  N_13
REMARK                            x       y       z     vdW  Elec       q    Type
REMARK                         _______ _______ _______ _____ _____    ______ ____
ROOT
ATOM      1  C   UNL     1      -0.014   1.209   0.009  0.00  0.00    +0.213 C 
ATOM      2  O   UNL     1       0.002  -0.004   0.002  0.00  0.00    -0.276 OA
ATOM      3  N   UNL     1      -1.191   1.867   0.018  0.00  0.00    -0.225 N 
ATOM      4  H   UNL     1      -1.204   2.837   0.023  0.00  0.00    +0.173 HD
ENDROOT
BRANCH   3   5
ATOM      5  N   UNL     1      -2.394   1.150   0.020  0.00  0.00    -0.137 N 
ATOM      6  C   UNL     1      -3.188   1.004   1.101  0.00  0.00    +0.263 C 
ATOM      7  O   UNL     1      -3.004   1.451   2.212  0.00  0.00    -0.271 OA
ATOM      8  C   UNL     1      -4.356   0.166   0.633  0.00  0.00    +0.114 C 
ATOM      9  C   UNL     1      -5.660   0.943   0.780  0.00  0.00    +0.035 C 
ATOM     10  C   UNL     1      -6.826   0.089   0.276  0.00  0.00    +0.003 C 
ATOM     11  C   UNL     1      -6.893  -1.209   1.084  0.00  0.00    +0.000 C 
ATOM     12  C   UNL     1      -5.588  -1.988   0.906  0.00  0.00    +0.003 C 
ATOM     13  C   UNL     1      -4.417  -1.143   1.413  0.00  0.00    +0.035 C 
ATOM     14  N   UNL     1      -4.067  -0.091  -0.783  0.00  0.00    -0.284 N 
ATOM     15  C   UNL     1      -2.902   0.529  -1.052  0.00  0.00    +0.326 C 
ATOM     16  O   UNL     1      -2.370   0.523  -2.145  0.00  0.00    -0.251 OA
ATOM     17  H   UNL     1      -4.610  -0.602  -1.403  0.00  0.00    +0.151 HD
ENDBRANCH   3   5
BRANCH   1  18
ATOM     18  C   UNL     1       1.280   1.980   0.001  0.00  0.00    +0.020 C 
BRANCH  18  20
ATOM     19  C   UNL     1       2.470   0.269   1.233  0.00  0.00    -0.095 C 
ATOM     20  N   UNL     1       2.405   1.022  -0.037  0.00  0.00    +0.389 N 
ATOM     21  H   UNL     1       2.256   0.362  -0.809  0.00  0.00    -0.081 HD
BRANCH  20  22
ATOM     22  C   UNL     1       3.676   1.744  -0.262  0.00  0.00    +0.019 C 
BRANCH  22  24
ATOM     23  N   UNL     1       6.025   1.155  -0.767  0.00  0.00    -0.317 N 
ATOM     24  C   UNL     1       4.768   0.737  -0.515  0.00  0.00    +0.196 C 
ATOM     25  O   UNL     1       4.517  -0.449  -0.492  0.00  0.00    -0.278 OA
ATOM     26  H   UNL     1       6.226   2.104  -0.785  0.00  0.00    +0.149 HD
BRANCH  23  27
ATOM     27  C   UNL     1       7.087   0.176  -1.013  0.00  0.00    +0.104 C 
BRANCH  27  29
ATOM     28  C   UNL     1       9.515  -0.113  -1.526  0.00  0.00    +0.005 C 
ATOM     29  C   UNL     1       8.405   0.909  -1.270  0.00  0.00    +0.015 C 
ENDBRANCH  27  29
ENDBRANCH  23  27
ENDBRANCH  22  24
ENDBRANCH  20  22
ENDBRANCH  18  20
ENDBRANCH   1  18
TORSDOF 7
