REMARK  Name = ZINC58130605
REMARK  8 active torsions:
REMARK  status: ('A' for Active; 'I' for Inactive)
REMARK    1  A    between atoms: C_1  and  C_2
REMARK    2  A    between atoms: C_2  and  C_4
REMARK    3  A    between atoms: C_2  and  O_22
REMARK    4  A    between atoms: C_10  and  N_17
REMARK    5  A    between atoms: C_13  and  C_15
REMARK    6  A    between atoms: C_13  and  C_16
REMARK    7  A    between atoms: N_17  and  S_18
REMARK    8  A    between atoms: S_18  and  C_21
REMARK                            x       y       z     vdW  Elec       q    Type
REMARK                         _______ _______ _______ _____ _____    ______ ____
ROOT
ATOM      1  C   UNL     1       0.756  -0.360  -1.855  0.00  0.00    -0.019 A 
ATOM      2  C   UNL     1       0.264  -0.439  -3.146  0.00  0.00    +0.010 A 
ATOM      3  C   UNL     1       1.049  -0.965  -4.151  0.00  0.00    +0.046 A 
ATOM      4  C   UNL     1       2.335  -1.417  -3.871  0.00  0.00    +0.126 A 
ATOM      5  C   UNL     1       2.822  -1.341  -2.579  0.00  0.00    +0.013 A 
ATOM      6  C   UNL     1       2.033  -0.804  -1.575  0.00  0.00    +0.015 A 
ATOM      7  C   UNL     1       4.205  -1.830  -2.231  0.00  0.00    +0.113 C 
ATOM      8  C   UNL     1       5.044  -1.957  -3.505  0.00  0.00    +0.072 C 
ATOM      9  C   UNL     1       4.218  -2.717  -4.551  0.00  0.00    +0.107 C 
ATOM     10  O   UNL     1       3.079  -1.924  -4.889  0.00  0.00    -0.486 OA
ATOM     11  C   UNL     1       3.760  -4.057  -3.972  0.00  0.00    +0.055 C 
ATOM     12  C   UNL     1       5.067  -2.958  -5.801  0.00  0.00    +0.055 C 
ENDROOT
BRANCH   1  14
ATOM     13  C   UNL     1      -0.063   1.744  -0.830  0.00  0.00    +0.043 C 
ATOM     14  C   UNL     1      -0.100   0.216  -0.757  0.00  0.00    +0.141 C 
BRANCH  14  15
ATOM     15  O   UNL     1      -1.446  -0.236  -0.915  0.00  0.00    -0.387 OA
ATOM     16  H   UNL     1      -2.055   0.097  -0.241  0.00  0.00    +0.210 HD
ENDBRANCH  14  15
ENDBRANCH   1  14
BRANCH   7  17
ATOM     17  N   UNL     1       4.845  -0.877  -1.321  0.00  0.00    -0.187 NA
ATOM     18  H   UNL     1       4.914   0.059  -1.568  0.00  0.00    +0.148 HD
BRANCH  17  19
ATOM     19  S   UNL     1       5.451  -1.396   0.131  0.00  0.00    +0.027 S 
ATOM     20  O   UNL     1       5.963  -0.224   0.750  0.00  0.00    -0.158 OA
ATOM     21  O   UNL     1       4.387  -2.125   0.727  0.00  0.00    -0.158 OA
ATOM     22  C   UNL     1       6.809  -2.517  -0.306  0.00  0.00    +0.214 C 
ENDBRANCH  17  19
ENDBRANCH   7  17
TORSDOF 4
