REMARK  Name = ZINC32630749
REMARK  4 active torsions:
REMARK  status: ('A' for Active; 'I' for Inactive)
REMARK    1  A    between atoms: C_1  and  N_2
REMARK    2  A    between atoms: C_4  and  N_7
REMARK    3  A    between atoms: N_7  and  S_8
REMARK    4  A    between atoms: S_8  and  C_11
REMARK                            x       y       z     vdW  Elec       q    Type
REMARK                         _______ _______ _______ _____ _____    ______ ____
ROOT
ATOM      1  S   UNL     1       2.936   0.282  -1.038  0.00  0.00    +0.072 S 
ATOM      2  O   UNL     1       4.332   0.110  -0.838  0.00  0.00    -0.150 OA
ATOM      3  O   UNL     1       2.006  -0.780  -0.874  0.00  0.00    -0.150 OA
ENDROOT
BRANCH   1   4
ATOM      4  C   UNL     1       2.732   0.881  -2.682  0.00  0.00    +0.109 A 
ATOM      5  C   UNL     1       3.770   1.544  -3.311  0.00  0.00    +0.029 A 
ATOM      6  C   UNL     1       3.608   2.012  -4.600  0.00  0.00    +0.006 A 
ATOM      7  C   UNL     1       2.409   1.820  -5.266  0.00  0.00    -0.044 A 
ATOM      8  C   UNL     1       1.372   1.157  -4.638  0.00  0.00    -0.042 A 
ATOM      9  C   UNL     1       1.537   0.684  -3.346  0.00  0.00    +0.032 A 
ATOM     10  C   UNL     1       0.179   1.076  -5.566  0.00  0.00    +0.036 C 
ATOM     11  C   UNL     1       0.743   1.369  -6.973  0.00  0.00    +0.009 C 
ATOM     12  C   UNL     1       1.985   2.229  -6.660  0.00  0.00    +0.036 C 
ENDBRANCH   1   4
BRANCH   1  13
ATOM     13  N   UNL     1       2.457   1.492  -0.013  0.00  0.00    -0.213 N 
ATOM     14  H   UNL     1       3.189   1.968   0.656  0.00  0.00    +0.174 HD
BRANCH  13  18
ATOM     15  C   UNL     1      -1.569   4.335   0.038  0.00  0.00    +0.172 C 
ATOM     16  N   UNL     1      -0.682   3.169   0.024  0.00  0.00    -0.273 N 
ATOM     17  C   UNL     1       0.677   3.197   0.012  0.00  0.00    +0.132 A 
ATOM     18  C   UNL     1       1.113   1.912   0.002  0.00  0.00    +0.085 A 
ATOM     19  C   UNL     1      -0.013   1.076   0.008  0.00  0.00    +0.158 A 
ATOM     20  N   UNL     1      -1.084   1.827   0.017  0.00  0.00    -0.178 NA
ENDBRANCH  13  18
ENDBRANCH   1  13
TORSDOF 3
