REMARK  Name = ZINC53045350
REMARK  6 active torsions:
REMARK  status: ('A' for Active; 'I' for Inactive)
REMARK    1  A    between atoms: C_4  and  N_16
REMARK    2  A    between atoms: C_6  and  C_7
REMARK    3  A    between atoms: C_7  and  N_8
REMARK    4  A    between atoms: N_8  and  C_9
REMARK    5  A    between atoms: C_9  and  C_14
REMARK    6  A    between atoms: C_14  and  O_15
REMARK                            x       y       z     vdW  Elec       q    Type
REMARK                         _______ _______ _______ _____ _____    ______ ____
ROOT
ATOM      1  C   UNL     1      -1.444  -0.743   0.149  0.00  0.00    -0.046 C 
ENDROOT
BRANCH   1   7
ATOM      2  C   UNL     1      -0.316   1.486   0.297  0.00  0.00    +0.003 A 
ATOM      3  C   UNL     1       0.821   2.268   0.390  0.00  0.00    +0.018 A 
ATOM      4  C   UNL     1       2.068   1.672   0.438  0.00  0.00    +0.048 A 
ATOM      5  C   UNL     1       2.178   0.294   0.391  0.00  0.00    +0.140 A 
ATOM      6  C   UNL     1       1.041  -0.487   0.298  0.00  0.00    +0.035 A 
ATOM      7  C   UNL     1      -0.205   0.109   0.250  0.00  0.00    -0.062 A 
ATOM      8 BR   UNL     1       3.622   2.741   0.565  0.00  0.00    -0.048 Br
BRANCH   5   9
ATOM      9  N   UNL     1       3.512  -0.344   0.441  0.00  0.00    +0.058 N 
ATOM     10  O   UNL     1       3.608  -1.548   0.401  0.00  0.00    -0.126 OA
ATOM     11  O   UNL     1       4.506   0.339   0.523  0.00  0.00    -0.126 OA
ENDBRANCH   5   9
ENDBRANCH   1   7
BRANCH   1  12
ATOM     12  N   UNL     1      -1.770  -0.967  -1.266  0.00  0.00    +0.387 N 
ATOM     13  H   UNL     1      -1.994  -0.086  -1.703  0.00  0.00    -0.085 HD
ATOM     14  H   UNL     1      -0.977  -1.381  -1.732  0.00  0.00    -0.085 HD
BRANCH  12  15
ATOM     15  C   UNL     1      -2.923  -1.871  -1.366  0.00  0.00    -0.044 C 
ATOM     16  C   UNL     1      -3.232  -2.170  -2.843  0.00  0.00    -0.010 C 
ATOM     17  C   UNL     1      -4.665  -1.662  -3.106  0.00  0.00    -0.001 C 
ATOM     18  C   UNL     1      -4.891  -0.584  -2.016  0.00  0.00    -0.001 C 
ATOM     19  C   UNL     1      -4.179  -1.191  -0.782  0.00  0.00    -0.010 C 
BRANCH  15  20
ATOM     20  C   UNL     1      -2.635  -3.173  -0.616  0.00  0.00    +0.143 C 
BRANCH  20  21
ATOM     21  O   UNL     1      -1.418  -3.742  -1.101  0.00  0.00    -0.396 OA
ATOM     22  H   UNL     1      -1.172  -4.572  -0.669  0.00  0.00    +0.209 HD
ENDBRANCH  20  21
ENDBRANCH  15  20
ENDBRANCH  12  15
ENDBRANCH   1  12
TORSDOF 6
