REMARK  Name = ZINC39693360
REMARK  10 active torsions:
REMARK  status: ('A' for Active; 'I' for Inactive)
REMARK    1  A    between atoms: C_1  and  C_2
REMARK    2  A    between atoms: C_6  and  C_15
REMARK    3  A    between atoms: N_17  and  C_18
REMARK    4  A    between atoms: C_18  and  C_19
REMARK    5  A    between atoms: C_19  and  N_20
REMARK    6  A    between atoms: C_21  and  O_23
REMARK    7  A    between atoms: O_23  and  C_24
REMARK    8  A    between atoms: C_24  and  C_25
REMARK    9  A    between atoms: C_24  and  C_26
REMARK   10  A    between atoms: C_24  and  C_27
REMARK                            x       y       z     vdW  Elec       q    Type
REMARK                         _______ _______ _______ _____ _____    ______ ____
ROOT
ATOM      1  C   UNL     1      -0.157   1.339   0.086  0.00  0.00    +0.109 C 
ATOM      2  C   UNL     1      -0.030  -0.162   0.037  0.00  0.00    +0.212 C 
ATOM      3  O   UNL     1       0.043  -0.799   1.066  0.00  0.00    -0.276 OA
ATOM      4  N   UNL     1       0.002  -0.797  -1.152  0.00  0.00    -0.300 N 
ATOM      5  C   UNL     1      -0.067  -0.196  -2.505  0.00  0.00    +0.121 C 
ATOM      6  C   UNL     1       0.936  -1.015  -3.348  0.00  0.00    +0.100 C 
ATOM      7  C   UNL     1       1.050  -2.365  -2.619  0.00  0.00    -0.004 C 
ATOM      8  C   UNL     1       0.122  -2.253  -1.401  0.00  0.00    +0.115 C 
ATOM      9  C   UNL     1       2.486  -2.598  -2.161  0.00  0.00    -0.010 C 
ATOM     10  C   UNL     1       2.586  -3.971  -1.491  0.00  0.00    -0.082 C 
ATOM     11  N   UNL     1       2.179  -5.013  -2.441  0.00  0.00    +0.379 N 
ATOM     12  C   UNL     1       0.769  -4.835  -2.806  0.00  0.00    -0.082 C 
ATOM     13  C   UNL     1       0.592  -3.498  -3.532  0.00  0.00    -0.010 C 
ATOM     14  H   UNL     1       2.750  -4.951  -3.271  0.00  0.00    -0.086 HD
ATOM     15  H   UNL     1       2.304  -5.920  -2.018  0.00  0.00    -0.086 HD
ENDROOT
BRANCH   6  16
ATOM     16  C   UNL     1       0.408  -1.213  -4.745  0.00  0.00    +0.218 C 
ATOM     17  O   UNL     1      -0.788  -1.278  -4.938  0.00  0.00    -0.275 OA
ATOM     18  N   UNL     1       1.264  -1.318  -5.780  0.00  0.00    -0.314 N 
ATOM     19  H   UNL     1       2.220  -1.266  -5.626  0.00  0.00    +0.149 HD
BRANCH  18  20
ATOM     20  C   UNL     1       0.751  -1.511  -7.139  0.00  0.00    +0.123 C 
BRANCH  20  21
ATOM     21  C   UNL     1       1.922  -1.598  -8.119  0.00  0.00    +0.126 C 
BRANCH  21  22
ATOM     22  N   UNL     1       1.409  -1.791  -9.478  0.00  0.00    -0.280 N 
ATOM     23  C   UNL     1       2.265  -1.896 -10.513  0.00  0.00    +0.401 C 
ATOM     24  O   UNL     1       3.463  -1.831 -10.320  0.00  0.00    -0.226 OA
ATOM     25  H   UNL     1       0.453  -1.843  -9.632  0.00  0.00    +0.152 HD
BRANCH  23  26
ATOM     26  O   UNL     1       1.794  -2.073 -11.762  0.00  0.00    -0.445 OA
BRANCH  26  27
ATOM     27  C   UNL     1       2.758  -2.176 -12.811  0.00  0.00    +0.107 C 
ATOM     28  C   UNL     1       3.675  -3.371 -12.545  0.00  0.00    +0.055 C 
ATOM     29  C   UNL     1       2.039  -2.373 -14.147  0.00  0.00    +0.055 C 
ATOM     30  C   UNL     1       3.592  -0.894 -12.865  0.00  0.00    +0.055 C 
ENDBRANCH  26  27
ENDBRANCH  23  26
ENDBRANCH  21  22
ENDBRANCH  20  21
ENDBRANCH  18  20
ENDBRANCH   6  16
TORSDOF 6
