REMARK  Name = ZINC37614896
REMARK  6 active torsions:
REMARK  status: ('A' for Active; 'I' for Inactive)
REMARK    1  A    between atoms: C_1  and  C_2
REMARK    2  A    between atoms: C_2  and  N_9
REMARK    3  A    between atoms: C_10  and  C_12
REMARK    4  A    between atoms: C_12  and  C_13
REMARK    5  A    between atoms: C_12  and  C_14
REMARK    6  A    between atoms: C_12  and  N_17
REMARK                            x       y       z     vdW  Elec       q    Type
REMARK                         _______ _______ _______ _____ _____    ______ ____
ROOT
ATOM      1  N   UNL     1      -1.378  -0.491   0.059  0.00  0.00    -0.310 N 
ATOM      2  C   UNL     1      -2.254  -0.148  -0.907  0.00  0.00    +0.202 C 
ATOM      3  O   UNL     1      -1.899   0.564  -1.822  0.00  0.00    -0.277 OA
ATOM      4  H   UNL     1      -1.662  -1.060   0.791  0.00  0.00    +0.149 HD
ENDROOT
BRANCH   1   6
ATOM      5  C   UNL     1      -0.019   1.526   0.010  0.00  0.00    +0.033 C 
ATOM      6  C   UNL     1       0.002  -0.004   0.002  0.00  0.00    +0.052 C 
ATOM      7  C   UNL     1       0.632  -0.478  -1.307  0.00  0.00    +0.049 C 
ATOM      8  C   UNL     1       2.169  -0.637  -1.140  0.00  0.00    +0.168 C 
ATOM      9  S   UNL     1       2.220  -1.358   0.560  0.00  0.00    -0.029 S 
ATOM     10  O   UNL     1       3.389  -0.902   1.226  0.00  0.00    -0.174 OA
ATOM     11  O   UNL     1       1.952  -2.752   0.484  0.00  0.00    -0.174 OA
ATOM     12  C   UNL     1       0.751  -0.495   1.257  0.00  0.00    +0.191 C 
ENDBRANCH   1   6
BRANCH   2  13
ATOM     13  C   UNL     1      -3.674  -0.649  -0.849  0.00  0.00    +0.007 C 
ATOM     14  C   UNL     1      -3.750  -2.042  -1.478  0.00  0.00    -0.001 C 
BRANCH  13  15
ATOM     15  N   UNL     1      -4.111  -0.721   0.552  0.00  0.00    +0.388 N 
ATOM     16  H   UNL     1      -4.061   0.197   0.967  0.00  0.00    -0.089 HD
ATOM     17  H   UNL     1      -5.062  -1.056   0.591  0.00  0.00    -0.089 HD
ATOM     18  H   UNL     1      -3.510  -1.353   1.060  0.00  0.00    -0.089 HD
ENDBRANCH  13  15
BRANCH  13  19
ATOM     19  C   UNL     1      -4.585   0.309  -1.619  0.00  0.00    -0.014 C 
ATOM     20  C   UNL     1      -5.588   1.134  -0.809  0.00  0.00    +0.003 C 
ATOM     21  C   UNL     1      -6.076  -0.028  -1.677  0.00  0.00    +0.003 C 
ENDBRANCH  13  19
ENDBRANCH   2  13
TORSDOF 4
