REMARK  Name = ZINC01005893
REMARK  4 active torsions:
REMARK  status: ('A' for Active; 'I' for Inactive)
REMARK    1  A    between atoms: C_1  and  C_2
REMARK    2  A    between atoms: C_6  and  N_9
REMARK    3  A    between atoms: C_7  and  C_8
REMARK    4  A    between atoms: C_13  and  C_14
REMARK                            x       y       z     vdW  Elec       q    Type
REMARK                         _______ _______ _______ _____ _____    ______ ____
ROOT
ATOM      1  N   UNL     1      -0.723   3.141   0.446  0.00  0.00    -0.316 N 
ATOM      2  C   UNL     1       0.636   3.204   0.438  0.00  0.00    +0.092 A 
ATOM      3  C   UNL     1       1.125   2.067  -0.112  0.00  0.00    +0.020 A 
ATOM      4  C   UNL     1       0.040   1.257  -0.463  0.00  0.00    +0.027 A 
ATOM      5  C   UNL     1      -1.110   1.942  -0.115  0.00  0.00    +0.049 A 
ENDROOT
BRANCH   5   6
ATOM      6  C   UNL     1      -2.439   1.494  -0.298  0.00  0.00    +0.054 C 
ATOM      7  C   UNL     1      -3.271   2.158  -1.150  0.00  0.00    +0.099 C 
ATOM      8  C   UNL     1      -2.930   3.235  -2.013  0.00  0.00    +0.266 C 
ATOM      9  O   UNL     1      -1.831   3.746  -2.134  0.00  0.00    -0.268 OA
ATOM     10  N   UNL     1      -4.053   3.582  -2.673  0.00  0.00    -0.235 N 
ATOM     11  C   UNL     1      -5.070   2.800  -2.274  0.00  0.00    +0.311 C 
ATOM     12  O   UNL     1      -6.211   2.875  -2.687  0.00  0.00    -0.252 OA
ATOM     13  N   UNL     1      -4.638   1.922  -1.350  0.00  0.00    -0.265 N 
ATOM     14  H   UNL     1      -4.117   4.290  -3.332  0.00  0.00    +0.159 HD
ATOM     15  H   UNL     1      -5.175   1.248  -0.904  0.00  0.00    +0.157 HD
ENDBRANCH   5   6
BRANCH   1  21
ATOM     16  C   UNL     1      -4.028   4.604   3.781  0.00  0.00    +0.044 C 
ATOM     17  C   UNL     1      -3.198   4.867   2.551  0.00  0.00    -0.046 A 
ATOM     18  C   UNL     1      -3.287   6.086   1.904  0.00  0.00    +0.004 A 
ATOM     19  C   UNL     1      -2.527   6.330   0.775  0.00  0.00    +0.002 A 
ATOM     20  C   UNL     1      -1.676   5.356   0.289  0.00  0.00    +0.026 A 
ATOM     21  C   UNL     1      -1.585   4.131   0.936  0.00  0.00    +0.050 A 
ATOM     22  C   UNL     1      -2.354   3.887   2.066  0.00  0.00    -0.024 A 
ATOM     23  C   UNL     1      -2.262   2.556   2.768  0.00  0.00    +0.046 C 
ENDBRANCH   1  21
TORSDOF 2
