REMARK  Name = ZINC54639975
REMARK  5 active torsions:
REMARK  status: ('A' for Active; 'I' for Inactive)
REMARK    1  A    between atoms: C_1  and  C_2
REMARK    2  A    between atoms: C_2  and  N_3
REMARK    3  A    between atoms: N_3  and  C_4
REMARK    4  A    between atoms: C_4  and  C_5
REMARK    5  A    between atoms: C_5  and  C_12
REMARK                            x       y       z     vdW  Elec       q    Type
REMARK                         _______ _______ _______ _____ _____    ______ ____
ROOT
ATOM      1  C   UNL     1       1.314  -2.440  -2.531  0.00  0.00    -0.019 C 
ATOM      2  C   UNL     1       2.799  -2.115  -2.382  0.00  0.00    +0.029 C 
ATOM      3  C   UNL     1       3.110  -0.720  -2.994  0.00  0.00    +0.166 C 
ATOM      4  S   UNL     1       2.030  -0.793  -4.490  0.00  0.00    -0.031 S 
ATOM      5  O   UNL     1       2.691  -1.533  -5.508  0.00  0.00    -0.174 OA
ATOM      6  O   UNL     1       1.537   0.509  -4.775  0.00  0.00    -0.174 OA
ATOM      7  C   UNL     1       0.671  -1.815  -3.784  0.00  0.00    +0.171 C 
ENDROOT
BRANCH   1   8
ATOM      8  C   UNL     1       1.153  -3.960  -2.603  0.00  0.00    +0.017 C 
ATOM      9  C   UNL     1      -0.339  -4.320  -2.706  0.00  0.00    +0.028 C 
ATOM     10  C   UNL     1      -0.496  -5.808  -3.099  0.00  0.00    +0.166 C 
ATOM     11  S   UNL     1       1.041  -6.139  -4.053  0.00  0.00    -0.031 S 
ATOM     12  O   UNL     1       0.704  -6.338  -5.418  0.00  0.00    -0.174 OA
ATOM     13  O   UNL     1       1.805  -7.124  -3.370  0.00  0.00    -0.174 OA
ATOM     14  C   UNL     1       1.870  -4.504  -3.872  0.00  0.00    +0.170 C 
ENDBRANCH   1   8
BRANCH   1  15
ATOM     15  C   UNL     1       0.574  -1.929  -1.293  0.00  0.00    -0.074 C 
BRANCH  15  16
ATOM     16  N   UNL     1       0.788  -0.481  -1.158  0.00  0.00    +0.379 N 
ATOM     17  H   UNL     1       0.517  -0.020  -2.013  0.00  0.00    -0.086 HD
ATOM     18  H   UNL     1       1.763  -0.302  -0.972  0.00  0.00    -0.086 HD
BRANCH  16  20
ATOM     19  C   UNL     1       0.198   1.539   0.095  0.00  0.00    -0.017 C 
ATOM     20  C   UNL     1      -0.025   0.032  -0.047  0.00  0.00    -0.086 C 
ENDBRANCH  16  20
ENDBRANCH  15  16
ENDBRANCH   1  15
TORSDOF 4
