REMARK  Name = ZINC36266263
REMARK  5 active torsions:
REMARK  status: ('A' for Active; 'I' for Inactive)
REMARK    1  A    between atoms: C_1  and  C_2
REMARK    2  A    between atoms: N_12  and  S_13
REMARK    3  A    between atoms: S_13  and  C_16
REMARK    4  A    between atoms: C_18  and  C_22
REMARK    5  A    between atoms: N_19  and  C_21
REMARK                            x       y       z     vdW  Elec       q    Type
REMARK                         _______ _______ _______ _____ _____    ______ ____
ROOT
ATOM      1  S   UNL     1       0.528   0.435   2.611  0.00  0.00    +0.063 S 
ATOM      2  O   UNL     1       1.797   0.140   3.179  0.00  0.00    -0.153 OA
ATOM      3  O   UNL     1       0.044   1.764   2.476  0.00  0.00    -0.153 OA
ENDROOT
BRANCH   1  12
ATOM      4  C   UNL     1      -0.509   1.732   0.005  0.00  0.00    +0.026 C 
ATOM      5  C   UNL     1      -0.319   0.214  -0.033  0.00  0.00    +0.077 C 
ATOM      6  C   UNL     1       0.463  -0.200  -1.303  0.00  0.00    +0.023 C 
ATOM      7  C   UNL     1       1.083  -1.552  -0.872  0.00  0.00    -0.010 C 
ATOM      8  C   UNL     1       0.001  -2.642  -0.950  0.00  0.00    -0.078 C 
ATOM      9  N   UNL     1      -0.373  -2.985   0.439  0.00  0.00    +0.380 N 
ATOM     10  C   UNL     1       0.816  -2.665   1.268  0.00  0.00    -0.062 C 
ATOM     11  C   UNL     1       1.365  -1.345   0.642  0.00  0.00    +0.065 C 
ATOM     12  N   UNL     1       0.525  -0.226   1.092  0.00  0.00    -0.172 NA
ATOM     13  H   UNL     1      -1.163  -2.430   0.733  0.00  0.00    -0.086 HD
ATOM     14  H   UNL     1      -0.591  -3.968   0.508  0.00  0.00    -0.086 HD
ENDBRANCH   1  12
BRANCH   1  15
ATOM     15  C   UNL     1      -0.667  -0.443   3.563  0.00  0.00    +0.124 A 
ATOM     16  C   UNL     1      -2.022  -0.119   3.684  0.00  0.00    +0.061 A 
ATOM     17  C   UNL     1      -2.590  -1.059   4.517  0.00  0.00    +0.106 A 
ATOM     18  N   UNL     1      -1.597  -1.935   4.892  0.00  0.00    -0.344 N 
ATOM     19  C   UNL     1      -0.437  -1.554   4.302  0.00  0.00    +0.114 A 
ATOM     20  C   UNL     1      -1.766  -3.091   5.776  0.00  0.00    +0.149 C 
BRANCH  17  21
ATOM     21  C   UNL     1      -3.997  -1.116   4.928  0.00  0.00    +0.258 C 
ATOM     22  O   UNL     1      -4.401  -2.057   5.585  0.00  0.00    -0.269 OA
ATOM     23  N   UNL     1      -4.841  -0.125   4.579  0.00  0.00    -0.324 N 
ATOM     24  H   UNL     1      -4.538   0.587   3.995  0.00  0.00    +0.145 HD
ATOM     25  H   UNL     1      -5.752  -0.125   4.912  0.00  0.00    +0.145 HD
ENDBRANCH  17  21
ENDBRANCH   1  15
TORSDOF 3
