REMARK  Name = ZINC52015360
REMARK  5 active torsions:
REMARK  status: ('A' for Active; 'I' for Inactive)
REMARK    1  A    between atoms: C_3  and  C_11
REMARK    2  A    between atoms: C_4  and  N_8
REMARK    3  A    between atoms: C_11  and  N_12
REMARK    4  A    between atoms: N_12  and  C_13
REMARK    5  A    between atoms: C_19  and  O_21
REMARK                            x       y       z     vdW  Elec       q    Type
REMARK                         _______ _______ _______ _____ _____    ______ ____
ROOT
ATOM      1  C   UNL     1       3.672   2.183  -0.022  0.00  0.00    -0.044 C 
ENDROOT
BRANCH   1   4
ATOM      2  C   UNL     1      -0.017   1.379   0.010  0.00  0.00    +0.020 A 
ATOM      3  C   UNL     1       1.171   2.086   0.002  0.00  0.00    +0.005 A 
ATOM      4  C   UNL     1       2.377   1.411  -0.013  0.00  0.00    -0.034 A 
ATOM      5  C   UNL     1       2.397   0.029  -0.022  0.00  0.00    +0.129 A 
ATOM      6  C   UNL     1       1.210  -0.679  -0.014  0.00  0.00    +0.053 A 
ATOM      7  C   UNL     1       0.002  -0.004   0.002  0.00  0.00    +0.043 A 
ATOM      8 CL   UNL     1      -1.489  -0.893   0.012  0.00  0.00    -0.083 Cl
BRANCH   5   9
ATOM      9  N   UNL     1       3.689  -0.693  -0.039  0.00  0.00    +0.057 N 
ATOM     10  O   UNL     1       3.706  -1.902  -0.046  0.00  0.00    -0.126 OA
ATOM     11  O   UNL     1       4.727  -0.073  -0.047  0.00  0.00    -0.126 OA
ENDBRANCH   5   9
ENDBRANCH   1   4
BRANCH   1  12
ATOM     12  N   UNL     1       4.202   2.234  -1.391  0.00  0.00    +0.385 N 
ATOM     13  H   UNL     1       4.367   1.296  -1.723  0.00  0.00    -0.085 HD
ATOM     14  H   UNL     1       3.534   2.692  -1.994  0.00  0.00    -0.085 HD
BRANCH  12  15
ATOM     15  C   UNL     1       5.464   2.986  -1.400  0.00  0.00    -0.042 C 
ATOM     16  C   UNL     1       5.192   4.442  -1.016  0.00  0.00    -0.013 C 
ATOM     17  C   UNL     1       6.507   5.226  -1.025  0.00  0.00    -0.001 C 
ATOM     18  C   UNL     1       7.122   5.173  -2.425  0.00  0.00    +0.002 C 
ATOM     19  C   UNL     1       7.394   3.717  -2.808  0.00  0.00    +0.030 C 
ATOM     20  C   UNL     1       6.079   2.934  -2.800  0.00  0.00    +0.101 C 
BRANCH  20  21
ATOM     21  O   UNL     1       5.173   3.514  -3.740  0.00  0.00    -0.393 OA
ATOM     22  H   UNL     1       5.498   3.515  -4.651  0.00  0.00    +0.210 HD
ENDBRANCH  20  21
ENDBRANCH  12  15
ENDBRANCH   1  12
TORSDOF 5
