REMARK  Name = ZINC14475996
REMARK  4 active torsions:
REMARK  status: ('A' for Active; 'I' for Inactive)
REMARK    1  A    between atoms: C_5  and  C_7
REMARK    2  A    between atoms: C_17  and  C_26
REMARK    3  A    between atoms: C_28  and  N_33
REMARK    4  A    between atoms: C_31  and  O_32
REMARK                            x       y       z     vdW  Elec       q    Type
REMARK                         _______ _______ _______ _____ _____    ______ ____
ROOT
ATOM      1  C   UNL     1      -1.239  -0.743   0.249  0.00  0.00    +0.001 A 
ATOM      2  C   UNL     1      -0.564  -1.939   0.082  0.00  0.00    +0.006 A 
ATOM      3  C   UNL     1       0.822  -1.978   0.053  0.00  0.00    -0.019 A 
ATOM      4  C   UNL     1       1.540  -0.803   0.200  0.00  0.00    +0.044 A 
ATOM      5  C   UNL     1       0.855   0.415   0.369  0.00  0.00    +0.058 A 
ATOM      6  C   UNL     1      -0.540   0.435   0.391  0.00  0.00    +0.015 A 
ATOM      7  N   UNL     1       2.926  -0.776   0.187  0.00  0.00    -0.336 N 
ATOM      8  C   UNL     1       3.494  -1.886  -0.578  0.00  0.00    +0.108 C 
ATOM      9  C   UNL     1       3.015  -3.212   0.017  0.00  0.00    +0.029 C 
ATOM     10  C   UNL     1       1.483  -3.311  -0.146  0.00  0.00    +0.049 C 
ATOM     11  C   UNL     1       1.294  -3.789  -1.568  0.00  0.00    -0.023 C 
ATOM     12  C   UNL     1       2.385  -4.360  -2.010  0.00  0.00    -0.030 C 
ATOM     13  C   UNL     1       3.460  -4.353  -0.941  0.00  0.00    +0.033 C 
ATOM     14  H   UNL     1       3.589  -0.043   0.668  0.00  0.00    +0.147 HD
ENDROOT
BRANCH   5  15
ATOM     15  C   UNL     1       1.612   1.671   0.522  0.00  0.00    +0.248 C 
ATOM     16  O   UNL     1       2.452   1.772   1.396  0.00  0.00    -0.270 OA
ATOM     17  N   UNL     1       1.374   2.707  -0.306  0.00  0.00    -0.297 N 
ATOM     18  C   UNL     1       0.470   2.512  -1.417  0.00  0.00    +0.108 C 
ATOM     19  C   UNL     1       1.253   2.011  -2.649  0.00  0.00    +0.019 C 
ATOM     20  C   UNL     1       2.085   3.091  -3.199  0.00  0.00    +0.002 C 
ATOM     21  C   UNL     1       3.163   3.601  -2.247  0.00  0.00    +0.002 C 
ATOM     22  C   UNL     1       2.570   4.649  -1.336  0.00  0.00    +0.019 C 
ATOM     23  C   UNL     1       2.050   3.993  -0.044  0.00  0.00    +0.108 C 
ENDBRANCH   5  15
BRANCH   8  24
ATOM     24  C   UNL     1       3.046  -1.789  -2.014  0.00  0.00    +0.017 A 
ATOM     25  C   UNL     1       1.792  -1.294  -2.315  0.00  0.00    +0.041 A 
ATOM     26  C   UNL     1       1.383  -1.199  -3.632  0.00  0.00    +0.127 A 
ATOM     27  C   UNL     1       2.223  -1.609  -4.651  0.00  0.00    +0.036 A 
ATOM     28  C   UNL     1       3.476  -2.110  -4.354  0.00  0.00    +0.048 A 
ATOM     29  C   UNL     1       3.891  -2.201  -3.034  0.00  0.00    +0.122 A 
BRANCH  26  30
ATOM     30  N   UNL     1       0.041  -0.662  -3.952  0.00  0.00    +0.056 N 
ATOM     31  O   UNL     1      -0.322  -0.582  -5.112  0.00  0.00    -0.126 OA
ATOM     32  O   UNL     1      -0.700  -0.300  -3.055  0.00  0.00    -0.126 OA
ENDBRANCH  26  30
BRANCH  29  33
ATOM     33  O   UNL     1       5.124  -2.693  -2.740  0.00  0.00    -0.506 OA
ATOM     34  H   UNL     1       5.793  -3.019  -3.550  0.00  0.00    +0.292 HD
ENDBRANCH  29  33
ENDBRANCH   8  24
TORSDOF 4
