REMARK  Name = ZINC50378241
REMARK  9 active torsions:
REMARK  status: ('A' for Active; 'I' for Inactive)
REMARK    1  A    between atoms: C_1  and  C_2
REMARK    2  A    between atoms: C_2  and  C_4
REMARK    3  A    between atoms: C_2  and  N_7
REMARK    4  A    between atoms: C_4  and  C_5
REMARK    5  A    between atoms: C_5  and  N_6
REMARK    6  A    between atoms: N_7  and  S_8
REMARK    7  A    between atoms: S_8  and  C_11
REMARK    8  A    between atoms: N_13  and  C_20
REMARK    9  A    between atoms: N_16  and  C_19
REMARK                            x       y       z     vdW  Elec       q    Type
REMARK                         _______ _______ _______ _____ _____    ______ ____
ROOT
ATOM      1  S   UNL     1      -0.139  -0.902   2.549  0.00  0.00    +0.065 S 
ATOM      2  O   UNL     1       0.814  -1.354   3.502  0.00  0.00    -0.153 OA
ATOM      3  O   UNL     1      -1.030   0.173   2.814  0.00  0.00    -0.153 OA
ENDROOT
BRANCH   1   4
ATOM      4  C   UNL     1      -1.137  -2.294   2.137  0.00  0.00    +0.186 A 
ATOM      5  C   UNL     1      -2.466  -2.150   1.942  0.00  0.00    +0.124 A 
ATOM      6  N   UNL     1      -3.227  -3.241   1.623  0.00  0.00    -0.301 N 
ATOM      7  C   UNL     1      -2.664  -4.457   1.502  0.00  0.00    +0.332 A 
ATOM      8  O   UNL     1      -3.358  -5.414   1.218  0.00  0.00    -0.246 OA
ATOM      9  N   UNL     1      -1.342  -4.630   1.691  0.00  0.00    -0.262 N 
ATOM     10  C   UNL     1      -0.557  -3.578   2.001  0.00  0.00    +0.283 A 
ATOM     11  O   UNL     1       0.640  -3.733   2.167  0.00  0.00    -0.265 OA
ATOM     12  C   UNL     1      -0.754  -5.964   1.553  0.00  0.00    +0.157 C 
ATOM     13  C   UNL     1      -4.668  -3.084   1.411  0.00  0.00    +0.153 C 
ENDBRANCH   1   4
BRANCH   1  14
ATOM     14  N   UNL     1       0.711  -0.489   1.189  0.00  0.00    -0.187 NA
ATOM     15  H   UNL     1       1.677  -0.569   1.178  0.00  0.00    +0.148 HD
BRANCH  14  17
ATOM     16  C   UNL     1      -0.019   1.526   0.010  0.00  0.00    +0.025 C 
ATOM     17  C   UNL     1       0.002  -0.004   0.002  0.00  0.00    +0.072 C 
BRANCH  17  18
ATOM     18  C   UNL     1       0.718  -0.497  -1.257  0.00  0.00    +0.000 C 
BRANCH  18  19
ATOM     19  C   UNL     1       0.630  -2.023  -1.329  0.00  0.00    -0.085 C 
BRANCH  19  20
ATOM     20  N   UNL     1       1.318  -2.497  -2.537  0.00  0.00    +0.378 N 
ATOM     21  H   UNL     1       0.879  -2.096  -3.353  0.00  0.00    -0.090 HD
ATOM     22  H   UNL     1       2.287  -2.217  -2.505  0.00  0.00    -0.090 HD
ATOM     23  H   UNL     1       1.260  -3.503  -2.585  0.00  0.00    -0.090 HD
ENDBRANCH  19  20
ENDBRANCH  18  19
ENDBRANCH  17  18
ENDBRANCH  14  17
ENDBRANCH   1  14
TORSDOF 6
