REMARK  Name = ZINC40740579
REMARK  2 active torsions:
REMARK  status: ('A' for Active; 'I' for Inactive)
REMARK    1  A    between atoms: C_6  and  N_11
REMARK    2  A    between atoms: C_12  and  C_14
REMARK                            x       y       z     vdW  Elec       q    Type
REMARK                         _______ _______ _______ _____ _____    ______ ____
ROOT
ATOM      1  N   UNL     1       0.773   1.729   2.291  0.00  0.00    -0.312 N 
ATOM      2  C   UNL     1      -0.103   2.132   3.232  0.00  0.00    +0.219 C 
ATOM      3  O   UNL     1      -0.567   1.328   4.013  0.00  0.00    -0.275 OA
ATOM      4  H   UNL     1       1.144   2.372   1.666  0.00  0.00    +0.149 HD
ENDROOT
BRANCH   1   9
ATOM      5  C   UNL     1       1.631   2.000   0.043  0.00  0.00    -0.017 C 
ATOM      6  C   UNL     1       2.767   2.260   1.053  0.00  0.00    -0.017 C 
ATOM      7  C   UNL     1       3.416   0.876   1.285  0.00  0.00    -0.070 C 
ATOM      8  C   UNL     1       2.674   0.197   2.447  0.00  0.00    +0.006 C 
ATOM      9  C   UNL     1       1.166   0.320   2.211  0.00  0.00    +0.070 C 
ATOM     10  C   UNL     1       0.812  -0.230   0.826  0.00  0.00    +0.006 C 
ATOM     11  C   UNL     1       1.696   0.482  -0.245  0.00  0.00    -0.070 C 
ATOM     12  N   UNL     1       3.108   0.116   0.044  0.00  0.00    +0.383 N 
ATOM     13  H   UNL     1       3.712   0.408  -0.710  0.00  0.00    -0.085 HD
ATOM     14  H   UNL     1       3.192  -0.876   0.205  0.00  0.00    -0.085 HD
ENDBRANCH   1   9
BRANCH   2  15
ATOM     15  C   UNL     1      -0.507   3.581   3.314  0.00  0.00    +0.048 C 
ATOM     16  C   UNL     1      -1.159   4.004   1.997  0.00  0.00    +0.019 C 
ATOM     17  C   UNL     1      -1.570   5.476   2.080  0.00  0.00    -0.009 C 
ATOM     18  C   UNL     1      -2.566   5.664   3.226  0.00  0.00    +0.007 C 
ATOM     19  C   UNL     1      -1.914   5.241   4.543  0.00  0.00    -0.009 C 
ATOM     20  C   UNL     1      -1.504   3.769   4.460  0.00  0.00    +0.019 C 
ATOM     21  C   UNL     1      -0.675   6.102   4.799  0.00  0.00    +0.007 C 
ATOM     22  C   UNL     1       0.322   5.914   3.653  0.00  0.00    -0.009 C 
ATOM     23  C   UNL     1      -0.331   6.337   2.335  0.00  0.00    +0.007 C 
ATOM     24  C   UNL     1       0.732   4.442   3.570  0.00  0.00    +0.019 C 
ENDBRANCH   2  15
TORSDOF 2
