REMARK  Name = ZINC36138462
REMARK  6 active torsions:
REMARK  status: ('A' for Active; 'I' for Inactive)
REMARK    1  A    between atoms: N_9  and  C_12
REMARK    2  A    between atoms: C_12  and  C_13
REMARK    3  A    between atoms: C_13  and  S_14
REMARK    4  A    between atoms: S_14  and  N_17
REMARK    5  A    between atoms: C_21  and  C_24
REMARK    6  A    between atoms: C_24  and  O_25
REMARK                            x       y       z     vdW  Elec       q    Type
REMARK                         _______ _______ _______ _____ _____    ______ ____
ROOT
ATOM      1  C   UNL     1       3.959  -3.857  -1.501  0.00  0.00    +0.204 C 
ENDROOT
BRANCH   1   2
ATOM      2  S   UNL     1       4.899  -5.407  -1.518  0.00  0.00    +0.033 S 
ATOM      3  O   UNL     1       6.214  -5.188  -1.025  0.00  0.00    -0.158 OA
ATOM      4  O   UNL     1       4.103  -6.469  -1.010  0.00  0.00    -0.158 OA
BRANCH   2   5
ATOM      5  N   UNL     1       5.104  -5.763  -3.123  0.00  0.00    -0.181 NA
ATOM      6  C   UNL     1       4.112  -6.574  -3.842  0.00  0.00    +0.109 C 
ATOM      7  C   UNL     1       4.830  -7.749  -4.514  0.00  0.00    +0.017 C 
ATOM      8  C   UNL     1       5.962  -7.213  -5.394  0.00  0.00    +0.008 C 
ATOM      9  C   UNL     1       6.974  -6.462  -4.526  0.00  0.00    +0.030 C 
ATOM     10  C   UNL     1       6.277  -5.268  -3.855  0.00  0.00    +0.114 C 
BRANCH   9  11
ATOM     11  C   UNL     1       8.122  -5.956  -5.402  0.00  0.00    +0.160 C 
BRANCH  11  12
ATOM     12  O   UNL     1       8.838  -7.070  -5.938  0.00  0.00    -0.395 OA
ATOM     13  H   UNL     1       9.582  -6.823  -6.505  0.00  0.00    +0.209 HD
ENDBRANCH  11  12
ENDBRANCH   9  11
ENDBRANCH   2   5
ENDBRANCH   1   2
BRANCH   1  14
ATOM     14  C   UNL     1       3.709  -3.428  -0.053  0.00  0.00    +0.141 C 
BRANCH  14  23
ATOM     15  C   UNL     1      -0.017   1.382   0.010  0.00  0.00    +0.001 A 
ATOM     16  C   UNL     1       1.165   2.099   0.002  0.00  0.00    +0.001 A 
ATOM     17  C   UNL     1       2.385   1.442  -0.013  0.00  0.00    +0.014 A 
ATOM     18  C   UNL     1       2.420   0.056  -0.021  0.00  0.00    +0.049 A 
ATOM     19  C   UNL     1       1.215  -0.675  -0.013  0.00  0.00    +0.049 A 
ATOM     20  C   UNL     1       0.002  -0.004   0.002  0.00  0.00    +0.014 A 
ATOM     21  C   UNL     1       1.606  -2.100  -0.025  0.00  0.00    +0.254 C 
ATOM     22  O   UNL     1       0.843  -3.045  -0.023  0.00  0.00    -0.270 OA
ATOM     23  N   UNL     1       2.949  -2.175  -0.039  0.00  0.00    -0.232 N 
ATOM     24  C   UNL     1       3.503  -0.949  -0.038  0.00  0.00    +0.254 C 
ATOM     25  O   UNL     1       4.693  -0.709  -0.049  0.00  0.00    -0.270 OA
ENDBRANCH  14  23
ENDBRANCH   1  14
TORSDOF 6
