REMARK  Name = ZINC53858381
REMARK  5 active torsions:
REMARK  status: ('A' for Active; 'I' for Inactive)
REMARK    1  A    between atoms: C_1  and  C_2
REMARK    2  A    between atoms: C_2  and  N_3
REMARK    3  A    between atoms: N_3  and  C_4
REMARK    4  A    between atoms: C_10  and  C_12
REMARK    5  A    between atoms: C_12  and  N_13
REMARK                            x       y       z     vdW  Elec       q    Type
REMARK                         _______ _______ _______ _____ _____    ______ ____
ROOT
ATOM      1  C   UNL     1      -3.416  -2.002  -1.409  0.00  0.00    -0.077 C 
ENDROOT
BRANCH   1   2
ATOM      2  N   UNL     1      -4.745  -2.604  -1.579  0.00  0.00    +0.380 N 
ATOM      3  C   UNL     1      -4.604  -4.056  -1.745  0.00  0.00    -0.079 C 
ATOM      4  C   UNL     1      -5.988  -4.701  -1.847  0.00  0.00    -0.015 C 
ATOM      5  C   UNL     1      -6.725  -4.117  -3.058  0.00  0.00    -0.011 C 
ATOM      6  C   UNL     1      -5.951  -4.470  -4.331  0.00  0.00    +0.004 C 
ATOM      7  C   UNL     1      -6.655  -3.860  -5.545  0.00  0.00    +0.000 C 
ATOM      8  C   UNL     1      -6.705  -2.338  -5.391  0.00  0.00    +0.000 C 
ATOM      9  C   UNL     1      -7.484  -1.982  -4.124  0.00  0.00    +0.002 C 
ATOM     10  C   UNL     1      -6.808  -2.597  -2.898  0.00  0.00    -0.025 C 
ATOM     11  C   UNL     1      -5.396  -2.026  -2.761  0.00  0.00    -0.075 C 
ATOM     12  H   UNL     1      -5.306  -2.415  -0.761  0.00  0.00    -0.082 HD
ENDBRANCH   1   2
BRANCH   1  18
ATOM     13  C   UNL     1      -1.356  -1.981   0.004  0.00  0.00    -0.070 C 
ATOM     14  C   UNL     1      -0.727  -2.490   1.303  0.00  0.00    -0.016 C 
ATOM     15  C   UNL     1      -1.550  -1.998   2.495  0.00  0.00    -0.002 C 
ATOM     16  C   UNL     1      -2.981  -2.526   2.380  0.00  0.00    +0.000 C 
ATOM     17  C   UNL     1      -3.610  -2.018   1.082  0.00  0.00    -0.000 C 
ATOM     18  C   UNL     1      -2.787  -2.510  -0.111  0.00  0.00    -0.042 C 
BRANCH  13  19
ATOM     19  N   UNL     1      -1.376  -0.512   0.012  0.00  0.00    +0.381 N 
ATOM     20  H   UNL     1      -1.848  -0.187   0.843  0.00  0.00    -0.086 HD
ATOM     21  H   UNL     1      -1.864  -0.178  -0.805  0.00  0.00    -0.086 HD
BRANCH  19  23
ATOM     22  C   UNL     1      -0.019   1.526   0.010  0.00  0.00    -0.017 C 
ATOM     23  C   UNL     1       0.002  -0.004   0.002  0.00  0.00    -0.086 C 
ENDBRANCH  19  23
ENDBRANCH  13  19
ENDBRANCH   1  18
TORSDOF 4
