REMARK  Name = ZINC63205505
REMARK  7 active torsions:
REMARK  status: ('A' for Active; 'I' for Inactive)
REMARK    1  A    between atoms: C_1  and  C_2
REMARK    2  A    between atoms: C_2  and  C_3
REMARK    3  A    between atoms: C_3  and  C_23
REMARK    4  A    between atoms: N_19  and  C_20
REMARK    5  A    between atoms: C_20  and  C_21
REMARK    6  A    between atoms: C_21  and  O_22
REMARK    7  A    between atoms: C_23  and  C_24
REMARK                            x       y       z     vdW  Elec       q    Type
REMARK                         _______ _______ _______ _____ _____    ______ ____
ROOT
ATOM      1  C   UNL     1      -1.394  -0.633  -0.051  0.00  0.00    -0.009 C 
ATOM      2  C   UNL     1      -2.219  -0.153   1.142  0.00  0.00    +0.043 C 
ATOM      3  C   UNL     1      -3.528  -0.884   1.250  0.00  0.00    -0.038 A 
ATOM      4  C   UNL     1      -4.556  -0.314   1.977  0.00  0.00    +0.004 A 
ATOM      5  C   UNL     1      -5.770  -0.964   2.103  0.00  0.00    +0.000 A 
ATOM      6  C   UNL     1      -5.976  -2.195   1.504  0.00  0.00    +0.001 A 
ATOM      7  C   UNL     1      -4.965  -2.780   0.771  0.00  0.00    +0.010 A 
ATOM      8  C   UNL     1      -3.737  -2.125   0.638  0.00  0.00    -0.002 A 
ATOM      9  C   UNL     1      -2.658  -2.731  -0.157  0.00  0.00    +0.038 C 
ATOM     10  N   UNL     1      -2.888  -3.717  -0.973  0.00  0.00    -0.332 N 
ATOM     11  C   UNL     1      -1.943  -4.200  -1.792  0.00  0.00    +0.185 C 
ATOM     12  N   UNL     1      -0.734  -3.666  -1.862  0.00  0.00    -0.149 NA
ATOM     13  C   UNL     1      -0.358  -2.677  -1.061  0.00  0.00    +0.248 C 
ATOM     14  O   UNL     1       0.746  -2.185  -1.194  0.00  0.00    -0.273 OA
ATOM     15  C   UNL     1      -1.272  -2.156   0.005  0.00  0.00    +0.131 C 
ATOM     16  N   UNL     1      -2.237  -5.279  -2.579  0.00  0.00    -0.315 N 
ATOM     17  H   UNL     1      -3.772  -4.117  -0.990  0.00  0.00    +0.168 HD
ATOM     18  H   UNL     1      -3.118  -5.682  -2.540  0.00  0.00    +0.149 HD
ENDROOT
BRANCH   1  20
ATOM     19  C   UNL     1       0.746  -0.528   1.235  0.00  0.00    +0.004 C 
ATOM     20  C   UNL     1       0.000  -0.005   0.005  0.00  0.00    +0.005 C 
ENDBRANCH   1  20
BRANCH   1  21
ATOM     21  C   UNL     1      -2.087  -0.223  -1.352  0.00  0.00    +0.005 C 
ATOM     22  C   UNL     1      -2.102   1.303  -1.463  0.00  0.00    +0.004 C 
ENDBRANCH   1  21
BRANCH  16  23
ATOM     23  C   UNL     1      -1.220  -5.825  -3.482  0.00  0.00    +0.132 C 
BRANCH  23  24
ATOM     24  C   UNL     1      -1.802  -7.018  -4.242  0.00  0.00    +0.174 C 
BRANCH  24  25
ATOM     25  O   UNL     1      -2.862  -6.572  -5.091  0.00  0.00    -0.393 OA
ATOM     26  H   UNL     1      -3.278  -7.278  -5.605  0.00  0.00    +0.209 HD
ENDBRANCH  24  25
ENDBRANCH  23  24
ENDBRANCH  16  23
TORSDOF 5
