REMARK  Name = ZINC43405452
REMARK  5 active torsions:
REMARK  status: ('A' for Active; 'I' for Inactive)
REMARK    1  A    between atoms: C_1  and  N_2
REMARK    2  A    between atoms: N_2  and  C_3
REMARK    3  A    between atoms: C_3  and  C_4
REMARK    4  A    between atoms: C_11  and  C_19
REMARK    5  A    between atoms: C_19  and  N_20
REMARK                            x       y       z     vdW  Elec       q    Type
REMARK                         _______ _______ _______ _____ _____    ______ ____
ROOT
ATOM      1  C   UNL     1      -1.448   0.334   0.342  0.00  0.00    +0.131 C 
ATOM      2  N   UNL     1      -0.125  -0.043  -0.163  0.00  0.00    -0.315 N 
ATOM      3  C   UNL     1      -0.003  -0.653  -1.405  0.00  0.00    +0.100 A 
ATOM      4  C   UNL     1       0.066   0.130  -2.554  0.00  0.00    -0.027 A 
ATOM      5  C   UNL     1       0.188  -0.493  -3.781  0.00  0.00    +0.010 A 
ATOM      6  C   UNL     1       0.236  -1.881  -3.823  0.00  0.00    -0.028 A 
ATOM      7  C   UNL     1       0.162  -2.599  -2.646  0.00  0.00    +0.021 A 
ATOM      8  N   UNL     1       0.051  -1.971  -1.486  0.00  0.00    -0.346 N 
ATOM      9  C   UNL     1       0.236  -4.082  -2.949  0.00  0.00    +0.054 C 
ATOM     10  C   UNL     1      -0.079  -4.203  -4.455  0.00  0.00    +0.011 C 
ATOM     11  C   UNL     1       0.363  -2.827  -4.997  0.00  0.00    +0.037 C 
ATOM     12  H   UNL     1       0.004  -2.495  -0.670  0.00  0.00    +0.167 HD
ENDROOT
BRANCH   2  13
ATOM     13  C   UNL     1       1.069   0.223   0.643  0.00  0.00    +0.141 C 
BRANCH  13  14
ATOM     14  C   UNL     1       1.326  -0.945   1.561  0.00  0.00    -0.022 A 
ATOM     15  C   UNL     1       0.763  -0.982   2.823  0.00  0.00    +0.028 A 
ATOM     16  C   UNL     1       1.014  -2.048   3.623  0.00  0.00    +0.055 A 
ATOM     17  S   UNL     1       2.075  -3.044   2.589  0.00  0.00    -0.090 S 
ATOM     18  C   UNL     1       2.107  -1.976   1.159  0.00  0.00    +0.051 A 
ATOM     19 BR   UNL     1       0.401  -2.389   5.380  0.00  0.00    -0.043 Br
ENDBRANCH  13  14
ENDBRANCH   2  13
BRANCH   4  20
ATOM     20  C   UNL     1       0.009   1.633  -2.460  0.00  0.00    -0.047 C 
BRANCH  20  21
ATOM     21  N   UNL     1       1.333   2.151  -2.091  0.00  0.00    +0.381 N 
ATOM     22  H   UNL     1       1.628   1.733  -1.222  0.00  0.00    -0.090 HD
ATOM     23  H   UNL     1       1.997   1.924  -2.816  0.00  0.00    -0.090 HD
ATOM     24  H   UNL     1       1.284   3.153  -1.982  0.00  0.00    -0.090 HD
ENDBRANCH  20  21
ENDBRANCH   4  20
TORSDOF 4
