REMARK  Name = ZINC49547563
REMARK  5 active torsions:
REMARK  status: ('A' for Active; 'I' for Inactive)
REMARK    1  A    between atoms: C_1  and  C_2
REMARK    2  A    between atoms: C_2  and  C_3
REMARK    3  A    between atoms: C_3  and  C_4
REMARK    4  A    between atoms: C_7  and  N_10
REMARK    5  A    between atoms: C_11  and  C_13
REMARK                            x       y       z     vdW  Elec       q    Type
REMARK                         _______ _______ _______ _____ _____    ______ ____
ROOT
ATOM      1  N   UNL     1      -0.451  -4.091  -3.824  0.00  0.00    -0.314 N 
ATOM      2  C   UNL     1      -0.249  -4.759  -4.977  0.00  0.00    +0.199 C 
ATOM      3  O   UNL     1       0.431  -5.763  -4.986  0.00  0.00    -0.278 OA
ATOM      4  H   UNL     1      -0.995  -3.288  -3.818  0.00  0.00    +0.149 HD
ENDROOT
BRANCH   2   5
ATOM      5  C   UNL     1      -0.868  -4.258  -6.257  0.00  0.00    +0.017 C 
ATOM      6  C   UNL     1      -2.405  -4.266  -6.134  0.00  0.00    -0.005 C 
ATOM      7  C   UNL     1      -2.889  -5.239  -7.247  0.00  0.00    -0.026 C 
ATOM      8  C   UNL     1      -3.007  -6.620  -6.599  0.00  0.00    +0.002 C 
ATOM      9  C   UNL     1      -3.091  -7.713  -7.662  0.00  0.00    +0.000 C 
ATOM     10  C   UNL     1      -1.796  -7.697  -8.482  0.00  0.00    -0.002 C 
ATOM     11  C   UNL     1      -1.703  -6.355  -9.207  0.00  0.00    -0.015 C 
ATOM     12  C   UNL     1      -1.713  -5.188  -8.240  0.00  0.00    -0.068 C 
ATOM     13  N   UNL     1      -0.512  -5.161  -7.378  0.00  0.00    +0.389 N 
ATOM     14  H   UNL     1       0.279  -4.794  -7.885  0.00  0.00    -0.084 HD
ATOM     15  H   UNL     1      -0.309  -6.086  -7.031  0.00  0.00    -0.084 HD
ENDBRANCH   2   5
BRANCH   1  19
ATOM     16  C   UNL     1       0.739  -2.027  -1.265  0.00  0.00    -0.011 C 
ATOM     17  C   UNL     1      -0.692  -2.556  -1.380  0.00  0.00    +0.005 C 
ATOM     18  C   UNL     1      -0.671  -4.086  -1.389  0.00  0.00    +0.022 C 
ATOM     19  C   UNL     1       0.151  -4.578  -2.581  0.00  0.00    +0.073 C 
ATOM     20  C   UNL     1       1.583  -4.050  -2.466  0.00  0.00    +0.022 C 
ATOM     21  C   UNL     1       1.562  -2.520  -2.457  0.00  0.00    +0.005 C 
BRANCH  16  22
ATOM     22  C   UNL     1       0.718  -0.497  -1.257  0.00  0.00    +0.003 C 
BRANCH  22  24
ATOM     23  C   UNL     1      -0.019   1.526   0.010  0.00  0.00    +0.004 C 
ATOM     24  C   UNL     1       0.002  -0.004   0.002  0.00  0.00    -0.003 C 
ENDBRANCH  22  24
ENDBRANCH  16  22
ENDBRANCH   1  19
TORSDOF 4
