REMARK  Name = ZINC39403920
REMARK  5 active torsions:
REMARK  status: ('A' for Active; 'I' for Inactive)
REMARK    1  A    between atoms: C_1  and  N_2
REMARK    2  A    between atoms: C_4  and  N_12
REMARK    3  A    between atoms: N_15  and  C_16
REMARK    4  A    between atoms: C_16  and  C_17
REMARK    5  A    between atoms: C_17  and  C_18
REMARK                            x       y       z     vdW  Elec       q    Type
REMARK                         _______ _______ _______ _____ _____    ______ ____
ROOT
ATOM      1  N   UNL     1      -1.084  -3.017   1.193  0.00  0.00    -0.291 N 
ATOM      2  C   UNL     1      -1.177  -4.362   1.177  0.00  0.00    +0.300 C 
ATOM      3  O   UNL     1      -0.899  -4.979   0.168  0.00  0.00    -0.253 OA
ATOM      4  N   UNL     1      -1.578  -5.022   2.282  0.00  0.00    -0.299 N 
ATOM      5  H   UNL     1      -1.306  -2.525   1.999  0.00  0.00    +0.151 HD
ATOM      6  H   UNL     1      -1.800  -4.530   3.088  0.00  0.00    +0.150 HD
ENDROOT
BRANCH   1  10
ATOM      7  C   UNL     1      -0.018   1.461   0.010  0.00  0.00    +0.129 C 
ATOM      8  N   UNL     1       0.002  -0.004   0.002  0.00  0.00    -0.331 N 
ATOM      9  C   UNL     1      -1.187  -0.860   0.003  0.00  0.00    +0.132 C 
ATOM     10  C   UNL     1      -0.648  -2.300  -0.007  0.00  0.00    +0.124 C 
ATOM     11  C   UNL     1       0.856  -2.142  -0.014  0.00  0.00    -0.005 A 
ATOM     12  C   UNL     1       1.157  -0.788  -0.014  0.00  0.00    +0.035 A 
ATOM     13  C   UNL     1       2.495  -0.392  -0.025  0.00  0.00    +0.023 A 
ATOM     14  C   UNL     1       3.500  -1.336  -0.040  0.00  0.00    +0.002 A 
ATOM     15  C   UNL     1       3.189  -2.683  -0.044  0.00  0.00    +0.000 A 
ATOM     16  C   UNL     1       1.866  -3.084  -0.024  0.00  0.00    +0.007 A 
ENDBRANCH   1  10
BRANCH   4  17
ATOM     17  C   UNL     1      -1.679  -6.484   2.265  0.00  0.00    +0.110 C 
BRANCH  17  18
ATOM     18  C   UNL     1      -2.153  -6.978   3.634  0.00  0.00    +0.056 C 
BRANCH  18  19
ATOM     19  C   UNL     1      -2.256  -8.481   3.616  0.00  0.00    -0.021 A 
ATOM     20  C   UNL     1      -1.171  -9.433   3.865  0.00  0.00    +0.003 A 
ATOM     21  C   UNL     1       0.185  -9.300   4.170  0.00  0.00    +0.010 A 
ATOM     22  C   UNL     1       0.953 -10.416   4.349  0.00  0.00    +0.001 A 
ATOM     23  C   UNL     1       0.396 -11.681   4.228  0.00  0.00    +0.002 A 
ATOM     24  C   UNL     1      -0.940 -11.836   3.927  0.00  0.00    +0.026 A 
ATOM     25  C   UNL     1      -1.740 -10.713   3.742  0.00  0.00    +0.047 A 
ATOM     26  N   UNL     1      -3.072 -10.538   3.441  0.00  0.00    -0.360 N 
ATOM     27  C   UNL     1      -3.363  -9.203   3.376  0.00  0.00    +0.087 A 
ATOM     28  H   UNL     1      -3.711 -11.255   3.300  0.00  0.00    +0.165 HD
ENDBRANCH  18  19
ENDBRANCH  17  18
ENDBRANCH   4  17
TORSDOF 4
