REMARK  Name = ZINC31892896
REMARK  6 active torsions:
REMARK  status: ('A' for Active; 'I' for Inactive)
REMARK    1  A    between atoms: C_1  and  O_2
REMARK    2  A    between atoms: O_2  and  C_3
REMARK    3  A    between atoms: C_5  and  C_12
REMARK    4  A    between atoms: C_8  and  O_9
REMARK    5  A    between atoms: O_9  and  C_10
REMARK    6  A    between atoms: N_17  and  N_18
REMARK                            x       y       z     vdW  Elec       q    Type
REMARK                         _______ _______ _______ _____ _____    ______ ____
ROOT
ATOM      1  C   UNL     1      -6.350  -0.497  -0.073  0.00  0.00    +0.162 A 
ATOM      2  C   UNL     1      -5.069   0.025  -0.083  0.00  0.00    +0.060 A 
ATOM      3  C   UNL     1      -4.879   1.401   0.034  0.00  0.00    +0.019 A 
ATOM      4  C   UNL     1      -5.981   2.247   0.149  0.00  0.00    +0.031 A 
ATOM      5  C   UNL     1      -7.258   1.721   0.153  0.00  0.00    +0.065 A 
ATOM      6  C   UNL     1      -7.447   0.352   0.042  0.00  0.00    +0.163 A 
ATOM      7 BR   UNL     1      -5.728   4.115   0.302  0.00  0.00    -0.049 Br
ENDROOT
BRANCH   3   8
ATOM      8  C   UNL     1      -3.507   1.964   0.030  0.00  0.00    +0.081 A 
ATOM      9  C   UNL     1      -2.537   1.426   0.827  0.00  0.00    +0.077 A 
ATOM     10  S   UNL     1      -1.147   2.472   0.415  0.00  0.00    -0.059 S 
ATOM     11  C   UNL     1      -1.991   3.513  -0.768  0.00  0.00    +0.172 A 
ATOM     12  N   UNL     1      -3.209   3.003  -0.747  0.00  0.00    -0.224 NA
ATOM     13  N   UNL     1      -1.499   4.577  -1.506  0.00  0.00    -0.262 N 
ATOM     14  H   UNL     1      -2.160   5.116  -2.201  0.00  0.00    +0.168 HD
BRANCH  13  15
ATOM     15  N   UNL     1      -0.194   4.957  -1.371  0.00  0.00    -0.255 NA
ATOM     16  H   UNL     1       0.009   5.813  -2.032  0.00  0.00    +0.140 HD
ATOM     17  H   UNL     1      -0.003   5.247  -0.327  0.00  0.00    +0.140 HD
ENDBRANCH  13  15
ENDBRANCH   3   8
BRANCH   1  19
ATOM     18  C   UNL     1      -5.367  -2.652  -0.296  0.00  0.00    +0.277 C 
ATOM     19  O   UNL     1      -6.538  -1.840  -0.182  0.00  0.00    -0.491 OA
ENDBRANCH   1  19
BRANCH   6  20
ATOM     20  O   UNL     1      -8.706  -0.162   0.045  0.00  0.00    -0.491 OA
ATOM     21  C   UNL     1      -9.786   0.766   0.167  0.00  0.00    +0.277 C 
ENDBRANCH   6  20
TORSDOF 4
