REMARK  Name = ZINC67399454
REMARK  7 active torsions:
REMARK  status: ('A' for Active; 'I' for Inactive)
REMARK    1  A    between atoms: C_1  and  C_2
REMARK    2  A    between atoms: C_2  and  C_3
REMARK    3  A    between atoms: C_2  and  C_4
REMARK    4  A    between atoms: C_2  and  N_11
REMARK    5  A    between atoms: N_11  and  C_12
REMARK    6  A    between atoms: C_12  and  C_13
REMARK    7  A    between atoms: C_16  and  C_18
REMARK                            x       y       z     vdW  Elec       q    Type
REMARK                         _______ _______ _______ _____ _____    ______ ____
ROOT
ATOM      1  N   UNL     1       0.690  -0.478  -1.207  0.00  0.00    +0.391 N 
ATOM      2  H   UNL     1       0.703  -1.487  -1.212  0.00  0.00    -0.084 HD
ATOM      3  H   UNL     1       0.202  -0.144  -2.024  0.00  0.00    -0.084 HD
ENDROOT
BRANCH   1   5
ATOM      4  C   UNL     1      -0.019   1.526   0.010  0.00  0.00    -0.006 C 
ATOM      5  C   UNL     1       0.002  -0.004   0.002  0.00  0.00    -0.047 C 
ATOM      6  C   UNL     1       0.742  -0.511   1.242  0.00  0.00    -0.006 C 
BRANCH   5   7
ATOM      7  C   UNL     1      -1.412  -0.526   0.013  0.00  0.00    -0.059 A 
ATOM      8  C   UNL     1      -1.861  -1.326  -1.022  0.00  0.00    +0.005 A 
ATOM      9  C   UNL     1      -3.157  -1.805  -1.013  0.00  0.00    +0.038 A 
ATOM     10  C   UNL     1      -4.006  -1.484   0.033  0.00  0.00    +0.123 A 
ATOM     11  C   UNL     1      -3.555  -0.682   1.068  0.00  0.00    +0.038 A 
ATOM     12  C   UNL     1      -2.257  -0.209   1.060  0.00  0.00    +0.005 A 
ATOM     13  F   UNL     1      -5.273  -1.951   0.042  0.00  0.00    -0.205 F 
ENDBRANCH   5   7
ENDBRANCH   1   5
BRANCH   1  14
ATOM     14  C   UNL     1       2.068   0.031  -1.217  0.00  0.00    +0.016 C 
BRANCH  14  15
ATOM     15  C   UNL     1       2.773  -0.455  -2.457  0.00  0.00    +0.179 A 
ATOM     16  N   UNL     1       2.808   0.169  -3.600  0.00  0.00    -0.223 NA
ATOM     17  C   UNL     1       3.525  -0.558  -4.471  0.00  0.00    +0.161 A 
ATOM     18  C   UNL     1       3.944  -1.677  -3.822  0.00  0.00    +0.162 A 
ATOM     19  O   UNL     1       3.470  -1.597  -2.559  0.00  0.00    -0.441 OA
BRANCH  18  20
ATOM     20  C   UNL     1       4.761  -2.765  -4.385  0.00  0.00    +0.056 A 
ATOM     21  C   UNL     1       5.277  -2.893  -5.650  0.00  0.00    +0.019 A 
ATOM     22  C   UNL     1       6.021  -4.012  -5.950  0.00  0.00    +0.008 A 
ATOM     23  C   UNL     1       6.222  -4.951  -4.990  0.00  0.00    +0.046 A 
ATOM     24  S   UNL     1       5.346  -4.256  -3.598  0.00  0.00    -0.094 S 
ENDBRANCH  18  20
ENDBRANCH  14  15
ENDBRANCH   1  14
TORSDOF 5
