REMARK  Name = ZINC38547307
REMARK  5 active torsions:
REMARK  status: ('A' for Active; 'I' for Inactive)
REMARK    1  A    between atoms: N_7  and  C_8
REMARK    2  A    between atoms: C_8  and  C_10
REMARK    3  A    between atoms: C_8  and  C_17
REMARK    4  A    between atoms: C_21  and  N_22
REMARK    5  A    between atoms: C_23  and  C_25
REMARK                            x       y       z     vdW  Elec       q    Type
REMARK                         _______ _______ _______ _____ _____    ______ ____
ROOT
ATOM      1  C   UNL     1       0.084  -4.148  -0.718  0.00  0.00    +0.009 A 
ATOM      2  C   UNL     1      -0.837  -4.464  -1.717  0.00  0.00    -0.030 A 
ATOM      3  C   UNL     1      -0.690  -5.674  -2.321  0.00  0.00    -0.005 A 
ATOM      4  S   UNL     1       0.721  -6.384  -1.515  0.00  0.00    -0.078 S 
ATOM      5  C   UNL     1       1.067  -5.032  -0.399  0.00  0.00    +0.078 A 
ATOM      6  C   UNL     1      -1.531  -6.257  -3.409  0.00  0.00    +0.043 C 
ATOM      7  C   UNL     1      -2.828  -5.439  -3.508  0.00  0.00    +0.005 C 
ATOM      8  C   UNL     1      -2.470  -3.950  -3.518  0.00  0.00    +0.005 C 
ATOM      9  C   UNL     1      -1.964  -3.525  -2.139  0.00  0.00    +0.036 C 
ENDROOT
BRANCH   5  10
ATOM     10  N   UNL     1       2.081  -4.915   0.553  0.00  0.00    -0.273 N 
ATOM     11  C   UNL     1       2.901  -5.956   0.796  0.00  0.00    +0.284 C 
ATOM     12  O   UNL     1       2.757  -7.000   0.186  0.00  0.00    -0.266 OA
ATOM     13  H   UNL     1       2.196  -4.083   1.040  0.00  0.00    +0.156 HD
BRANCH  11  14
ATOM     14  C   UNL     1       3.966  -5.833   1.796  0.00  0.00    +0.189 A 
ATOM     15  C   UNL     1       4.865  -6.804   2.135  0.00  0.00    +0.054 A 
ATOM     16  C   UNL     1       5.696  -6.257   3.126  0.00  0.00    +0.042 A 
ATOM     17  C   UNL     1       5.273  -4.992   3.346  0.00  0.00    +0.196 A 
ATOM     18  O   UNL     1       4.234  -4.739   2.539  0.00  0.00    -0.458 OA
ENDBRANCH  11  14
ENDBRANCH   5  10
BRANCH   1  19
ATOM     19  C   UNL     1      -0.006  -2.827   0.002  0.00  0.00    +0.135 C 
BRANCH  19  26
ATOM     20  C   UNL     1       0.452   1.267   0.796  0.00  0.00    +0.005 A 
ATOM     21  C   UNL     1       1.733   1.801   0.850  0.00  0.00    +0.018 A 
ATOM     22  C   UNL     1       2.819   0.976   0.641  0.00  0.00    +0.084 A 
ATOM     23  N   UNL     1       2.654  -0.310   0.393  0.00  0.00    -0.350 N 
ATOM     24  C   UNL     1       1.450  -0.857   0.334  0.00  0.00    +0.097 A 
ATOM     25  C   UNL     1       0.311  -0.084   0.534  0.00  0.00    +0.041 A 
ATOM     26  N   UNL     1       1.323  -2.216   0.069  0.00  0.00    -0.320 N 
ATOM     27  H   UNL     1       2.114  -2.759  -0.071  0.00  0.00    +0.148 HD
ATOM     28  H   UNL     1       3.435  -0.868   0.250  0.00  0.00    +0.166 HD
ENDBRANCH  19  26
BRANCH  19  29
ATOM     29  C   UNL     1      -0.527  -3.051   1.399  0.00  0.00    -0.023 A 
ATOM     30  C   UNL     1       0.356  -3.287   2.436  0.00  0.00    +0.007 A 
ATOM     31  C   UNL     1      -0.121  -3.492   3.717  0.00  0.00    +0.020 A 
ATOM     32  C   UNL     1      -1.483  -3.462   3.961  0.00  0.00    +0.041 A 
ATOM     33  C   UNL     1      -2.366  -3.227   2.922  0.00  0.00    +0.020 A 
ATOM     34  C   UNL     1      -1.888  -3.016   1.643  0.00  0.00    +0.007 A 
ATOM     35 CL   UNL     1      -2.083  -3.721   5.569  0.00  0.00    -0.084 Cl
ENDBRANCH  19  29
ENDBRANCH   1  19
TORSDOF 5
