REMARK  Name = ZINC40445716
REMARK  7 active torsions:
REMARK  status: ('A' for Active; 'I' for Inactive)
REMARK    1  A    between atoms: C_1  and  C_2
REMARK    2  A    between atoms: C_3  and  C_8
REMARK    3  A    between atoms: C_5  and  C_7
REMARK    4  A    between atoms: C_8  and  C_10
REMARK    5  A    between atoms: C_8  and  N_11
REMARK    6  A    between atoms: N_11  and  C_12
REMARK    7  A    between atoms: C_12  and  C_13
REMARK                            x       y       z     vdW  Elec       q    Type
REMARK                         _______ _______ _______ _____ _____    ______ ____
ROOT
ATOM      1  N   UNL     1      -0.981  -0.993  -3.361  0.00  0.00    +0.387 N 
ATOM      2  H   UNL     1      -0.677  -1.954  -3.414  0.00  0.00    -0.085 HD
ATOM      3  H   UNL     1      -1.883  -0.950  -2.912  0.00  0.00    -0.085 HD
ENDROOT
BRANCH   1   4
ATOM      4  C   UNL     1      -0.008  -0.215  -2.583  0.00  0.00    -0.035 C 
ATOM      5  C   UNL     1       1.384  -0.381  -3.194  0.00  0.00    -0.008 C 
BRANCH   4   8
ATOM      6  C   UNL     1      -0.018   1.503   0.010  0.00  0.00    +0.066 C 
ATOM      7  C   UNL     1       0.002  -0.004   0.002  0.00  0.00    +0.047 A 
ATOM      8  C   UNL     1       0.006  -0.708  -1.159  0.00  0.00    -0.002 A 
ATOM      9  S   UNL     1       0.032  -2.379  -0.531  0.00  0.00    -0.079 S 
ATOM     10  C   UNL     1       0.036  -2.009   1.111  0.00  0.00    +0.076 A 
ATOM     11  N   UNL     1       0.023  -0.699   1.122  0.00  0.00    -0.249 NA
ATOM     12  C   UNL     1       0.055  -2.955   2.284  0.00  0.00    +0.073 C 
ENDBRANCH   4   8
ENDBRANCH   1   4
BRANCH   1  13
ATOM     13  C   UNL     1      -1.082  -0.436  -4.717  0.00  0.00    -0.042 C 
BRANCH  13  14
ATOM     14  C   UNL     1      -2.080  -1.235  -5.515  0.00  0.00    -0.019 A 
ATOM     15  C   UNL     1      -1.641  -2.201  -6.401  0.00  0.00    +0.005 A 
ATOM     16  C   UNL     1      -2.553  -2.936  -7.135  0.00  0.00    +0.004 A 
ATOM     17  C   UNL     1      -3.909  -2.708  -6.986  0.00  0.00    +0.049 A 
ATOM     18  C   UNL     1      -4.356  -1.742  -6.100  0.00  0.00    +0.166 A 
ATOM     19  C   UNL     1      -3.437  -1.005  -5.356  0.00  0.00    +0.168 A 
ATOM     20  O   UNL     1      -4.120  -0.132  -4.561  0.00  0.00    -0.452 OA
ATOM     21  C   UNL     1      -5.446  -0.060  -5.117  0.00  0.00    +0.466 C 
ATOM     22  O   UNL     1      -5.614  -1.328  -5.771  0.00  0.00    -0.453 OA
ENDBRANCH  13  14
ENDBRANCH   1  13
TORSDOF 4
