REMARK  Name = ZINC25571846
REMARK  14 active torsions:
REMARK  status: ('A' for Active; 'I' for Inactive)
REMARK    1  A    between atoms: C_1  and  C_2
REMARK    2  A    between atoms: C_2  and  O_3
REMARK    3  A    between atoms: O_3  and  C_4
REMARK    4  A    between atoms: C_7  and  O_10
REMARK    5  A    between atoms: O_10  and  C_11
REMARK    6  A    between atoms: C_11  and  C_12
REMARK    7  A    between atoms: C_12  and  C_14
REMARK    8  A    between atoms: C_12  and  O_26
REMARK    9  A    between atoms: C_14  and  N_15
REMARK   10  A    between atoms: N_15  and  C_16
REMARK   11  A    between atoms: C_18  and  C_24
REMARK   12  A    between atoms: C_18  and  C_25
REMARK   13  A    between atoms: C_20  and  C_22
REMARK   14  A    between atoms: C_20  and  C_23
REMARK                            x       y       z     vdW  Elec       q    Type
REMARK                         _______ _______ _______ _____ _____    ______ ____
ROOT
ATOM      1  C   UNL     1       0.552   4.313  -3.990  0.00  0.00    +0.115 C 
ENDROOT
BRANCH   1   2
ATOM      2  N   UNL     1       1.204   3.099  -3.482  0.00  0.00    -0.311 NA
ATOM      3  H   UNL     1       0.979   2.255  -4.150  0.00  0.00    +0.122 HD
BRANCH   2   4
ATOM      4  C   UNL     1       0.727   2.770  -2.128  0.00  0.00    +0.051 C 
ATOM      5  C   UNL     1       1.795   1.952  -1.403  0.00  0.00    +0.006 C 
ATOM      6  C   UNL     1       1.318   1.579  -0.002  0.00  0.00    -0.072 C 
ATOM      7  N   UNL     1      -0.012   1.005   0.008  0.00  0.00    +0.386 N 
ATOM      8  C   UNL     1      -1.048   1.551  -0.843  0.00  0.00    -0.072 C 
ATOM      9  C   UNL     1      -0.543   1.927  -2.233  0.00  0.00    +0.006 C 
ATOM     10  C   UNL     1      -2.143   0.475  -1.020  0.00  0.00    -0.010 C 
ATOM     11  C   UNL     1      -1.713   2.771  -0.192  0.00  0.00    -0.010 C 
ATOM     12  C   UNL     1       1.397   2.808   0.911  0.00  0.00    -0.010 C 
ATOM     13  C   UNL     1       2.301   0.528   0.560  0.00  0.00    -0.010 C 
ATOM     14  H   UNL     1       0.043  -0.052  -0.291  0.00  0.00    -0.084 HD
ATOM     15  H   UNL     1      -0.435   1.079   1.020  0.00  0.00    -0.084 HD
ENDBRANCH   2   4
ENDBRANCH   1   2
BRANCH   1  16
ATOM     16  C   UNL     1       1.072   4.622  -5.395  0.00  0.00    +0.166 C 
BRANCH  16  17
ATOM     17  O   UNL     1       0.677   3.579  -6.289  0.00  0.00    -0.387 OA
ATOM     18  H   UNL     1       1.004   2.545  -6.106  0.00  0.00    +0.210 HD
ENDBRANCH  16  17
BRANCH  16  19
ATOM     19  C   UNL     1       0.487   5.952  -5.874  0.00  0.00    +0.261 C 
BRANCH  19  20
ATOM     20  O   UNL     1       1.062   6.298  -7.136  0.00  0.00    -0.489 OA
BRANCH  20  24
ATOM     21  C   UNL     1      -0.198   9.829  -8.865  0.00  0.00    +0.121 A 
ATOM     22  C   UNL     1       0.743   9.039  -9.508  0.00  0.00    +0.049 A 
ATOM     23  C   UNL     1       1.164   7.857  -8.930  0.00  0.00    +0.049 A 
ATOM     24  C   UNL     1       0.647   7.461  -7.706  0.00  0.00    +0.121 A 
ATOM     25  C   UNL     1      -0.298   8.249  -7.064  0.00  0.00    +0.049 A 
ATOM     26  C   UNL     1      -0.716   9.432  -7.641  0.00  0.00    +0.049 A 
BRANCH  21  27
ATOM     27  O   UNL     1      -0.613  10.992  -9.434  0.00  0.00    -0.492 OA
BRANCH  27  29
ATOM     28  C   UNL     1      -1.926  13.020  -9.507  0.00  0.00    +0.048 C 
ATOM     29  C   UNL     1      -1.585  11.755  -8.716  0.00  0.00    +0.225 C 
ENDBRANCH  27  29
ENDBRANCH  21  27
ENDBRANCH  20  24
ENDBRANCH  19  20
ENDBRANCH  16  19
ENDBRANCH   1  16
TORSDOF 9
