REMARK  Name = ZINC64202776
REMARK  8 active torsions:
REMARK  status: ('A' for Active; 'I' for Inactive)
REMARK    1  A    between atoms: C_1  and  C_2
REMARK    2  A    between atoms: C_2  and  C_3
REMARK    3  A    between atoms: C_3  and  N_4
REMARK    4  A    between atoms: C_5  and  C_7
REMARK    5  A    between atoms: N_15  and  C_16
REMARK    6  A    between atoms: C_16  and  C_17
REMARK    7  A    between atoms: C_17  and  C_19
REMARK    8  A    between atoms: C_17  and  C_25
REMARK                            x       y       z     vdW  Elec       q    Type
REMARK                         _______ _______ _______ _____ _____    ______ ____
ROOT
ATOM      1  C   UNL     1      -2.059  -5.075  -0.780  0.00  0.00    +0.078 C 
ATOM      2  C   UNL     1      -3.368  -5.843  -0.977  0.00  0.00    +0.032 C 
ATOM      3  C   UNL     1      -4.170  -5.822   0.328  0.00  0.00    +0.110 C 
ATOM      4  N   UNL     1      -3.324  -6.340   1.412  0.00  0.00    -0.286 N 
ATOM      5  C   UNL     1      -2.004  -5.732   1.630  0.00  0.00    +0.110 C 
ATOM      6  C   UNL     1      -1.226  -5.755   0.310  0.00  0.00    +0.032 C 
ATOM      7  C   UNL     1      -3.750  -7.353   2.191  0.00  0.00    +0.302 C 
ATOM      8  O   UNL     1      -3.007  -7.832   3.026  0.00  0.00    -0.253 OA
ATOM      9  N   UNL     1      -5.000  -7.836   2.045  0.00  0.00    -0.299 N 
ATOM     10  H   UNL     1      -5.568  -7.504   1.332  0.00  0.00    +0.150 HD
ENDROOT
BRANCH   1  12
ATOM     11  N   UNL     1      -1.822  -4.515  -3.177  0.00  0.00    -0.315 N 
ATOM     12  C   UNL     1      -1.283  -5.066  -2.071  0.00  0.00    +0.216 C 
ATOM     13  O   UNL     1      -0.173  -5.554  -2.116  0.00  0.00    -0.276 OA
ATOM     14  H   UNL     1      -2.709  -4.124  -3.142  0.00  0.00    +0.149 HD
BRANCH  11  15
ATOM     15  C   UNL     1      -1.067  -4.505  -4.433  0.00  0.00    +0.104 C 
BRANCH  15  17
ATOM     16  C   UNL     1      -1.111  -3.817  -6.834  0.00  0.00    +0.005 C 
ATOM     17  C   UNL     1      -1.899  -3.826  -5.523  0.00  0.00    +0.015 C 
ENDBRANCH  15  17
ENDBRANCH  11  15
ENDBRANCH   1  12
BRANCH   9  18
ATOM     18  C   UNL     1      -5.501  -8.862   2.963  0.00  0.00    +0.114 C 
BRANCH  18  19
ATOM     19  C   UNL     1      -6.888  -9.321   2.507  0.00  0.00    +0.048 C 
BRANCH  19  20
ATOM     20  C   UNL     1      -7.848  -8.162   2.576  0.00  0.00    -0.036 C 
ATOM     21  C   UNL     1      -8.555  -7.629   1.553  0.00  0.00    -0.001 A 
ATOM     22  C   UNL     1      -8.636  -7.955   0.125  0.00  0.00    +0.010 A 
ATOM     23  C   UNL     1      -9.451  -7.225  -0.670  0.00  0.00    +0.001 A 
ATOM     24  C   UNL     1     -10.218  -6.166  -0.164  0.00  0.00    +0.002 A 
ATOM     25  C   UNL     1     -10.197  -5.806   1.137  0.00  0.00    +0.026 A 
ATOM     26  C   UNL     1      -9.375  -6.507   2.062  0.00  0.00    +0.043 A 
ATOM     27  N   UNL     1      -9.183  -6.352   3.350  0.00  0.00    -0.380 N 
ATOM     28  C   UNL     1      -8.223  -7.364   3.805  0.00  0.00    +0.145 C 
ATOM     29  H   UNL     1      -9.608  -5.683   3.909  0.00  0.00    +0.160 HD
ENDBRANCH  19  20
BRANCH  19  30
ATOM     30  C   UNL     1      -7.378 -10.445   3.421  0.00  0.00    +0.063 C 
ATOM     31  C   UNL     1      -8.648 -11.130   2.849  0.00  0.00    +0.042 C 
ATOM     32  C   UNL     1      -8.604 -12.606   3.080  0.00  0.00    -0.019 C 
ATOM     33  C   UNL     1      -7.456 -13.192   3.361  0.00  0.00    +0.036 C 
ATOM     34  S   UNL     1      -6.236 -11.890   3.388  0.00  0.00    -0.129 S 
ENDBRANCH  19  30
ENDBRANCH  18  19
ENDBRANCH   9  18
TORSDOF 7
