REMARK  Name = ZINC60511487
REMARK  7 active torsions:
REMARK  status: ('A' for Active; 'I' for Inactive)
REMARK    1  A    between atoms: C_1  and  C_2
REMARK    2  A    between atoms: C_6  and  C_23
REMARK    3  A    between atoms: C_7  and  N_8
REMARK    4  A    between atoms: C_9  and  C_13
REMARK    5  A    between atoms: C_13  and  S_14
REMARK    6  A    between atoms: S_14  and  C_15
REMARK    7  A    between atoms: N_16  and  C_17
REMARK                            x       y       z     vdW  Elec       q    Type
REMARK                         _______ _______ _______ _____ _____    ______ ____
ROOT
ATOM      1  N   UNL     1      -0.592  -0.209   2.606  0.00  0.00    -0.196 N 
ATOM      2  C   UNL     1      -0.017  -0.740   3.707  0.00  0.00    +0.167 A 
ATOM      3  N   UNL     1       0.288   0.252   4.502  0.00  0.00    -0.112 NA
ATOM      4  N   UNL     1      -0.054   1.373   3.979  0.00  0.00    -0.023 NA
ATOM      5  N   UNL     1      -0.591   1.180   2.822  0.00  0.00    -0.039 NA
ENDROOT
BRANCH   1  12
ATOM      6  C   UNL     1       1.283  -1.498   0.895  0.00  0.00    +0.046 C 
ATOM      7  C   UNL     1      -0.199  -1.538   0.625  0.00  0.00    -0.025 A 
ATOM      8  C   UNL     1      -0.683  -2.219  -0.475  0.00  0.00    +0.005 A 
ATOM      9  C   UNL     1      -2.043  -2.257  -0.724  0.00  0.00    +0.001 A 
ATOM     10  C   UNL     1      -2.922  -1.613   0.128  0.00  0.00    +0.005 A 
ATOM     11  C   UNL     1      -2.444  -0.931   1.229  0.00  0.00    -0.025 A 
ATOM     12  C   UNL     1      -1.080  -0.896   1.485  0.00  0.00    +0.075 A 
ATOM     13  C   UNL     1      -3.403  -0.230   2.156  0.00  0.00    +0.046 C 
ENDBRANCH   1  12
BRANCH   2  14
ATOM     14  C   UNL     1       0.226  -2.204   3.970  0.00  0.00    +0.155 C 
BRANCH  14  15
ATOM     15  S   UNL     1       2.006  -2.543   3.898  0.00  0.00    -0.085 S 
BRANCH  15  16
ATOM     16  C   UNL     1       2.124  -4.271   4.222  0.00  0.00    +0.126 C 
ATOM     17  N   UNL     1       3.292  -4.853   4.243  0.00  0.00    -0.365 N 
ATOM     18  N   UNL     1       0.985  -5.008   4.452  0.00  0.00    -0.339 N 
ATOM     19  H   UNL     1       0.117  -4.575   4.436  0.00  0.00    +0.144 HD
ATOM     20  H   UNL     1       1.050  -5.959   4.630  0.00  0.00    +0.144 HD
ATOM     21  H   UNL     1       4.095  -4.334   4.081  0.00  0.00    +0.162 HD
BRANCH  17  22
ATOM     22  C   UNL     1       3.390  -6.289   4.513  0.00  0.00    +0.081 C 
ATOM     23  C   UNL     1       3.481  -6.537   6.033  0.00  0.00    +0.024 C 
ATOM     24  C   UNL     1       4.466  -7.725   6.166  0.00  0.00    +0.002 C 
ATOM     25  C   UNL     1       5.513  -7.425   5.065  0.00  0.00    +0.002 C 
ATOM     26  C   UNL     1       4.682  -6.854   3.897  0.00  0.00    +0.024 C 
ENDBRANCH  17  22
ENDBRANCH  15  16
ENDBRANCH  14  15
ENDBRANCH   2  14
TORSDOF 5
