REMARK  Name = ZINC39927512
REMARK  7 active torsions:
REMARK  status: ('A' for Active; 'I' for Inactive)
REMARK    1  A    between atoms: C_1  and  O_2
REMARK    2  A    between atoms: O_2  and  C_3
REMARK    3  A    between atoms: C_3  and  C_4
REMARK    4  A    between atoms: C_4  and  C_5
REMARK    5  A    between atoms: C_5  and  N_6
REMARK    6  A    between atoms: C_17  and  C_22
REMARK    7  A    between atoms: C_19  and  N_21
REMARK                            x       y       z     vdW  Elec       q    Type
REMARK                         _______ _______ _______ _____ _____    ______ ____
ROOT
ATOM      1  N   UNL     1       1.272  -4.165  -2.169  0.00  0.00    -0.327 N 
ATOM      2  C   UNL     1       2.240  -4.943  -1.554  0.00  0.00    +0.143 A 
ATOM      3  C   UNL     1       1.924  -6.310  -1.628  0.00  0.00    +0.092 A 
ATOM      4  N   UNL     1       2.714  -7.217  -1.105  0.00  0.00    -0.246 NA
ATOM      5  C   UNL     1       3.842  -6.846  -0.488  0.00  0.00    +0.090 A 
ATOM      6  C   UNL     1       4.706  -7.797   0.080  0.00  0.00    +0.030 A 
ATOM      7  C   UNL     1       5.846  -7.388   0.700  0.00  0.00    +0.002 A 
ATOM      8  C   UNL     1       6.171  -6.036   0.781  0.00  0.00    +0.002 A 
ATOM      9  C   UNL     1       5.358  -5.087   0.243  0.00  0.00    +0.030 A 
ATOM     10  C   UNL     1       4.172  -5.471  -0.406  0.00  0.00    +0.091 A 
ATOM     11  N   UNL     1       3.355  -4.560  -0.945  0.00  0.00    -0.229 NA
ATOM     12  C   UNL     1       0.612  -6.452  -2.368  0.00  0.00    +0.109 C 
ATOM     13  C   UNL     1       0.204  -5.010  -2.707  0.00  0.00    +0.031 C 
ENDROOT
BRANCH  12  14
ATOM     14  C   UNL     1      -0.424  -7.096  -1.483  0.00  0.00    +0.117 A 
ATOM     15  N   UNL     1      -1.365  -7.894  -1.896  0.00  0.00    -0.232 NA
ATOM     16  C   UNL     1      -2.122  -8.292  -0.841  0.00  0.00    +0.089 A 
ATOM     17  C   UNL     1      -3.234  -9.127  -0.714  0.00  0.00    +0.030 A 
ATOM     18  C   UNL     1      -3.789  -9.339   0.517  0.00  0.00    +0.002 A 
ATOM     19  C   UNL     1      -3.259  -8.732   1.646  0.00  0.00    +0.002 A 
ATOM     20  C   UNL     1      -2.162  -7.903   1.544  0.00  0.00    +0.028 A 
ATOM     21  C   UNL     1      -1.585  -7.676   0.303  0.00  0.00    +0.066 A 
ATOM     22  N   UNL     1      -0.509  -6.931  -0.136  0.00  0.00    -0.341 N 
ATOM     23  H   UNL     1       0.077  -6.388   0.415  0.00  0.00    +0.167 HD
ENDBRANCH  12  14
BRANCH  13  24
ATOM     24  N   UNL     1       0.107  -4.840  -4.163  0.00  0.00    +0.391 N 
ATOM     25  H   UNL     1       0.990  -5.080  -4.589  0.00  0.00    -0.087 HD
ATOM     26  H   UNL     1      -0.616  -5.445  -4.525  0.00  0.00    -0.087 HD
ATOM     27  H   UNL     1      -0.120  -3.881  -4.376  0.00  0.00    -0.087 HD
ENDBRANCH  13  24
BRANCH   1  28
ATOM     28  C   UNL     1       1.309  -2.703  -2.261  0.00  0.00    +0.107 C 
BRANCH  28  29
ATOM     29  C   UNL     1       0.613  -2.097  -1.041  0.00  0.00    +0.047 C 
BRANCH  29  30
ATOM     30  C   UNL     1       0.652  -0.570  -1.138  0.00  0.00    +0.161 C 
BRANCH  30  32
ATOM     31  C   UNL     1      -0.017   1.425   0.010  0.00  0.00    +0.193 C 
ATOM     32  O   UNL     1       0.002  -0.004   0.002  0.00  0.00    -0.383 OA
ENDBRANCH  30  32
ENDBRANCH  29  30
ENDBRANCH  28  29
ENDBRANCH   1  28
TORSDOF 6
