REMARK  Name = ZINC39662919
REMARK  6 active torsions:
REMARK  status: ('A' for Active; 'I' for Inactive)
REMARK    1  A    between atoms: C_1  and  C_2
REMARK    2  A    between atoms: C_2  and  C_3
REMARK    3  A    between atoms: C_3  and  C_4
REMARK    4  A    between atoms: C_4  and  C_5
REMARK    5  A    between atoms: C_9  and  C_18
REMARK    6  A    between atoms: N_20  and  C_21
REMARK                            x       y       z     vdW  Elec       q    Type
REMARK                         _______ _______ _______ _____ _____    ______ ____
ROOT
ATOM      1  C   UNL     1       1.245  -2.576   2.258  0.00  0.00    +0.216 C 
ATOM      2  O   UNL     1       1.637  -1.715   3.016  0.00  0.00    -0.276 OA
ATOM      3  N   UNL     1       1.477  -3.875   2.535  0.00  0.00    -0.300 N 
ATOM      4  C   UNL     1       1.086  -5.059   1.735  0.00  0.00    +0.121 C 
ATOM      5  C   UNL     1       2.293  -6.018   1.840  0.00  0.00    +0.100 C 
ATOM      6  C   UNL     1       3.007  -5.609   3.139  0.00  0.00    -0.004 C 
ATOM      7  C   UNL     1       2.187  -4.441   3.707  0.00  0.00    +0.115 C 
ATOM      8  C   UNL     1       3.021  -6.774   4.123  0.00  0.00    -0.010 C 
ATOM      9  C   UNL     1       3.787  -6.362   5.384  0.00  0.00    -0.082 C 
ATOM     10  N   UNL     1       5.158  -5.983   5.024  0.00  0.00    +0.379 N 
ATOM     11  C   UNL     1       5.139  -4.803   4.150  0.00  0.00    -0.082 C 
ATOM     12  C   UNL     1       4.430  -5.150   2.837  0.00  0.00    -0.010 C 
ATOM     13  H   UNL     1       5.678  -5.771   5.862  0.00  0.00    -0.086 HD
ATOM     14  H   UNL     1       5.602  -6.750   4.541  0.00  0.00    -0.086 HD
ENDROOT
BRANCH   5  15
ATOM     15  C   UNL     1       3.209  -5.840   0.656  0.00  0.00    +0.218 C 
ATOM     16  O   UNL     1       3.295  -4.759   0.113  0.00  0.00    -0.275 OA
ATOM     17  N   UNL     1       3.933  -6.882   0.202  0.00  0.00    -0.314 N 
ATOM     18  H   UNL     1       3.865  -7.746   0.637  0.00  0.00    +0.149 HD
BRANCH  17  19
ATOM     19  C   UNL     1       4.824  -6.709  -0.948  0.00  0.00    +0.059 C 
ATOM     20  C   UNL     1       4.030  -6.894  -2.244  0.00  0.00    -0.056 C 
ATOM     21  N   UNL     1       4.585  -8.007  -3.017  0.00  0.00    +0.381 N 
ATOM     22  C   UNL     1       4.489  -9.258  -2.261  0.00  0.00    -0.078 C 
ATOM     23  C   UNL     1       5.297  -9.152  -0.966  0.00  0.00    -0.014 C 
ATOM     24  C   UNL     1       5.942  -7.758  -0.895  0.00  0.00    +0.004 C 
ATOM     25  C   UNL     1       6.835  -7.576  -2.129  0.00  0.00    -0.014 C 
ATOM     26  C   UNL     1       5.975  -7.735  -3.389  0.00  0.00    -0.078 C 
ATOM     27  H   UNL     1       4.043  -8.111  -3.861  0.00  0.00    -0.082 HD
ENDBRANCH  17  19
ENDBRANCH   5  15
BRANCH   1  28
ATOM     28  C   UNL     1       0.499  -2.195   1.006  0.00  0.00    +0.096 C 
BRANCH  28  29
ATOM     29  C   UNL     1       0.372  -0.672   0.931  0.00  0.00    +0.009 C 
BRANCH  29  31
ATOM     30  C   UNL     1      -0.513   1.238  -0.415  0.00  0.00    +0.004 C 
ATOM     31  C   UNL     1      -0.386  -0.285  -0.341  0.00  0.00    -0.003 C 
ENDBRANCH  29  31
ENDBRANCH  28  29
ENDBRANCH   1  28
TORSDOF 5
