REMARK  Name = ZINC63072356
REMARK  5 active torsions:
REMARK  status: ('A' for Active; 'I' for Inactive)
REMARK    1  A    between atoms: C_1  and  C_2
REMARK    2  A    between atoms: C_2  and  C_20
REMARK    3  A    between atoms: N_6  and  C_7
REMARK    4  A    between atoms: C_16  and  C_17
REMARK    5  A    between atoms: C_17  and  N_19
REMARK                            x       y       z     vdW  Elec       q    Type
REMARK                         _______ _______ _______ _____ _____    ______ ____
ROOT
ATOM      1  C   UNL     1       2.157  -0.220   1.270  0.00  0.00    +0.050 A 
ATOM      2  C   UNL     1       3.142  -1.024   0.647  0.00  0.00    +0.020 A 
ATOM      3  C   UNL     1       2.787  -2.059  -0.229  0.00  0.00    +0.012 A 
ATOM      4  C   UNL     1       3.761  -2.813  -0.811  0.00  0.00    +0.001 A 
ATOM      5  C   UNL     1       5.106  -2.567  -0.547  0.00  0.00    +0.002 A 
ATOM      6  C   UNL     1       5.483  -1.569   0.300  0.00  0.00    +0.026 A 
ATOM      7  C   UNL     1       4.507  -0.771   0.918  0.00  0.00    +0.048 A 
ATOM      8  N   UNL     1       4.858   0.217   1.754  0.00  0.00    -0.360 N 
ATOM      9  C   UNL     1       3.970   0.976   2.343  0.00  0.00    +0.095 A 
ATOM     10  C   UNL     1       2.593   0.800   2.129  0.00  0.00    +0.040 A 
ATOM     11  H   UNL     1       5.800   0.374   1.927  0.00  0.00    +0.165 HD
ENDROOT
BRANCH   1  17
ATOM     12  C   UNL     1       0.047   1.665   0.008  0.00  0.00    +0.031 C 
ATOM     13  C   UNL     1       0.041   0.137  -0.078  0.00  0.00    +0.029 C 
ATOM     14  C   UNL     1      -1.403  -0.390   0.052  0.00  0.00    +0.027 C 
ATOM     15  C   UNL     1      -1.229  -1.674   0.906  0.00  0.00    +0.021 C 
ATOM     16  C   UNL     1      -0.083  -1.258   1.861  0.00  0.00    +0.106 C 
ATOM     17  N   UNL     1       0.815  -0.429   1.036  0.00  0.00    -0.324 N 
ATOM     18  C   UNL     1       0.644  -0.311  -1.411  0.00  0.00    +0.031 C 
ENDBRANCH   1  17
BRANCH  10  19
ATOM     19  C   UNL     1       1.619   1.672   2.801  0.00  0.00    +0.080 C 
ATOM     20  S   UNL     1      -0.055   1.328   2.697  0.00  0.00    -0.035 S 
BRANCH  19  21
ATOM     21  N   UNL     1       2.044   2.744   3.500  0.00  0.00    -0.352 N 
ATOM     22  H   UNL     1       2.992   2.939   3.560  0.00  0.00    +0.143 HD
ATOM     23  H   UNL     1       1.401   3.319   3.944  0.00  0.00    +0.143 HD
ENDBRANCH  19  21
ENDBRANCH  10  19
TORSDOF 3
