REMARK  Name = ZINC04275251
REMARK  7 active torsions:
REMARK  status: ('A' for Active; 'I' for Inactive)
REMARK    1  A    between atoms: C_1  and  C_2
REMARK    2  A    between atoms: N_4  and  C_5
REMARK    3  A    between atoms: C_6  and  C_17
REMARK    4  A    between atoms: C_10  and  C_15
REMARK    5  A    between atoms: C_10  and  C_16
REMARK    6  A    between atoms: C_11  and  C_13
REMARK    7  A    between atoms: C_11  and  C_14
REMARK                            x       y       z     vdW  Elec       q    Type
REMARK                         _______ _______ _______ _____ _____    ______ ____
ROOT
ATOM      1  C   UNL     1       2.404   1.164  -0.026  0.00  0.00    +0.084 A 
ATOM      2  C   UNL     1       1.285   1.987   0.001  0.00  0.00    +0.068 A 
ATOM      3  C   UNL     1      -0.016   1.350   0.009  0.00  0.00    -0.026 A 
ATOM      4  C   UNL     1       0.002  -0.004   0.002  0.00  0.00    -0.016 A 
ATOM      5  S   UNL     1       1.719  -0.433  -0.031  0.00  0.00    -0.079 S 
ATOM      6  C   UNL     1      -1.184  -0.911   0.026  0.00  0.00    -0.041 C 
ATOM      7  C   UNL     1      -2.382   1.159  -0.680  0.00  0.00    -0.069 C 
ATOM      8  C   UNL     1      -1.358   2.063   0.009  0.00  0.00    +0.024 C 
ATOM      9  C   UNL     1      -2.061   1.087  -2.176  0.00  0.00    -0.010 C 
ATOM     10  C   UNL     1      -3.768   1.815  -0.525  0.00  0.00    -0.010 C 
ATOM     11  C   UNL     1      -1.068  -1.940  -1.107  0.00  0.00    -0.005 C 
ATOM     12  C   UNL     1      -1.181  -1.679   1.364  0.00  0.00    -0.005 C 
ATOM     13  N   UNL     1      -2.485  -0.187  -0.065  0.00  0.00    +0.389 N 
ATOM     14  H   UNL     1      -2.864  -0.081   0.883  0.00  0.00    -0.084 HD
ATOM     15  H   UNL     1      -3.130  -0.751  -0.630  0.00  0.00    -0.084 HD
ENDROOT
BRANCH   1  19
ATOM     16  C   UNL     1       6.149   0.972  -0.096  0.00  0.00    +0.109 C 
ATOM     17  C   UNL     1       4.694   0.577  -0.074  0.00  0.00    +0.214 C 
ATOM     18  O   UNL     1       4.385  -0.596  -0.081  0.00  0.00    -0.276 OA
ATOM     19  N   UNL     1       3.739   1.526  -0.047  0.00  0.00    -0.280 N 
ATOM     20  H   UNL     1       3.986   2.464  -0.041  0.00  0.00    +0.155 HD
ENDBRANCH   1  19
BRANCH   2  21
ATOM     21  C   UNL     1       1.425   3.444   0.033  0.00  0.00    +0.244 C 
ATOM     22  O   UNL     1       1.502   4.025   1.099  0.00  0.00    -0.270 OA
ATOM     23  N   UNL     1       1.467   4.143  -1.119  0.00  0.00    -0.325 N 
ATOM     24  H   UNL     1       1.405   3.680  -1.970  0.00  0.00    +0.145 HD
ATOM     25  H   UNL     1       1.560   5.108  -1.098  0.00  0.00    +0.145 HD
ENDBRANCH   2  21
TORSDOF 2
