REMARK  Name = ZINC52588064
REMARK  7 active torsions:
REMARK  status: ('A' for Active; 'I' for Inactive)
REMARK    1  A    between atoms: C_1  and  C_2
REMARK    2  A    between atoms: C_7  and  C_9
REMARK    3  A    between atoms: C_7  and  N_26
REMARK    4  A    between atoms: C_9  and  N_10
REMARK    5  A    between atoms: N_13  and  N_14
REMARK    6  A    between atoms: N_26  and  C_27
REMARK    7  A    between atoms: N_26  and  C_28
REMARK                            x       y       z     vdW  Elec       q    Type
REMARK                         _______ _______ _______ _____ _____    ______ ____
ROOT
ATOM      1  N   UNL     1       1.168  -3.642   1.831  0.00  0.00    -0.300 N 
ATOM      2  C   UNL     1       1.450  -4.332   2.954  0.00  0.00    +0.316 C 
ATOM      3  O   UNL     1       1.771  -3.741   3.967  0.00  0.00    -0.251 OA
ATOM      4  N   UNL     1       1.376  -5.678   2.954  0.00  0.00    -0.219 N 
ATOM      5  H   UNL     1       0.912  -4.113   1.024  0.00  0.00    +0.150 HD
ATOM      6  H   UNL     1       1.578  -6.175   3.762  0.00  0.00    +0.174 HD
ENDROOT
BRANCH   4   7
ATOM      7  N   UNL     1       1.006  -6.359   1.787  0.00  0.00    -0.246 N 
ATOM      8  C   UNL     1       0.929  -7.749   1.787  0.00  0.00    +0.158 A 
ATOM      9  C   UNL     1       0.566  -8.429   0.624  0.00  0.00    +0.050 A 
ATOM     10  C   UNL     1       0.504  -9.811   0.674  0.00  0.00    +0.053 A 
ATOM     11  C   UNL     1       0.808 -10.437   1.882  0.00  0.00    +0.176 A 
ATOM     12  N   UNL     1       1.143  -9.710   2.935  0.00  0.00    -0.128 NA
ATOM     13  N   UNL     1       1.205  -8.429   2.889  0.00  0.00    -0.131 NA
ATOM     14  N   UNL     1       0.759 -11.832   1.981  0.00  0.00    -0.220 N 
ATOM     15  C   UNL     1       1.024 -12.566   3.093  0.00  0.00    +0.116 A 
ATOM     16  C   UNL     1       0.864 -13.870   2.771  0.00  0.00    +0.041 A 
ATOM     17  C   UNL     1       0.490 -13.940   1.425  0.00  0.00    +0.135 A 
ATOM     18  N   UNL     1       0.421 -12.722   0.952  0.00  0.00    -0.173 NA
ATOM     19  H   UNL     1       0.803  -5.862   0.979  0.00  0.00    +0.172 HD
ENDBRANCH   4   7
BRANCH   1  20
ATOM     20  C   UNL     1       1.249  -2.179   1.832  0.00  0.00    +0.094 C 
BRANCH  20  26
ATOM     21  C   UNL     1       0.744   1.923  -0.977  0.00  0.00    +0.007 C 
ATOM     22  C   UNL     1       0.796   0.394  -0.997  0.00  0.00    -0.015 C 
ATOM     23  C   UNL     1      -0.517  -0.154  -1.561  0.00  0.00    +0.003 C 
ATOM     24  C   UNL     1      -0.465  -1.683  -1.580  0.00  0.00    -0.001 C 
ATOM     25  C   UNL     1      -0.265  -2.205  -0.156  0.00  0.00    -0.010 C 
ATOM     26  C   UNL     1       1.048  -1.657   0.407  0.00  0.00    -0.050 C 
ATOM     27  C   UNL     1       0.997  -0.128   0.427  0.00  0.00    -0.007 C 
BRANCH  26  28
ATOM     28  N   UNL     1       2.166  -2.098  -0.438  0.00  0.00    +0.381 N 
ATOM     29  C   UNL     1       3.436  -1.698   0.181  0.00  0.00    -0.096 C 
ATOM     30  C   UNL     1       2.128  -3.560  -0.576  0.00  0.00    -0.096 C 
ATOM     31  H   UNL     1       2.087  -1.673  -1.349  0.00  0.00    -0.082 HD
ENDBRANCH  26  28
ENDBRANCH  20  26
ENDBRANCH   1  20
TORSDOF 4
