REMARK  Name = ZINC03847476
REMARK  10 active torsions:
REMARK  status: ('A' for Active; 'I' for Inactive)
REMARK    1  A    between atoms: C_1  and  N_50
REMARK    2  A    between atoms: C_6  and  O_24
REMARK    3  A    between atoms: C_7  and  O_23
REMARK    4  A    between atoms: C_10  and  C_12
REMARK    5  A    between atoms: C_12  and  C_13
REMARK    6  A    between atoms: C_13  and  C_14
REMARK    7  A    between atoms: C_17  and  O_22
REMARK    8  A    between atoms: C_18  and  O_20
REMARK    9  A    between atoms: O_20  and  C_21
REMARK   10  A    between atoms: O_24  and  C_25
REMARK                            x       y       z     vdW  Elec       q    Type
REMARK                         _______ _______ _______ _____ _____    ______ ____
ROOT
ATOM      1  C   UNL     1      -0.674   9.690   1.481  0.00  0.00    -0.095 C 
ATOM      2  C   UNL     1      -0.128   8.123  -0.285  0.00  0.00    -0.074 C 
ATOM      3  C   UNL     1       0.655   6.835  -0.537  0.00  0.00    +0.017 C 
ATOM      4  C   UNL     1       0.064   5.707   0.268  0.00  0.00    -0.044 A 
ATOM      5  C   UNL     1       0.394   4.405  -0.080  0.00  0.00    +0.053 A 
ATOM      6  C   UNL     1      -0.122   3.338   0.634  0.00  0.00    +0.162 A 
ATOM      7  C   UNL     1      -0.980   3.575   1.703  0.00  0.00    +0.159 A 
ATOM      8  C   UNL     1      -1.302   4.875   2.049  0.00  0.00    +0.051 A 
ATOM      9  C   UNL     1      -0.784   5.942   1.329  0.00  0.00    -0.054 A 
ATOM     10  C   UNL     1      -1.176   7.338   1.738  0.00  0.00    -0.037 C 
ATOM     11  N   UNL     1      -0.226   8.313   1.176  0.00  0.00    +0.383 N 
ATOM     12  H   UNL     1       0.698   8.161   1.597  0.00  0.00    -0.081 HD
ENDROOT
BRANCH   7  13
ATOM     13  O   UNL     1      -1.496   2.533   2.409  0.00  0.00    -0.503 OA
ATOM     14  H   UNL     1      -0.954   2.261   3.162  0.00  0.00    +0.292 HD
ENDBRANCH   7  13
BRANCH   6  15
ATOM     15  O   UNL     1       0.204   2.063   0.288  0.00  0.00    -0.491 OA
ATOM     16  C   UNL     1       1.086   1.898  -0.824  0.00  0.00    +0.277 C 
ENDBRANCH   6  15
BRANCH  10  17
ATOM     17  C   UNL     1      -1.147   7.442   3.264  0.00  0.00    -0.006 C 
BRANCH  17  18
ATOM     18  C   UNL     1       0.278   7.197   3.766  0.00  0.00    +0.034 C 
BRANCH  18  19
ATOM     19  C   UNL     1       0.331   7.418   5.255  0.00  0.00    -0.044 A 
ATOM     20  C   UNL     1       0.094   6.363   6.117  0.00  0.00    +0.007 A 
ATOM     21  C   UNL     1       0.142   6.560   7.485  0.00  0.00    +0.049 A 
ATOM     22  C   UNL     1       0.429   7.816   7.994  0.00  0.00    +0.158 A 
ATOM     23  C   UNL     1       0.668   8.878   7.127  0.00  0.00    +0.162 A 
ATOM     24  C   UNL     1       0.623   8.672   5.757  0.00  0.00    +0.053 A 
BRANCH  23  25
ATOM     25  O   UNL     1       0.950  10.112   7.622  0.00  0.00    -0.491 OA
ATOM     26  C   UNL     1       1.184  11.154   6.672  0.00  0.00    +0.277 C 
ENDBRANCH  23  25
BRANCH  22  27
ATOM     27  O   UNL     1       0.477   8.012   9.339  0.00  0.00    -0.503 OA
ATOM     28  H   UNL     1       1.352   7.872   9.726  0.00  0.00    +0.292 HD
ENDBRANCH  22  27
ENDBRANCH  18  19
ENDBRANCH  17  18
ENDBRANCH  10  17
TORSDOF 7
