REMARK  Name = ZINC17215725
REMARK  3 active torsions:
REMARK  status: ('A' for Active; 'I' for Inactive)
REMARK    1  A    between atoms: C_2  and  C_11
REMARK    2  A    between atoms: N_12  and  N_13
REMARK    3  A    between atoms: N_13  and  O_14
REMARK                            x       y       z     vdW  Elec       q    Type
REMARK                         _______ _______ _______ _____ _____    ______ ____
ROOT
ATOM      1  C   UNL     1       3.620  -0.559   0.063  0.00  0.00    +0.060 A 
ATOM      2  C   UNL     1       2.398   0.117   0.078  0.00  0.00    +0.012 A 
ATOM      3  C   UNL     1       2.377   1.514   0.080  0.00  0.00    +0.030 A 
ATOM      4  C   UNL     1       3.562   2.222   0.078  0.00  0.00    +0.065 A 
ATOM      5  C   UNL     1       4.775   1.551   0.063  0.00  0.00    +0.167 A 
ATOM      6  C   UNL     1       4.803   0.156   0.056  0.00  0.00    +0.167 A 
ATOM      7  O   UNL     1       6.106  -0.254   0.041  0.00  0.00    -0.453 OA
ATOM      8  C   UNL     1       6.873   0.892   0.453  0.00  0.00    +0.466 C 
ATOM      9  O   UNL     1       6.061   2.011   0.053  0.00  0.00    -0.453 OA
ATOM     10 BR   UNL     1       0.725   2.435   0.092  0.00  0.00    -0.050 Br
ENDROOT
BRANCH   2  11
ATOM     11  C   UNL     1       1.133  -0.642   0.086  0.00  0.00    +0.143 C 
ATOM     12  N   UNL     1       1.083  -1.824  -0.446  0.00  0.00    -0.161 NA
BRANCH  12  13
ATOM     13  N   UNL     1       2.160  -2.296  -1.208  0.00  0.00    -0.187 N 
ATOM     14  H   UNL     1       2.907  -1.710  -1.406  0.00  0.00    +0.218 HD
BRANCH  13  15
ATOM     15  O   UNL     1       2.160  -3.630  -1.684  0.00  0.00    -0.273 OA
ATOM     16  H   UNL     1       2.976  -3.887  -2.134  0.00  0.00    +0.246 HD
ENDBRANCH  13  15
ENDBRANCH  12  13
ENDBRANCH   2  11
TORSDOF 3
