REMARK  Name = ZINC38696860
REMARK  2 active torsions:
REMARK  status: ('A' for Active; 'I' for Inactive)
REMARK    1  A    between atoms: C_10  and  C_13
REMARK    2  A    between atoms: C_14  and  C_18
REMARK                            x       y       z     vdW  Elec       q    Type
REMARK                         _______ _______ _______ _____ _____    ______ ____
ROOT
ATOM      1  C   UNL     1      -0.017   1.375   0.010  0.00  0.00    +0.001 A 
ATOM      2  C   UNL     1       1.168   2.095   0.002  0.00  0.00    +0.002 A 
ATOM      3  C   UNL     1       2.386   1.444  -0.015  0.00  0.00    +0.024 A 
ATOM      4  C   UNL     1       2.422   0.060  -0.024  0.00  0.00    +0.041 A 
ATOM      5  C   UNL     1       1.223  -0.674  -0.013  0.00  0.00    +0.058 A 
ATOM      6  C   UNL     1       0.002  -0.004   0.002  0.00  0.00    +0.015 A 
ATOM      7  C   UNL     1       1.301  -2.146  -0.013  0.00  0.00    +0.247 C 
ATOM      8  O   UNL     1       0.318  -2.814   0.246  0.00  0.00    -0.270 OA
ATOM      9  N   UNL     1       2.475  -2.744  -0.304  0.00  0.00    -0.289 N 
ATOM     10  C   UNL     1       3.647  -1.961  -0.696  0.00  0.00    +0.190 C 
ATOM     11  N   UNL     1       3.620  -0.645  -0.047  0.00  0.00    -0.322 N 
ATOM     12  H   UNL     1       2.543  -3.710  -0.252  0.00  0.00    +0.151 HD
ATOM     13  H   UNL     1       4.421  -0.275   0.357  0.00  0.00    +0.148 HD
ENDROOT
BRANCH  10  14
ATOM     14  C   UNL     1       3.646  -1.776  -2.192  0.00  0.00    +0.019 C 
ATOM     15  C   UNL     1       4.580  -2.177  -3.080  0.00  0.00    +0.104 C 
ATOM     16  N   UNL     1       4.215  -1.822  -4.342  0.00  0.00    -0.153 NA
ATOM     17  N   UNL     1       3.139  -1.226  -4.413  0.00  0.00    -0.182 NA
ATOM     18  C   UNL     1       2.592  -1.103  -3.051  0.00  0.00    +0.202 C 
BRANCH  15  19
ATOM     19  C   UNL     1       5.823  -2.897  -2.732  0.00  0.00    +0.039 A 
ATOM     20  C   UNL     1       6.825  -3.336  -3.555  0.00  0.00    +0.018 A 
ATOM     21  C   UNL     1       7.901  -3.992  -2.998  0.00  0.00    +0.008 A 
ATOM     22  C   UNL     1       7.935  -4.183  -1.654  0.00  0.00    +0.046 A 
ATOM     23  S   UNL     1       6.412  -3.414  -1.128  0.00  0.00    -0.095 S 
ENDBRANCH  15  19
ENDBRANCH  10  14
TORSDOF 2
