REMARK  Name = ZINC37317925
REMARK  8 active torsions:
REMARK  status: ('A' for Active; 'I' for Inactive)
REMARK    1  A    between atoms: C_1  and  C_2
REMARK    2  A    between atoms: C_2  and  C_3
REMARK    3  A    between atoms: C_2  and  C_4
REMARK    4  A    between atoms: C_4  and  C_6
REMARK    5  A    between atoms: C_4  and  N_11
REMARK    6  A    between atoms: N_11  and  C_12
REMARK    7  A    between atoms: C_14  and  S_19
REMARK    8  A    between atoms: S_19  and  N_22
REMARK                            x       y       z     vdW  Elec       q    Type
REMARK                         _______ _______ _______ _____ _____    ______ ____
ROOT
ATOM      1  C   UNL     1      -1.965  -0.938  -2.375  0.00  0.00    +0.048 A 
ATOM      2  C   UNL     1      -1.193  -2.092  -2.333  0.00  0.00    +0.053 A 
ATOM      3  C   UNL     1      -1.056  -2.871  -3.466  0.00  0.00    +0.107 A 
ATOM      4  C   UNL     1      -1.687  -2.504  -4.640  0.00  0.00    +0.030 A 
ATOM      5  C   UNL     1      -2.456  -1.356  -4.686  0.00  0.00    +0.024 A 
ATOM      6  C   UNL     1      -2.602  -0.574  -3.555  0.00  0.00    +0.062 A 
ATOM      7 CL   UNL     1      -3.573   0.863  -3.611  0.00  0.00    -0.082 Cl
ENDROOT
BRANCH   3   8
ATOM      8  S   UNL     1      -0.077  -4.335  -3.413  0.00  0.00    +0.056 S 
ATOM      9  O   UNL     1       0.335  -4.596  -4.748  0.00  0.00    -0.153 OA
ATOM     10  O   UNL     1       0.849  -4.167  -2.349  0.00  0.00    -0.153 OA
BRANCH   8  11
ATOM     11  N   UNL     1      -1.079  -5.579  -2.977  0.00  0.00    -0.204 NA
ATOM     12  H   UNL     1      -0.900  -6.479  -3.290  0.00  0.00    +0.144 HD
ATOM     13  H   UNL     1      -1.846  -5.408  -2.407  0.00  0.00    +0.144 HD
ENDBRANCH   8  11
ENDBRANCH   3   8
BRANCH   1  14
ATOM     14  N   UNL     1      -2.105  -0.148  -1.230  0.00  0.00    -0.335 N 
ATOM     15  H   UNL     1      -2.648   0.655  -1.260  0.00  0.00    +0.147 HD
BRANCH  14  16
ATOM     16  C   UNL     1      -1.433  -0.534   0.013  0.00  0.00    +0.110 C 
BRANCH  16  17
ATOM     17  C   UNL     1      -2.175   0.051   1.187  0.00  0.00    +0.010 A 
ATOM     18  C   UNL     1      -2.442  -0.508   2.393  0.00  0.00    +0.013 A 
ATOM     19  C   UNL     1      -3.147   0.223   3.330  0.00  0.00    +0.008 A 
ATOM     20  C   UNL     1      -3.551   1.478   3.016  0.00  0.00    +0.045 A 
ATOM     21  S   UNL     1      -2.926   1.662   1.354  0.00  0.00    -0.100 S 
ENDBRANCH  16  17
BRANCH  16  23
ATOM     22  C   UNL     1      -0.019   1.526   0.010  0.00  0.00    +0.009 C 
ATOM     23  C   UNL     1       0.002  -0.004   0.002  0.00  0.00    +0.008 C 
ATOM     24  C   UNL     1       0.742  -0.511   1.242  0.00  0.00    +0.009 C 
ENDBRANCH  16  23
ENDBRANCH  14  16
ENDBRANCH   1  14
TORSDOF 6
