REMARK  Name = ZINC51147993
REMARK  4 active torsions:
REMARK  status: ('A' for Active; 'I' for Inactive)
REMARK    1  A    between atoms: C_4  and  O_8
REMARK    2  A    between atoms: O_8  and  C_9
REMARK    3  A    between atoms: C_9  and  C_10
REMARK    4  A    between atoms: N_19  and  N_20
REMARK                            x       y       z     vdW  Elec       q    Type
REMARK                         _______ _______ _______ _____ _____    ______ ____
ROOT
ATOM      1  C   UNL     1       5.469  -1.682   1.015  0.00  0.00    +0.170 A 
ATOM      2  N   UNL     1       5.466  -3.000   0.918  0.00  0.00    -0.212 NA
ATOM      3  C   UNL     1       6.575  -3.695   0.730  0.00  0.00    +0.144 A 
ATOM      4  C   UNL     1       7.816  -3.008   0.628  0.00  0.00    +0.049 A 
ATOM      5  C   UNL     1       9.155  -3.532   0.424  0.00  0.00    +0.021 A 
ATOM      6  C   UNL     1      10.189  -2.681   0.359  0.00  0.00    +0.048 A 
ATOM      7  S   UNL     1       9.427  -1.083   0.571  0.00  0.00    -0.077 S 
ATOM      8  C   UNL     1       7.740  -1.602   0.742  0.00  0.00    +0.114 A 
ATOM      9  N   UNL     1       6.587  -0.989   0.923  0.00  0.00    -0.221 NA
ATOM     10  N   UNL     1       6.529  -5.074   0.634  0.00  0.00    -0.267 N 
ATOM     11  H   UNL     1       7.346  -5.579   0.496  0.00  0.00    +0.167 HD
ENDROOT
BRANCH  10  12
ATOM     12  N   UNL     1       5.333  -5.726   0.734  0.00  0.00    -0.255 NA
ATOM     13  H   UNL     1       4.675  -5.381   0.051  0.00  0.00    +0.140 HD
ATOM     14  H   UNL     1       5.456  -6.724   0.645  0.00  0.00    +0.140 HD
ENDBRANCH  10  12
BRANCH   1  15
ATOM     15  C   UNL     1       4.167  -0.955   1.230  0.00  0.00    +0.305 C 
BRANCH  15  16
ATOM     16  O   UNL     1       3.587  -0.632  -0.036  0.00  0.00    -0.481 OA
BRANCH  16  20
ATOM     17  C   UNL     1      -0.017   1.378   0.010  0.00  0.00    +0.003 A 
ATOM     18  C   UNL     1       1.170   2.088   0.002  0.00  0.00    +0.024 A 
ATOM     19  C   UNL     1       2.378   1.418  -0.013  0.00  0.00    +0.084 A 
ATOM     20  C   UNL     1       2.400   0.030  -0.021  0.00  0.00    +0.158 A 
ATOM     21  C   UNL     1       1.208  -0.680  -0.013  0.00  0.00    +0.084 A 
ATOM     22  C   UNL     1       0.002  -0.004   0.002  0.00  0.00    +0.024 A 
ATOM     23 CL   UNL     1       1.230  -2.416  -0.023  0.00  0.00    -0.080 Cl
ATOM     24 CL   UNL     1       3.867   2.310  -0.023  0.00  0.00    -0.080 Cl
ENDBRANCH  16  20
ENDBRANCH  15  16
ENDBRANCH   1  15
TORSDOF 4
