REMARK  Name = ZINC39605335
REMARK  10 active torsions:
REMARK  status: ('A' for Active; 'I' for Inactive)
REMARK    1  A    between atoms: C_1  and  O_2
REMARK    2  A    between atoms: O_2  and  C_3
REMARK    3  A    between atoms: C_6  and  C_11
REMARK    4  A    between atoms: C_8  and  O_9
REMARK    5  A    between atoms: O_9  and  C_10
REMARK    6  A    between atoms: C_15  and  C_24
REMARK    7  A    between atoms: N_26  and  C_27
REMARK    8  A    between atoms: C_27  and  C_28
REMARK    9  A    between atoms: C_28  and  C_29
REMARK   10  A    between atoms: C_29  and  O_30
REMARK                            x       y       z     vdW  Elec       q    Type
REMARK                         _______ _______ _______ _____ _____    ______ ____
ROOT
ATOM      1  C   UNL     1       2.578  -2.539   4.299  0.00  0.00    +0.247 C 
ATOM      2  O   UNL     1       2.540  -3.750   4.407  0.00  0.00    -0.270 OA
ATOM      3  N   UNL     1       3.224  -1.800   5.222  0.00  0.00    -0.296 N 
ATOM      4  C   UNL     1       3.271  -0.323   5.332  0.00  0.00    +0.121 C 
ATOM      5  C   UNL     1       3.186  -0.042   6.849  0.00  0.00    +0.100 C 
ATOM      6  C   UNL     1       3.699  -1.329   7.516  0.00  0.00    -0.004 C 
ATOM      7  C   UNL     1       4.042  -2.281   6.361  0.00  0.00    +0.115 C 
ATOM      8  C   UNL     1       4.944  -1.034   8.346  0.00  0.00    -0.010 C 
ATOM      9  C   UNL     1       5.401  -2.317   9.046  0.00  0.00    -0.082 C 
ATOM     10  N   UNL     1       4.323  -2.819   9.906  0.00  0.00    +0.379 N 
ATOM     11  C   UNL     1       3.161  -3.188   9.088  0.00  0.00    -0.082 C 
ATOM     12  C   UNL     1       2.609  -1.941   8.390  0.00  0.00    -0.010 C 
ATOM     13  H   UNL     1       4.647  -3.629  10.412  0.00  0.00    -0.086 HD
ATOM     14  H   UNL     1       4.056  -2.100  10.562  0.00  0.00    -0.086 HD
ENDROOT
BRANCH   1  18
ATOM     15  C   UNL     1       0.676  -0.636   1.008  0.00  0.00    +0.162 A 
ATOM     16  C   UNL     1       1.732  -0.010   1.658  0.00  0.00    +0.050 A 
ATOM     17  C   UNL     1       2.350  -0.624   2.725  0.00  0.00    +0.017 A 
ATOM     18  C   UNL     1       1.916  -1.880   3.156  0.00  0.00    +0.041 A 
ATOM     19  C   UNL     1       0.853  -2.510   2.503  0.00  0.00    +0.062 A 
ATOM     20  C   UNL     1       0.234  -1.887   1.437  0.00  0.00    +0.162 A 
BRANCH  15  22
ATOM     21  C   UNL     1       0.574   1.254  -0.429  0.00  0.00    +0.277 C 
ATOM     22  O   UNL     1       0.070  -0.026  -0.043  0.00  0.00    -0.491 OA
ENDBRANCH  15  22
BRANCH  20  23
ATOM     23  O   UNL     1      -0.803  -2.495   0.802  0.00  0.00    -0.491 OA
ATOM     24  C   UNL     1      -1.204  -3.776   1.294  0.00  0.00    +0.277 C 
ENDBRANCH  20  23
ENDBRANCH   1  18
BRANCH   5  25
ATOM     25  C   UNL     1       1.760   0.230   7.253  0.00  0.00    +0.218 C 
ATOM     26  O   UNL     1       0.852  -0.357   6.704  0.00  0.00    -0.275 OA
ATOM     27  N   UNL     1       1.494   1.124   8.226  0.00  0.00    -0.315 N 
ATOM     28  H   UNL     1       2.221   1.593   8.665  0.00  0.00    +0.149 HD
BRANCH  27  29
ATOM     29  C   UNL     1       0.108   1.388   8.620  0.00  0.00    +0.106 C 
BRANCH  29  30
ATOM     30  C   UNL     1       0.085   2.435   9.735  0.00  0.00    +0.046 C 
BRANCH  30  31
ATOM     31  C   UNL     1      -1.363   2.710  10.146  0.00  0.00    +0.157 C 
BRANCH  31  32
ATOM     32  O   UNL     1      -1.385   3.688  11.187  0.00  0.00    -0.395 OA
ATOM     33  H   UNL     1      -2.272   3.913  11.498  0.00  0.00    +0.209 HD
ENDBRANCH  31  32
ENDBRANCH  30  31
ENDBRANCH  29  30
ENDBRANCH  27  29
ENDBRANCH   5  25
TORSDOF 8
