REMARK  Name = ZINC34954501
REMARK  8 active torsions:
REMARK  status: ('A' for Active; 'I' for Inactive)
REMARK    1  A    between atoms: C_1  and  C_2
REMARK    2  A    between atoms: C_2  and  C_3
REMARK    3  A    between atoms: N_8  and  C_22
REMARK    4  A    between atoms: C_12  and  C_20
REMARK    5  A    between atoms: C_13  and  N_19
REMARK    6  A    between atoms: C_14  and  C_15
REMARK    7  A    between atoms: C_14  and  C_17
REMARK    8  A    between atoms: C_22  and  C_23
REMARK                            x       y       z     vdW  Elec       q    Type
REMARK                         _______ _______ _______ _____ _____    ______ ____
ROOT
ATOM      1  C   UNL     1       0.769  -0.383  -1.266  0.00  0.00    +0.037 C 
ATOM      2  C   UNL     1       0.894  -1.905  -1.354  0.00  0.00    +0.040 C 
ATOM      3  C   UNL     1       1.802  -2.459  -0.279  0.00  0.00    +0.093 C 
ATOM      4  N   UNL     1       1.046  -2.996   0.855  0.00  0.00    -0.298 NA
ATOM      5  C   UNL     1       0.162  -4.087   0.406  0.00  0.00    +0.112 C 
ATOM      6  C   UNL     1      -0.835  -3.499  -0.562  0.00  0.00    -0.007 C 
ATOM      7  C   UNL     1      -0.489  -2.490  -1.318  0.00  0.00    -0.027 C 
ATOM      8  C   UNL     1      -1.518  -1.848  -2.173  0.00  0.00    +0.074 C 
ATOM      9  C   UNL     1      -1.271  -0.623  -2.703  0.00  0.00    +0.054 C 
ATOM     10  C   UNL     1       0.013   0.127  -2.494  0.00  0.00    +0.184 C 
ENDROOT
BRANCH   9  11
ATOM     11  N   UNL     1      -2.242  -0.040  -3.467  0.00  0.00    -0.358 N 
ATOM     12  H   UNL     1      -3.082  -0.502  -3.619  0.00  0.00    +0.142 HD
ATOM     13  H   UNL     1      -2.092   0.835  -3.858  0.00  0.00    +0.142 HD
ENDBRANCH   9  11
BRANCH   1  15
ATOM     14  C   UNL     1       0.924  -0.139   1.215  0.00  0.00    +0.004 C 
ATOM     15  C   UNL     1       0.002  -0.004   0.002  0.00  0.00    +0.004 C 
ENDBRANCH   1  15
BRANCH  10  16
ATOM     16  C   UNL     1       0.864  -0.037  -3.684  0.00  0.00    +0.091 C 
ATOM     17  N   UNL     1       1.520  -0.164  -4.602  0.00  0.00    -0.195 NA
ENDBRANCH  10  16
BRANCH  10  18
ATOM     18  C   UNL     1      -0.286   1.557  -2.313  0.00  0.00    +0.091 C 
ATOM     19  N   UNL     1      -0.517   2.660  -2.174  0.00  0.00    -0.195 NA
ENDBRANCH  10  18
BRANCH   8  20
ATOM     20  C   UNL     1      -2.759  -2.513  -2.436  0.00  0.00    +0.101 C 
ATOM     21  N   UNL     1      -3.743  -3.041  -2.644  0.00  0.00    -0.191 NA
ENDBRANCH   8  20
BRANCH   4  22
ATOM     22  C   UNL     1       1.948  -3.454   1.920  0.00  0.00    +0.081 C 
ATOM     23  C   UNL     1       1.133  -3.773   3.176  0.00  0.00    +0.020 C 
ENDBRANCH   4  22
TORSDOF 6
