REMARK  Name = ZINC49153269
REMARK  12 active torsions:
REMARK  status: ('A' for Active; 'I' for Inactive)
REMARK    1  A    between atoms: C_1  and  C_2
REMARK    2  A    between atoms: C_2  and  C_4
REMARK    3  A    between atoms: C_2  and  N_10
REMARK    4  A    between atoms: C_4  and  N_5
REMARK    5  A    between atoms: N_13  and  C_14
REMARK    6  A    between atoms: C_14  and  C_15
REMARK    7  A    between atoms: C_15  and  C_17
REMARK    8  A    between atoms: C_15  and  N_20
REMARK    9  A    between atoms: C_17  and  C_18
REMARK   10  A    between atoms: C_17  and  C_19
REMARK   11  A    between atoms: N_20  and  C_21
REMARK   12  A    between atoms: N_20  and  C_22
REMARK                            x       y       z     vdW  Elec       q    Type
REMARK                         _______ _______ _______ _____ _____    ______ ____
ROOT
ATOM      1  N   UNL     1       0.786  -2.224   1.490  0.00  0.00    -0.295 N 
ATOM      2  C   UNL     1       2.108  -1.970   1.426  0.00  0.00    +0.300 C 
ATOM      3  O   UNL     1       2.632  -1.745   0.352  0.00  0.00    -0.253 OA
ATOM      4  N   UNL     1       2.848  -1.963   2.552  0.00  0.00    -0.301 N 
ATOM      5  H   UNL     1       0.367  -2.403   2.347  0.00  0.00    +0.151 HD
ATOM      6  H   UNL     1       2.430  -2.142   3.409  0.00  0.00    +0.150 HD
ENDROOT
BRANCH   1   8
ATOM      7  C   UNL     1      -0.460  -0.803  -0.062  0.00  0.00    +0.029 C 
ATOM      8  C   UNL     1      -0.019  -2.231   0.267  0.00  0.00    +0.091 C 
BRANCH   8   9
ATOM      9  C   UNL     1      -1.254  -3.111   0.473  0.00  0.00    +0.144 C 
BRANCH   9  10
ATOM     10  N   UNL     1      -0.836  -4.501   0.670  0.00  0.00    -0.337 N 
ATOM     11  C   UNL     1      -0.658  -5.442  -0.309  0.00  0.00    +0.104 A 
ATOM     12  C   UNL     1      -0.273  -6.576   0.307  0.00  0.00    +0.101 A 
ATOM     13  N   UNL     1      -0.217  -6.335   1.625  0.00  0.00    -0.352 N 
ATOM     14  C   UNL     1      -0.548  -5.092   1.849  0.00  0.00    +0.173 A 
ATOM     15  H   UNL     1       0.033  -6.980   2.304  0.00  0.00    +0.166 HD
ENDBRANCH   9  10
ENDBRANCH   8   9
ENDBRANCH   1   8
BRANCH   4  16
ATOM     16  C   UNL     1       4.285  -1.686   2.482  0.00  0.00    +0.091 C 
BRANCH  16  17
ATOM     17  C   UNL     1       4.876  -1.695   3.893  0.00  0.00    -0.049 C 
BRANCH  17  18
ATOM     18  N   UNL     1       4.493  -2.937   4.577  0.00  0.00    +0.379 N 
ATOM     19  C   UNL     1       4.940  -4.090   3.784  0.00  0.00    -0.096 C 
ATOM     20  C   UNL     1       5.122  -2.981   5.903  0.00  0.00    -0.096 C 
ATOM     21  H   UNL     1       3.489  -2.969   4.679  0.00  0.00    -0.082 HD
ENDBRANCH  17  18
BRANCH  17  22
ATOM     22  C   UNL     1       4.340  -0.495   4.677  0.00  0.00    -0.029 C 
ATOM     23  C   UNL     1       4.742   0.799   3.967  0.00  0.00    +0.005 C 
ATOM     24  C   UNL     1       2.814  -0.579   4.758  0.00  0.00    +0.005 C 
ENDBRANCH  17  22
ENDBRANCH  16  17
ENDBRANCH   4  16
TORSDOF 7
