REMARK  Name = ZINC39715729
REMARK  10 active torsions:
REMARK  status: ('A' for Active; 'I' for Inactive)
REMARK    1  A    between atoms: C_1  and  C_2
REMARK    2  A    between atoms: C_2  and  C_27
REMARK    3  A    between atoms: C_5  and  C_8
REMARK    4  A    between atoms: C_10  and  O_22
REMARK    5  A    between atoms: C_18  and  C_20
REMARK    6  A    between atoms: C_18  and  C_21
REMARK    7  A    between atoms: O_22  and  C_23
REMARK    8  A    between atoms: C_23  and  C_24
REMARK    9  A    between atoms: C_24  and  C_25
REMARK   10  A    between atoms: C_25  and  N_26
REMARK                            x       y       z     vdW  Elec       q    Type
REMARK                         _______ _______ _______ _____ _____    ______ ____
ROOT
ATOM      1  C   UNL     1       2.743  -1.776   1.578  0.00  0.00    +0.184 C 
ATOM      2  C   UNL     1       2.988  -1.232   3.000  0.00  0.00    +0.183 C 
ATOM      3  C   UNL     1       4.291  -1.933   3.437  0.00  0.00    +0.209 C 
ATOM      4  C   UNL     1       4.898  -2.479   2.124  0.00  0.00    +0.285 C 
ATOM      5  O   UNL     1       4.041  -2.078   1.049  0.00  0.00    -0.340 OA
ATOM      6  O   UNL     1       4.865  -3.909   2.257  0.00  0.00    -0.318 OA
ATOM      7  C   UNL     1       4.719  -4.181   3.659  0.00  0.00    +0.168 C 
ATOM      8  O   UNL     1       3.961  -3.088   4.225  0.00  0.00    -0.338 OA
ATOM      9  C   UNL     1       3.971  -5.500   3.862  0.00  0.00    +0.074 C 
ATOM     10  C   UNL     1       6.095  -4.251   4.324  0.00  0.00    +0.074 C 
ENDROOT
BRANCH   1  15
ATOM     11  C   UNL     1      -0.019   1.526   0.010  0.00  0.00    +0.074 C 
ATOM     12  C   UNL     1       0.002  -0.004   0.002  0.00  0.00    +0.165 C 
ATOM     13  O   UNL     1       0.685  -0.470  -1.169  0.00  0.00    -0.347 OA
ATOM     14  C   UNL     1       1.825  -1.234  -0.725  0.00  0.00    +0.197 C 
ATOM     15  C   UNL     1       2.054  -0.716   0.717  0.00  0.00    +0.179 C 
ATOM     16  O   UNL     1       0.697  -0.484   1.165  0.00  0.00    -0.341 OA
ATOM     17  C   UNL     1      -1.432  -0.537   0.003  0.00  0.00    +0.074 C 
ENDBRANCH   1  15
BRANCH   2  18
ATOM     18  O   UNL     1       3.161   0.186   2.972  0.00  0.00    -0.371 OA
BRANCH  18  19
ATOM     19  C   UNL     1       2.730   0.848   4.163  0.00  0.00    +0.158 C 
BRANCH  19  20
ATOM     20  C   UNL     1       2.961   2.353   4.022  0.00  0.00    +0.008 C 
BRANCH  20  21
ATOM     21  C   UNL     1       2.499   3.062   5.297  0.00  0.00    -0.084 C 
BRANCH  21  22
ATOM     22  N   UNL     1       2.721   4.507   5.162  0.00  0.00    +0.378 N 
ATOM     23  H   UNL     1       3.704   4.685   5.016  0.00  0.00    -0.090 HD
ATOM     24  H   UNL     1       2.196   4.856   4.375  0.00  0.00    -0.090 HD
ATOM     25  H   UNL     1       2.417   4.974   6.003  0.00  0.00    -0.090 HD
ENDBRANCH  21  22
ENDBRANCH  20  21
ENDBRANCH  19  20
ENDBRANCH  18  19
ENDBRANCH   2  18
TORSDOF 6
