REMARK  Name = ZINC63199311
REMARK  2 active torsions:
REMARK  status: ('A' for Active; 'I' for Inactive)
REMARK    1  A    between atoms: C_4  and  N_7
REMARK    2  A    between atoms: C_13  and  C_16
REMARK                            x       y       z     vdW  Elec       q    Type
REMARK                         _______ _______ _______ _____ _____    ______ ____
ROOT
ATOM      1  N   UNL     1       3.386  -2.477  -1.380  0.00  0.00    -0.296 N 
ATOM      2  C   UNL     1       3.431  -1.683  -2.469  0.00  0.00    +0.302 C 
ATOM      3  O   UNL     1       2.828  -0.628  -2.476  0.00  0.00    -0.253 OA
ATOM      4  N   UNL     1       4.143  -2.061  -3.549  0.00  0.00    -0.286 N 
ATOM      5  C   UNL     1       4.299  -1.156  -4.696  0.00  0.00    +0.109 C 
ATOM      6  C   UNL     1       5.792  -1.001  -5.003  0.00  0.00    +0.021 C 
ATOM      7  C   UNL     1       6.413  -2.385  -5.205  0.00  0.00    -0.022 C 
ATOM      8  C   UNL     1       6.266  -3.204  -3.921  0.00  0.00    +0.021 C 
ATOM      9  C   UNL     1       4.784  -3.382  -3.599  0.00  0.00    +0.109 C 
ATOM     10  H   UNL     1       3.802  -3.353  -1.401  0.00  0.00    +0.151 HD
ENDROOT
BRANCH   7  11
ATOM     11  C   UNL     1       7.897  -2.232  -5.546  0.00  0.00    -0.069 C 
ATOM     12  C   UNL     1       8.496  -3.597  -5.967  0.00  0.00    -0.017 C 
ATOM     13  C   UNL     1       9.706  -3.155  -6.832  0.00  0.00    -0.021 C 
ATOM     14  C   UNL     1       9.181  -1.888  -7.541  0.00  0.00    -0.082 C 
ATOM     15  N   UNL     1       8.067  -1.362  -6.728  0.00  0.00    +0.381 N 
ATOM     16  H   UNL     1       7.218  -1.362  -7.275  0.00  0.00    -0.086 HD
ATOM     17  H   UNL     1       8.277  -0.421  -6.430  0.00  0.00    -0.086 HD
ENDBRANCH   7  11
BRANCH   1  21
ATOM     18  C   UNL     1       2.511  -1.903   2.756  0.00  0.00    +0.000 C 
ATOM     19  C   UNL     1       1.544  -2.745   1.921  0.00  0.00    +0.002 C 
ATOM     20  C   UNL     1       2.250  -3.226   0.652  0.00  0.00    +0.022 C 
ATOM     21  C   UNL     1       2.710  -2.017  -0.165  0.00  0.00    +0.074 C 
ATOM     22  C   UNL     1       3.677  -1.174   0.669  0.00  0.00    +0.022 C 
ATOM     23  C   UNL     1       2.970  -0.694   1.938  0.00  0.00    +0.002 C 
ENDBRANCH   1  21
TORSDOF 2
