REMARK  Name = ZINC16904630
REMARK  4 active torsions:
REMARK  status: ('A' for Active; 'I' for Inactive)
REMARK    1  A    between atoms: C_1  and  C_2
REMARK    2  A    between atoms: C_5  and  N_9
REMARK    3  A    between atoms: C_6  and  O_8
REMARK    4  A    between atoms: C_15  and  C_16
REMARK                            x       y       z     vdW  Elec       q    Type
REMARK                         _______ _______ _______ _____ _____    ______ ____
ROOT
ATOM      1  N   UNL     1       2.402   1.191  -0.014  0.00  0.00    -0.222 NA
ATOM      2  C   UNL     1       1.214   1.657   0.296  0.00  0.00    +0.166 C 
ATOM      3  N   UNL     1       0.017   0.976   0.358  0.00  0.00    -0.260 N 
ATOM      4  C   UNL     1      -1.100   1.604   0.686  0.00  0.00    +0.256 C 
ATOM      5  O   UNL     1      -2.166   1.021   0.740  0.00  0.00    -0.269 OA
ATOM      6  C   UNL     1      -0.990   3.049   0.989  0.00  0.00    +0.079 C 
ATOM      7  C   UNL     1      -1.956   3.928   1.351  0.00  0.00    +0.048 C 
ATOM      8  S   UNL     1       0.758   3.324   0.742  0.00  0.00    -0.049 S 
ATOM      9  H   UNL     1      -0.008   0.028   0.154  0.00  0.00    +0.157 HD
ENDROOT
BRANCH   1  14
ATOM     10  C   UNL     1       6.787   4.723  -0.466  0.00  0.00    +0.044 C 
ATOM     11  C   UNL     1       5.619   3.779  -0.344  0.00  0.00    -0.047 A 
ATOM     12  C   UNL     1       4.435   4.061  -1.002  0.00  0.00    +0.005 A 
ATOM     13  C   UNL     1       3.361   3.200  -0.902  0.00  0.00    +0.032 A 
ATOM     14  C   UNL     1       3.466   2.046  -0.123  0.00  0.00    +0.108 A 
ATOM     15  C   UNL     1       4.666   1.765   0.542  0.00  0.00    +0.142 A 
ATOM     16  C   UNL     1       5.736   2.636   0.426  0.00  0.00    +0.051 A 
BRANCH  15  17
ATOM     17  O   UNL     1       4.780   0.641   1.298  0.00  0.00    -0.505 OA
ATOM     18  H   UNL     1       5.100  -0.130   0.810  0.00  0.00    +0.292 HD
ENDBRANCH  15  17
ENDBRANCH   1  14
BRANCH   7  19
ATOM     19  C   UNL     1      -1.614   5.336   1.600  0.00  0.00    +0.065 A 
ATOM     20  C   UNL     1      -2.615   6.238   1.974  0.00  0.00    +0.028 A 
ATOM     21  C   UNL     1      -2.275   7.559   2.204  0.00  0.00    +0.004 A 
ATOM     22  C   UNL     1      -0.949   7.939   2.055  0.00  0.00    +0.020 A 
ATOM     23  C   UNL     1      -0.008   6.994   1.682  0.00  0.00    +0.111 A 
ATOM     24  N   UNL     1      -0.353   5.742   1.473  0.00  0.00    -0.256 NA
ENDBRANCH   7  19
TORSDOF 3
