REMARK  Name = ZINC47027418
REMARK  6 active torsions:
REMARK  status: ('A' for Active; 'I' for Inactive)
REMARK    1  A    between atoms: C_1  and  C_2
REMARK    2  A    between atoms: C_2  and  C_4
REMARK    3  A    between atoms: C_2  and  N_10
REMARK    4  A    between atoms: C_4  and  N_5
REMARK    5  A    between atoms: N_13  and  N_14
REMARK    6  A    between atoms: N_14  and  C_15
REMARK                            x       y       z     vdW  Elec       q    Type
REMARK                         _______ _______ _______ _____ _____    ______ ____
ROOT
ATOM      1  N   UNL     1       0.688  -0.476  -1.203  0.00  0.00    -0.294 N 
ATOM      2  C   UNL     1       0.006  -0.608  -2.358  0.00  0.00    +0.316 C 
ATOM      3  O   UNL     1      -1.178  -0.335  -2.400  0.00  0.00    -0.251 OA
ATOM      4  N   UNL     1       0.637  -1.043  -3.467  0.00  0.00    -0.220 N 
ATOM      5  H   UNL     1       1.632  -0.695  -1.170  0.00  0.00    +0.151 HD
ATOM      6  H   UNL     1       0.146  -1.137  -4.299  0.00  0.00    +0.174 HD
ENDROOT
BRANCH   1   8
ATOM      7  C   UNL     1      -0.019   1.526   0.010  0.00  0.00    +0.029 C 
ATOM      8  C   UNL     1       0.002  -0.004   0.002  0.00  0.00    +0.091 C 
BRANCH   8   9
ATOM      9  C   UNL     1       0.742  -0.511   1.242  0.00  0.00    +0.144 C 
BRANCH   9  10
ATOM     10  N   UNL     1       0.659  -1.972   1.296  0.00  0.00    -0.337 N 
ATOM     11  C   UNL     1      -0.320  -2.708   1.907  0.00  0.00    +0.104 A 
ATOM     12  C   UNL     1      -0.010  -4.005   1.716  0.00  0.00    +0.101 A 
ATOM     13  N   UNL     1       1.127  -4.059   1.008  0.00  0.00    -0.352 N 
ATOM     14  C   UNL     1       1.531  -2.846   0.748  0.00  0.00    +0.173 A 
ATOM     15  H   UNL     1       1.577  -4.872   0.729  0.00  0.00    +0.166 HD
ENDBRANCH   9  10
ENDBRANCH   8   9
ENDBRANCH   1   8
BRANCH   4  16
ATOM     16  N   UNL     1       2.001  -1.358  -3.419  0.00  0.00    -0.262 N 
ATOM     17  H   UNL     1       2.492  -1.263  -2.588  0.00  0.00    +0.170 HD
BRANCH  16  18
ATOM     18  C   UNL     1       2.656  -1.809  -4.570  0.00  0.00    +0.059 A 
ATOM     19  C   UNL     1       1.956  -1.939  -5.762  0.00  0.00    +0.028 A 
ATOM     20  C   UNL     1       2.605  -2.385  -6.898  0.00  0.00    +0.040 A 
ATOM     21  C   UNL     1       3.952  -2.701  -6.848  0.00  0.00    +0.125 A 
ATOM     22  C   UNL     1       4.652  -2.572  -5.661  0.00  0.00    +0.055 A 
ATOM     23  C   UNL     1       4.009  -2.122  -4.523  0.00  0.00    +0.043 A 
ATOM     24 BR   UNL     1       4.968  -1.938  -2.904  0.00  0.00    -0.048 Br
ATOM     25  F   UNL     1       4.584  -3.136  -7.960  0.00  0.00    -0.205 F 
ENDBRANCH  16  18
ENDBRANCH   4  16
TORSDOF 5
