REMARK  Name = ZINC07884551
REMARK  4 active torsions:
REMARK  status: ('A' for Active; 'I' for Inactive)
REMARK    1  A    between atoms: N_9  and  C_21
REMARK    2  A    between atoms: C_10  and  C_13
REMARK    3  A    between atoms: C_17  and  O_20
REMARK    4  A    between atoms: C_18  and  O_19
REMARK                            x       y       z     vdW  Elec       q    Type
REMARK                         _______ _______ _______ _____ _____    ______ ____
ROOT
ATOM      1  C   UNL     1       3.550  -1.382   4.929  0.00  0.00    +0.001 A 
ATOM      2  C   UNL     1       2.967  -2.510   4.372  0.00  0.00    +0.002 A 
ATOM      3  C   UNL     1       3.023  -2.728   3.009  0.00  0.00    +0.024 A 
ATOM      4  C   UNL     1       3.666  -1.812   2.194  0.00  0.00    +0.041 A 
ATOM      5  C   UNL     1       4.250  -0.663   2.754  0.00  0.00    +0.058 A 
ATOM      6  C   UNL     1       4.190  -0.458   4.131  0.00  0.00    +0.015 A 
ATOM      7  C   UNL     1       4.901   0.307   1.856  0.00  0.00    +0.254 C 
ATOM      8  O   UNL     1       5.556   1.223   2.314  0.00  0.00    -0.270 OA
ATOM      9  N   UNL     1       4.763   0.171   0.522  0.00  0.00    -0.244 N 
ATOM     10  C   UNL     1       3.839  -0.811  -0.047  0.00  0.00    +0.201 C 
ATOM     11  N   UNL     1       3.757  -1.994   0.818  0.00  0.00    -0.321 N 
ATOM     12  H   UNL     1       3.766  -2.886   0.437  0.00  0.00    +0.148 HD
ENDROOT
BRANCH   9  13
ATOM     13  C   UNL     1       5.516   0.981  -0.333  0.00  0.00    +0.039 A 
ATOM     14  C   UNL     1       6.365   0.405  -1.269  0.00  0.00    +0.025 A 
ATOM     15  C   UNL     1       7.105   1.208  -2.116  0.00  0.00    +0.022 A 
ATOM     16  C   UNL     1       7.008   2.585  -2.025  0.00  0.00    +0.041 A 
ATOM     17  C   UNL     1       6.167   3.162  -1.090  0.00  0.00    +0.022 A 
ATOM     18  C   UNL     1       5.421   2.364  -0.244  0.00  0.00    +0.025 A 
ATOM     19 CL   UNL     1       7.944   3.591  -3.086  0.00  0.00    -0.084 Cl
ENDBRANCH   9  13
BRANCH  10  20
ATOM     20  C   UNL     1       2.471  -0.192  -0.177  0.00  0.00    +0.036 A 
ATOM     21  C   UNL     1       2.340   1.181  -0.271  0.00  0.00    +0.011 A 
ATOM     22  C   UNL     1       1.087   1.752  -0.392  0.00  0.00    +0.004 A 
ATOM     23  C   UNL     1      -0.041   0.952  -0.418  0.00  0.00    +0.049 A 
ATOM     24  C   UNL     1       0.084  -0.424  -0.325  0.00  0.00    +0.159 A 
ATOM     25  C   UNL     1       1.345  -0.999  -0.203  0.00  0.00    +0.165 A 
BRANCH  25  26
ATOM     26  O   UNL     1       1.473  -2.350  -0.111  0.00  0.00    -0.503 OA
ATOM     27  H   UNL     1       1.569  -2.796  -0.963  0.00  0.00    +0.292 HD
ENDBRANCH  25  26
BRANCH  24  28
ATOM     28  O   UNL     1      -1.024  -1.212  -0.350  0.00  0.00    -0.503 OA
ATOM     29  H   UNL     1      -1.286  -1.495  -1.237  0.00  0.00    +0.292 HD
ENDBRANCH  24  28
ENDBRANCH  10  20
TORSDOF 4
