REMARK  Name = ZINC65444934
REMARK  12 active torsions:
REMARK  status: ('A' for Active; 'I' for Inactive)
REMARK    1  A    between atoms: C_1  and  C_2
REMARK    2  A    between atoms: C_2  and  N_3
REMARK    3  A    between atoms: C_4  and  C_6
REMARK    4  A    between atoms: C_9  and  C_28
REMARK    5  A    between atoms: C_10  and  N_12
REMARK    6  A    between atoms: N_15  and  C_16
REMARK    7  A    between atoms: C_16  and  C_17
REMARK    8  A    between atoms: C_17  and  C_18
REMARK    9  A    between atoms: C_17  and  C_19
REMARK   10  A    between atoms: C_17  and  N_20
REMARK   11  A    between atoms: C_22  and  C_27
REMARK   12  A    between atoms: C_24  and  C_26
REMARK                            x       y       z     vdW  Elec       q    Type
REMARK                         _______ _______ _______ _____ _____    ______ ____
ROOT
ATOM      1  N   UNL     1       2.452  -5.454  -4.260  0.00  0.00    -0.269 N 
ATOM      2  C   UNL     1       2.048  -6.346  -3.333  0.00  0.00    +0.304 C 
ATOM      3  O   UNL     1       1.478  -5.964  -2.329  0.00  0.00    -0.253 OA
ATOM      4  N   UNL     1       2.277  -7.661  -3.520  0.00  0.00    -0.300 N 
ATOM      5  H   UNL     1       2.833  -5.763  -5.096  0.00  0.00    +0.156 HD
ATOM      6  H   UNL     1       2.732  -7.966  -4.320  0.00  0.00    +0.150 HD
ENDROOT
BRANCH   1  11
ATOM      7  C   UNL     1       2.143  -2.245  -2.471  0.00  0.00    +0.038 A 
ATOM      8  C   UNL     1       2.060  -1.358  -3.545  0.00  0.00    +0.013 A 
ATOM      9  C   UNL     1       2.108  -1.835  -4.839  0.00  0.00    +0.006 A 
ATOM     10  C   UNL     1       2.237  -3.191  -5.077  0.00  0.00    -0.029 A 
ATOM     11  C   UNL     1       2.321  -4.082  -4.014  0.00  0.00    +0.038 A 
ATOM     12  C   UNL     1       2.280  -3.612  -2.710  0.00  0.00    +0.036 A 
ATOM     13  C   UNL     1       2.287  -3.704  -6.492  0.00  0.00    +0.045 C 
BRANCH   7  15
ATOM     14  N   UNL     1       1.961  -0.415  -0.854  0.00  0.00    -0.312 N 
ATOM     15  C   UNL     1       2.093  -1.737  -1.083  0.00  0.00    +0.244 C 
ATOM     16  O   UNL     1       2.171  -2.511  -0.149  0.00  0.00    -0.270 OA
ATOM     17  H   UNL     1       1.899   0.202  -1.600  0.00  0.00    +0.149 HD
BRANCH  14  19
ATOM     18  C   UNL     1       1.758   1.611   0.500  0.00  0.00    +0.024 C 
ATOM     19  C   UNL     1       1.911   0.089   0.520  0.00  0.00    +0.101 C 
ENDBRANCH  14  19
ENDBRANCH   7  15
ENDBRANCH   1  11
BRANCH   4  20
ATOM     20  C   UNL     1       1.838  -8.631  -2.513  0.00  0.00    +0.093 C 
BRANCH  20  21
ATOM     21  C   UNL     1       2.218 -10.042  -2.965  0.00  0.00    -0.055 C 
ATOM     22  C   UNL     1       1.760 -11.055  -1.913  0.00  0.00    -0.008 C 
ATOM     23  C   UNL     1       1.537 -10.350  -4.300  0.00  0.00    -0.008 C 
BRANCH  21  24
ATOM     24  N   UNL     1       3.675 -10.130  -3.127  0.00  0.00    +0.384 N 
ATOM     25  C   UNL     1       4.327  -9.825  -1.847  0.00  0.00    -0.075 C 
ATOM     26  C   UNL     1       5.846  -9.835  -2.030  0.00  0.00    -0.031 C 
ATOM     27  C   UNL     1       6.288 -11.220  -2.513  0.00  0.00    +0.003 C 
ATOM     28  C   UNL     1       5.545 -11.558  -3.809  0.00  0.00    -0.031 C 
ATOM     29  C   UNL     1       4.037 -11.484  -3.560  0.00  0.00    -0.075 C 
ATOM     30  C   UNL     1       5.921 -12.972  -4.258  0.00  0.00    +0.005 C 
ATOM     31  C   UNL     1       6.523  -9.520  -0.694  0.00  0.00    +0.005 C 
ATOM     32  H   UNL     1       3.976  -9.463  -3.822  0.00  0.00    -0.081 HD
ENDBRANCH  21  24
ENDBRANCH  20  21
ENDBRANCH   4  20
TORSDOF 6
