REMARK  Name = ZINC12900578
REMARK  7 active torsions:
REMARK  status: ('A' for Active; 'I' for Inactive)
REMARK    1  A    between atoms: C_1  and  O_2
REMARK    2  A    between atoms: O_2  and  C_3
REMARK    3  A    between atoms: C_3  and  C_4
REMARK    4  A    between atoms: C_4  and  C_5
REMARK    5  A    between atoms: C_5  and  N_6
REMARK    6  A    between atoms: C_11  and  C_27
REMARK    7  A    between atoms: C_27  and  C_28
REMARK                            x       y       z     vdW  Elec       q    Type
REMARK                         _______ _______ _______ _____ _____    ______ ____
ROOT
ATOM      1  N   UNL     1       1.237   1.970   0.001  0.00  0.00    -0.242 N 
ATOM      2  C   UNL     1      -0.018   1.508   0.010  0.00  0.00    +0.224 C 
ATOM      3  O   UNL     1      -1.017   2.195   0.019  0.00  0.00    -0.275 OA
ATOM      4  C   UNL     1       0.002  -0.004   0.002  0.00  0.00    +0.073 C 
ATOM      5  C   UNL     1      -0.498  -0.525   1.367  0.00  0.00    -0.053 C 
ATOM      6  C   UNL     1       1.779  -1.050   1.313  0.00  0.00    +0.050 C 
ATOM      7  C   UNL     1       1.519  -0.341  -0.021  0.00  0.00    +0.088 C 
ATOM      8  C   UNL     1       2.179   1.019  -0.015  0.00  0.00    +0.225 C 
ATOM      9  O   UNL     1       3.374   1.218  -0.023  0.00  0.00    -0.275 OA
ATOM     10  C   UNL     1       2.361  -0.114   2.333  0.00  0.00    -0.028 A 
ATOM     11  C   UNL     1       1.927   1.065   2.896  0.00  0.00    +0.004 A 
ATOM     12  C   UNL     1       2.708   1.714   3.836  0.00  0.00    +0.000 A 
ATOM     13  C   UNL     1       3.926   1.174   4.209  0.00  0.00    +0.002 A 
ATOM     14  C   UNL     1       4.366  -0.007   3.648  0.00  0.00    +0.023 A 
ATOM     15  C   UNL     1       3.586  -0.665   2.700  0.00  0.00    +0.036 A 
ATOM     16  N   UNL     1       3.810  -1.852   1.999  0.00  0.00    -0.286 N 
ATOM     17  C   UNL     1       2.796  -2.148   1.164  0.00  0.00    +0.211 C 
ATOM     18  O   UNL     1       2.718  -3.113   0.433  0.00  0.00    -0.277 OA
ATOM     19  H   UNL     1       4.604  -2.400   2.102  0.00  0.00    +0.155 HD
ATOM     20  N   UNL     1       0.481  -1.550   1.734  0.00  0.00    +0.394 N 
ATOM     21  H   UNL     1       0.268  -2.433   1.254  0.00  0.00    -0.083 HD
ATOM     22  H   UNL     1       0.471  -1.703   2.749  0.00  0.00    -0.083 HD
ENDROOT
BRANCH   1  23
ATOM     23  C   UNL     1       1.555   3.400   0.006  0.00  0.00    +0.118 C 
BRANCH  23  24
ATOM     24  C   UNL     1       1.681   3.889   1.451  0.00  0.00    +0.047 C 
BRANCH  24  25
ATOM     25  C   UNL     1       2.013   5.382   1.457  0.00  0.00    +0.161 C 
BRANCH  25  27
ATOM     26  C   UNL     1       2.441   7.228   2.924  0.00  0.00    +0.193 C 
ATOM     27  O   UNL     1       2.131   5.839   2.806  0.00  0.00    -0.383 OA
ENDBRANCH  25  27
ENDBRANCH  24  25
ENDBRANCH  23  24
ENDBRANCH   1  23
BRANCH   5  28
ATOM     28  C   UNL     1      -1.902  -1.117   1.228  0.00  0.00    +0.022 C 
BRANCH  28  29
ATOM     29  C   UNL     1      -2.419  -1.506   2.589  0.00  0.00    -0.024 A 
ATOM     30  C   UNL     1      -2.348  -2.723   3.153  0.00  0.00    +0.087 A 
ATOM     31  N   UNL     1      -2.922  -2.696   4.394  0.00  0.00    -0.360 N 
ATOM     32  H   UNL     1      -2.990  -3.456   4.994  0.00  0.00    +0.165 HD
ATOM     33  C   UNL     1      -3.389  -1.430   4.667  0.00  0.00    +0.047 A 
ATOM     34  C   UNL     1      -3.089  -0.627   3.551  0.00  0.00    +0.003 A 
ATOM     35  C   UNL     1      -3.445   0.722   3.548  0.00  0.00    +0.010 A 
ATOM     36  C   UNL     1      -4.081   1.259   4.632  0.00  0.00    +0.001 A 
ATOM     37  C   UNL     1      -4.376   0.473   5.737  0.00  0.00    +0.002 A 
ATOM     38  C   UNL     1      -4.040  -0.864   5.758  0.00  0.00    +0.026 A 
ENDBRANCH  28  29
ENDBRANCH   5  28
TORSDOF 6
