REMARK  Name = ZINC43743432
REMARK  13 active torsions:
REMARK  status: ('A' for Active; 'I' for Inactive)
REMARK    1  A    between atoms: CD1_1  and  CG1_2
REMARK    2  A    between atoms: CG1_2  and  CB_3
REMARK    3  A    between atoms: CB_3  and  CG2_5
REMARK    4  A    between atoms: CB_3  and  CA_6
REMARK    5  A    between atoms: CA_6  and  C_8
REMARK    6  A    between atoms: CA_6  and  N_11
REMARK    7  A    between atoms: C_12  and  C_14
REMARK    8  A    between atoms: C_14  and  O_15
REMARK    9  A    between atoms: O_15  and  N_16
REMARK   10  A    between atoms: C_20  and  C_41
REMARK   11  A    between atoms: C_25  and  C_40
REMARK   12  A    between atoms: C_36  and  C_37
REMARK   13  A    between atoms: C_36  and  O_39
REMARK                            x       y       z     vdW  Elec       q    Type
REMARK                         _______ _______ _______ _____ _____    ______ ____
ROOT
ATOM      1  N   UNK A   0      -7.015  -6.289   1.054  0.00  0.00    -0.089 NA
ATOM      2  C   UNK A   0      -7.019  -7.415   1.696  0.00  0.00    +0.080 C 
ATOM      3  C   UNK A   0      -5.736  -8.057   2.189  0.00  0.00    +0.059 C 
ATOM      4  C   UNK A   0      -5.947  -8.427   3.656  0.00  0.00    +0.017 C 
ATOM      5  C   UNK A   0      -7.131  -9.360   3.836  0.00  0.00    -0.007 C 
ATOM      6  C   UNK A   0      -7.559  -9.356   5.309  0.00  0.00    +0.002 C 
ATOM      7  C   UNK A   0      -6.379  -9.787   6.175  0.00  0.00    +0.005 C 
ATOM      8  C   UNK A   0      -6.778  -9.925   7.653  0.00  0.00    +0.011 C 
ATOM      9  C   UNK A   0      -7.915 -10.926   7.717  0.00  0.00    +0.011 C 
ATOM     10  C   UNK A   0      -9.120 -10.299   6.966  0.00  0.00    +0.002 C 
ATOM     11  C   UNK A   0      -8.760 -10.295   5.492  0.00  0.00    -0.003 C 
ATOM     12  C   UNK A   0      -9.944  -9.755   4.685  0.00  0.00    +0.008 C 
ATOM     13  C   UNK A   0      -9.603  -9.806   3.194  0.00  0.00    +0.031 C 
ATOM     14  C   UNK A   0      -8.305  -9.035   2.965  0.00  0.00    -0.062 C 
ATOM     15  C   UNK A   0      -8.269  -8.137   1.990  0.00  0.00    +0.026 C 
ATOM     16  C   UNK A   0     -10.260 -11.241   7.369  0.00  0.00    +0.008 C 
ATOM     17  C   UNK A   0      -9.991 -11.489   8.878  0.00  0.00    +0.049 C 
ATOM     18  C   UNK A   0      -8.481 -11.226   9.101  0.00  0.00    +0.132 C 
ATOM     19  C   UNK A   0      -7.497 -12.230   7.035  0.00  0.00    +0.015 C 
ATOM     20  C   UNK A   0      -6.670 -10.780   3.500  0.00  0.00    +0.016 C 
ENDROOT
BRANCH  18  21
ATOM     21  C   UNK A   0      -8.291 -10.069   9.992  0.00  0.00    -0.070 C 
ATOM     22  C   UNK A   0      -8.139  -9.146  10.701  0.00  0.00    +0.007 C 
ENDBRANCH  18  21
BRANCH  18  23
ATOM     23  O   UNK A   0      -7.852 -12.384   9.653  0.00  0.00    -0.376 OA
ATOM     24  H   UNK A   0      -8.172 -12.624  10.533  0.00  0.00    +0.211 HD
ENDBRANCH  18  23
BRANCH   1  25
ATOM     25  O   UNK A   0      -5.791  -5.628   0.792  0.00  0.00    -0.384 OA
BRANCH  25  26
ATOM     26  C   UNK A   0      -5.936  -4.398   0.078  0.00  0.00    +0.358 C 
BRANCH  26  28
ATOM     27  N   ILE A   1      -4.469  -2.612  -0.803  0.00  0.00    -0.299 N 
ATOM     28  C   UNK A   0      -4.579  -3.784  -0.145  0.00  0.00    +0.254 C 
ATOM     29  O   UNK A   0      -3.585  -4.343   0.267  0.00  0.00    -0.272 OA
ATOM     30  H   ILE A   1      -5.264  -2.164  -1.132  0.00  0.00    +0.150 HD
BRANCH  27  31
ATOM     31  CA  ILE A   1      -3.150  -2.014  -1.020  0.00  0.00    +0.189 C 
BRANCH  31  32
ATOM     32  C   ILE A   1      -2.529  -2.603  -2.260  0.00  0.00    +0.376 C 
ATOM     33  O   ILE A   1      -1.360  -2.380  -2.522  0.00  0.00    -0.244 OA
ATOM     34  OXT ILE A   1      -3.197  -3.302  -3.003  0.00  0.00    -0.244 OA
ENDBRANCH  31  32
BRANCH  31  35
ATOM     35  CB  ILE A   1      -3.297  -0.501  -1.192  0.00  0.00    +0.017 C 
ATOM     36  CG2 ILE A   1      -4.193  -0.210  -2.397  0.00  0.00    +0.010 C 
BRANCH  35  38
ATOM     37  CD1 ILE A   1      -2.050   1.647  -1.466  0.00  0.00    +0.004 C 
ATOM     38  CG1 ILE A   1      -1.919   0.123  -1.418  0.00  0.00    +0.002 C 
ENDBRANCH  35  38
ENDBRANCH  31  35
ENDBRANCH  27  31
ENDBRANCH  26  28
ENDBRANCH  25  26
ENDBRANCH   1  25
TORSDOF 9
