REMARK  Name = ZINC35501323
REMARK  5 active torsions:
REMARK  status: ('A' for Active; 'I' for Inactive)
REMARK    1  A    between atoms: C_1  and  C_2
REMARK    2  A    between atoms: C_3  and  C_7
REMARK    3  A    between atoms: C_7  and  C_9
REMARK    4  A    between atoms: C_7  and  N_20
REMARK    5  A    between atoms: N_20  and  C_21
REMARK                            x       y       z     vdW  Elec       q    Type
REMARK                         _______ _______ _______ _____ _____    ______ ____
ROOT
ATOM      1  C   UNL     1      -2.448  -0.161   0.030  0.00  0.00    -0.006 C 
ENDROOT
BRANCH   1   2
ATOM      2  C   UNL     1      -2.752   0.389   1.400  0.00  0.00    -0.035 A 
ATOM      3  C   UNL     1      -3.304  -0.432   2.365  0.00  0.00    +0.053 A 
ATOM      4  C   UNL     1      -3.584   0.071   3.627  0.00  0.00    +0.162 A 
ATOM      5  C   UNL     1      -3.305   1.401   3.919  0.00  0.00    +0.163 A 
ATOM      6  C   UNL     1      -2.752   2.220   2.946  0.00  0.00    +0.069 A 
ATOM      7  C   UNL     1      -2.471   1.711   1.691  0.00  0.00    +0.047 A 
ATOM      8 CL   UNL     1      -1.772   2.737   0.477  0.00  0.00    -0.083 Cl
ATOM      9  O   UNL     1      -3.564   1.912   5.154  0.00  0.00    -0.485 OA
ATOM     10  C   UNL     1      -4.460   1.165   5.984  0.00  0.00    +0.270 C 
ATOM     11  C   UNL     1      -4.049  -0.312   5.927  0.00  0.00    +0.270 C 
ATOM     12  O   UNL     1      -4.132  -0.748   4.566  0.00  0.00    -0.485 OA
ENDBRANCH   1   2
BRANCH   1  15
ATOM     13  C   UNL     1      -0.780  -0.783  -2.538  0.00  0.00    +0.086 C 
ATOM     14  C   UNL     1      -0.298  -0.911  -1.116  0.00  0.00    +0.104 A 
ATOM     15  C   UNL     1      -1.021  -0.642  -0.014  0.00  0.00    -0.017 A 
ATOM     16  C   UNL     1      -0.183  -0.897   1.097  0.00  0.00    +0.043 A 
ATOM     17  C   UNL     1       1.000  -1.306   0.607  0.00  0.00    +0.195 A 
ATOM     18  O   UNL     1       0.923  -1.319  -0.734  0.00  0.00    -0.468 OA
ENDBRANCH   1  15
BRANCH   1  19
ATOM     19  N   UNL     1      -3.352  -1.282  -0.259  0.00  0.00    +0.385 N 
ATOM     20  C   UNL     1      -4.734  -0.790  -0.336  0.00  0.00    -0.099 C 
ATOM     21  H   UNL     1      -3.095  -1.703  -1.140  0.00  0.00    -0.085 HD
ATOM     22  H   UNL     1      -3.280  -1.970   0.475  0.00  0.00    -0.085 HD
ENDBRANCH   1  19
TORSDOF 3
