REMARK  Name = ZINC58829146
REMARK  6 active torsions:
REMARK  status: ('A' for Active; 'I' for Inactive)
REMARK    1  A    between atoms: C_4  and  C_7
REMARK    2  A    between atoms: C_8  and  C_9
REMARK    3  A    between atoms: C_8  and  C_15
REMARK    4  A    between atoms: N_17  and  C_18
REMARK    5  A    between atoms: C_18  and  C_19
REMARK    6  A    between atoms: C_19  and  C_20
REMARK                            x       y       z     vdW  Elec       q    Type
REMARK                         _______ _______ _______ _____ _____    ______ ____
ROOT
ATOM      1  C   UNL     1       3.702  -0.700  -0.207  0.00  0.00    +0.021 C 
ATOM      2  C   UNL     1       3.716  -2.034   0.057  0.00  0.00    +0.044 C 
ENDROOT
BRANCH   1   6
ATOM      3  C   UNL     1       0.111   1.178  -1.453  0.00  0.00    +0.000 A 
ATOM      4  C   UNL     1       0.992   1.856  -0.628  0.00  0.00    +0.001 A 
ATOM      5  C   UNL     1       2.162   1.253  -0.219  0.00  0.00    +0.008 A 
ATOM      6  C   UNL     1       2.458  -0.049  -0.639  0.00  0.00    -0.024 A 
ATOM      7  C   UNL     1       1.561  -0.728  -1.472  0.00  0.00    +0.008 A 
ATOM      8  C   UNL     1       0.396  -0.110  -1.873  0.00  0.00    +0.001 A 
ENDBRANCH   1   6
BRANCH   2   9
ATOM      9  C   UNL     1       2.449  -2.800   0.066  0.00  0.00    -0.013 A 
ATOM     10  C   UNL     1       1.499  -2.571   1.062  0.00  0.00    +0.008 A 
ATOM     11  C   UNL     1       0.321  -3.288   1.065  0.00  0.00    +0.001 A 
ATOM     12  C   UNL     1       0.079  -4.232   0.083  0.00  0.00    +0.000 A 
ATOM     13  C   UNL     1       1.017  -4.464  -0.907  0.00  0.00    +0.001 A 
ATOM     14  C   UNL     1       2.197  -3.749  -0.925  0.00  0.00    +0.008 A 
ENDBRANCH   2   9
BRANCH   2  15
ATOM     15  C   UNL     1       4.990  -2.716   0.333  0.00  0.00    +0.245 C 
ATOM     16  O   UNL     1       6.031  -2.087   0.326  0.00  0.00    -0.270 OA
ATOM     17  N   UNL     1       5.004  -4.038   0.595  0.00  0.00    -0.311 N 
ATOM     18  H   UNL     1       4.174  -4.540   0.601  0.00  0.00    +0.149 HD
BRANCH  17  19
ATOM     19  C   UNL     1       6.272  -4.717   0.871  0.00  0.00    +0.111 C 
BRANCH  19  20
ATOM     20  C   UNL     1       6.010  -6.202   1.133  0.00  0.00    +0.083 C 
BRANCH  20  21
ATOM     21  C   UNL     1       7.315  -6.900   1.417  0.00  0.00    +0.105 A 
ATOM     22  N   UNL     1       7.935  -7.104   2.561  0.00  0.00    -0.145 NA
ATOM     23  N   UNL     1       9.036  -7.716   2.629  0.00  0.00    -0.126 NA
ATOM     24  C   UNL     1       9.639  -8.193   1.548  0.00  0.00    +0.179 A 
ATOM     25  S   UNL     1       8.460  -7.697   0.295  0.00  0.00    -0.036 S 
ATOM     26  N   UNL     1      10.836  -8.882   1.425  0.00  0.00    -0.336 N 
ATOM     27  H   UNL     1      11.365  -9.080   2.214  0.00  0.00    +0.144 HD
ATOM     28  H   UNL     1      11.144  -9.167   0.551  0.00  0.00    +0.144 HD
ENDBRANCH  20  21
ENDBRANCH  19  20
ENDBRANCH  17  19
ENDBRANCH   2  15
TORSDOF 6
