REMARK  Name = ZINC16977136
REMARK  8 active torsions:
REMARK  status: ('A' for Active; 'I' for Inactive)
REMARK    1  A    between atoms: C_1  and  O_2
REMARK    2  A    between atoms: O_2  and  C_3
REMARK    3  A    between atoms: C_8  and  O_9
REMARK    4  A    between atoms: O_9  and  C_10
REMARK    5  A    between atoms: C_15  and  C_18
REMARK    6  A    between atoms: N_20  and  C_21
REMARK    7  A    between atoms: C_21  and  C_22
REMARK    8  A    between atoms: C_22  and  O_23
REMARK                            x       y       z     vdW  Elec       q    Type
REMARK                         _______ _______ _______ _____ _____    ______ ____
ROOT
ATOM      1  C   UNL     1       0.628  -0.609  -1.045  0.00  0.00    +0.162 A 
ATOM      2  C   UNL     1       1.194   0.158  -2.042  0.00  0.00    +0.063 A 
ATOM      3  C   UNL     1       1.799  -0.467  -3.135  0.00  0.00    +0.050 A 
ATOM      4  C   UNL     1       1.831  -1.870  -3.218  0.00  0.00    +0.057 A 
ATOM      5  C   UNL     1       1.258  -2.629  -2.206  0.00  0.00    +0.075 A 
ATOM      6  C   UNL     1       0.665  -2.003  -1.124  0.00  0.00    +0.163 A 
ATOM      7  N   UNL     1       2.431  -2.484  -4.303  0.00  0.00    -0.321 N 
ATOM      8  H   UNL     1       2.446  -3.453  -4.347  0.00  0.00    +0.169 HD
ATOM      9  C   UNL     1       2.997  -1.772  -5.303  0.00  0.00    +0.265 A 
ATOM     10  O   UNL     1       3.565  -2.429  -6.333  0.00  0.00    -0.267 OA
ATOM     11  C   UNL     1       3.009  -0.380  -5.300  0.00  0.00    +0.148 A 
ATOM     12  C   UNL     1       2.412   0.323  -4.217  0.00  0.00    +0.205 A 
ATOM     13  O   UNL     1       2.406   1.542  -4.185  0.00  0.00    -0.286 OA
ENDROOT
BRANCH  11  14
ATOM     14  C   UNL     1       3.632   0.356  -6.404  0.00  0.00    +0.253 C 
ATOM     15  O   UNL     1       4.235  -0.246  -7.273  0.00  0.00    -0.270 OA
ATOM     16  N   UNL     1       3.538   1.699  -6.457  0.00  0.00    -0.309 N 
ATOM     17  H   UNL     1       3.122   2.185  -5.728  0.00  0.00    +0.149 HD
BRANCH  16  18
ATOM     18  C   UNL     1       4.063   2.425  -7.616  0.00  0.00    +0.132 C 
BRANCH  18  19
ATOM     19  C   UNL     1       3.831   3.926  -7.426  0.00  0.00    +0.174 C 
BRANCH  19  20
ATOM     20  O   UNL     1       4.596   4.389  -6.311  0.00  0.00    -0.393 OA
ATOM     21  H   UNL     1       4.497   5.334  -6.132  0.00  0.00    +0.209 HD
ENDBRANCH  19  20
ENDBRANCH  18  19
ENDBRANCH  16  18
ENDBRANCH  11  14
BRANCH   1  23
ATOM     22  C   UNL     1       0.035   1.424   0.040  0.00  0.00    +0.277 C 
ATOM     23  O   UNL     1       0.038  -0.005   0.022  0.00  0.00    -0.491 OA
ENDBRANCH   1  23
BRANCH   6  24
ATOM     24  O   UNL     1       0.110  -2.749  -0.134  0.00  0.00    -0.491 OA
ATOM     25  C   UNL     1       0.182  -4.170  -0.275  0.00  0.00    +0.277 C 
ENDBRANCH   6  24
TORSDOF 6
