REMARK  Name = ZINC51518565
REMARK  7 active torsions:
REMARK  status: ('A' for Active; 'I' for Inactive)
REMARK    1  A    between atoms: C_1  and  C_2
REMARK    2  A    between atoms: C_2  and  C_3
REMARK    3  A    between atoms: C_7  and  C_22
REMARK    4  A    between atoms: C_15  and  C_17
REMARK    5  A    between atoms: C_17  and  N_18
REMARK    6  A    between atoms: N_18  and  C_19
REMARK    7  A    between atoms: C_19  and  C_20
REMARK                            x       y       z     vdW  Elec       q    Type
REMARK                         _______ _______ _______ _____ _____    ______ ____
ROOT
ATOM      1  C   UNL     1      -1.480  -0.401  -0.039  0.00  0.00    +0.100 C 
ATOM      2  C   UNL     1      -1.565  -1.930  -0.102  0.00  0.00    +0.182 C 
ATOM      3  O   UNL     1      -2.926  -2.333   0.072  0.00  0.00    -0.373 OA
ATOM      4  C   UNL     1      -3.483  -1.979   1.340  0.00  0.00    +0.132 C 
ATOM      5  C   UNL     1      -3.495  -0.452   1.478  0.00  0.00    +0.138 C 
ATOM      6  N   UNL     1      -2.142   0.051   1.195  0.00  0.00    -0.307 N 
ATOM      7  C   UNL     1      -1.507   0.927   2.069  0.00  0.00    +0.122 A 
ATOM      8  C   UNL     1      -1.728   2.295   1.956  0.00  0.00    +0.045 A 
ATOM      9  C   UNL     1      -1.091   3.155   2.831  0.00  0.00    +0.025 A 
ATOM     10  C   UNL     1      -0.249   2.615   3.796  0.00  0.00    +0.060 A 
ATOM     11  C   UNL     1      -0.075   1.246   3.851  0.00  0.00    +0.045 A 
ATOM     12  N   UNL     1      -0.701   0.450   3.005  0.00  0.00    -0.237 NA
ATOM     13 CL   UNL     1       0.576   3.650   4.919  0.00  0.00    -0.082 Cl
ATOM     14  C   UNL     1      -4.913  -2.514   1.437  0.00  0.00    +0.039 C 
ENDROOT
BRANCH   1  16
ATOM     15  C   UNL     1       0.636  -0.318  -1.365  0.00  0.00    +0.006 C 
ATOM     16  C   UNL     1      -0.012   0.033  -0.025  0.00  0.00    +0.021 C 
ENDBRANCH   1  16
BRANCH  11  17
ATOM     17  C   UNL     1       0.837   0.654   4.894  0.00  0.00    -0.025 C 
BRANCH  17  18
ATOM     18  N   UNL     1       0.066   0.361   6.110  0.00  0.00    +0.383 N 
ATOM     19  H   UNL     1      -0.340   1.214   6.464  0.00  0.00    -0.085 HD
ATOM     20  H   UNL     1      -0.668  -0.297   5.892  0.00  0.00    -0.085 HD
BRANCH  18  21
ATOM     21  C   UNL     1       0.955  -0.217   7.127  0.00  0.00    -0.086 C 
ATOM     22  C   UNL     1       0.152  -0.522   8.392  0.00  0.00    -0.017 C 
ENDBRANCH  18  21
ENDBRANCH  17  18
ENDBRANCH  11  17
TORSDOF 4
