REMARK  Name = ZINC33587853
REMARK  6 active torsions:
REMARK  status: ('A' for Active; 'I' for Inactive)
REMARK    1  A    between atoms: C_2  and  C_12
REMARK    2  A    between atoms: C_4  and  C_6
REMARK    3  A    between atoms: N_14  and  C_15
REMARK    4  A    between atoms: C_15  and  C_17
REMARK    5  A    between atoms: C_15  and  C_24
REMARK    6  A    between atoms: C_17  and  C_18
REMARK                            x       y       z     vdW  Elec       q    Type
REMARK                         _______ _______ _______ _____ _____    ______ ____
ROOT
ATOM      1  C   UNL     1      -1.293  -0.962   0.053  0.00  0.00    +0.264 C 
ATOM      2  O   UNL     1      -1.294  -2.174  -0.045  0.00  0.00    -0.268 OA
ATOM      3  N   UNL     1      -2.459  -0.287   0.084  0.00  0.00    -0.299 N 
ATOM      4  H   UNL     1      -2.458   0.809   0.173  0.00  0.00    +0.150 HD
ENDROOT
BRANCH   1   6
ATOM      5  C   UNL     1       1.184  -0.893   0.111  0.00  0.00    +0.079 A 
ATOM      6  C   UNL     1      -0.017  -0.231   0.139  0.00  0.00    +0.133 A 
ATOM      7  N   UNL     1       0.013   1.098   0.247  0.00  0.00    -0.241 NA
ATOM      8  C   UNL     1       1.160   1.721   0.322  0.00  0.00    +0.065 A 
ATOM      9  S   UNL     1       2.307   0.423   0.241  0.00  0.00    -0.081 S 
BRANCH   8  10
ATOM     10  C   UNL     1       1.420   3.200   0.447  0.00  0.00    -0.015 C 
ATOM     11  C   UNL     1       1.911   3.776  -0.898  0.00  0.00    -0.011 C 
ATOM     12  C   UNL     1       2.972   4.830  -0.520  0.00  0.00    -0.020 C 
ATOM     13  C   UNL     1       3.032   4.803   1.023  0.00  0.00    -0.082 C 
ATOM     14  N   UNL     1       2.538   3.451   1.393  0.00  0.00    +0.385 N 
ATOM     15  H   UNL     1       2.160   3.419   2.425  0.00  0.00    -0.085 HD
ATOM     16  H   UNL     1       3.311   2.679   1.260  0.00  0.00    -0.085 HD
ENDBRANCH   8  10
ENDBRANCH   1   6
BRANCH   3  17
ATOM     17  C   UNL     1      -3.729  -1.014  -0.001  0.00  0.00    +0.159 C 
BRANCH  17  18
ATOM     18  C   UNL     1      -4.131  -1.484   1.373  0.00  0.00    +0.231 C 
ATOM     19  O   UNL     1      -3.427  -1.237   2.329  0.00  0.00    -0.274 OA
ATOM     20  N   UNL     1      -5.274  -2.180   1.539  0.00  0.00    -0.328 N 
ATOM     21  H   UNL     1      -5.567  -2.523   2.542  0.00  0.00    +0.145 HD
ATOM     22  H   UNL     1      -5.912  -2.404   0.671  0.00  0.00    +0.145 HD
ENDBRANCH  17  18
BRANCH  17  23
ATOM     23  C   UNL     1      -4.810  -0.087  -0.560  0.00  0.00    +0.035 C 
BRANCH  23  24
ATOM     24  C   UNL     1      -4.459   0.297  -1.999  0.00  0.00    -0.009 C 
ATOM     25  C   UNL     1      -5.460   1.337  -2.508  0.00  0.00    +0.003 C 
ATOM     26  C   UNL     1      -5.108   1.721  -3.947  0.00  0.00    +0.000 C 
ATOM     27  C   UNL     1      -5.167   0.478  -4.836  0.00  0.00    +0.000 C 
ATOM     28  C   UNL     1      -4.166  -0.561  -4.327  0.00  0.00    +0.000 C 
ATOM     29  C   UNL     1      -4.518  -0.946  -2.888  0.00  0.00    +0.003 C 
ENDBRANCH  23  24
ENDBRANCH  17  23
ENDBRANCH   3  17
TORSDOF 6
