REMARK  Name = ZINC43050376
REMARK  8 active torsions:
REMARK  status: ('A' for Active; 'I' for Inactive)
REMARK    1  A    between atoms: C_1  and  C_2
REMARK    2  A    between atoms: C_2  and  C_3
REMARK    3  A    between atoms: C_3  and  C_5
REMARK    4  A    between atoms: C_3  and  N_24
REMARK    5  A    between atoms: C_5  and  C_7
REMARK    6  A    between atoms: C_5  and  S_14
REMARK    7  A    between atoms: S_14  and  C_15
REMARK    8  A    between atoms: C_21  and  N_23
REMARK                            x       y       z     vdW  Elec       q    Type
REMARK                         _______ _______ _______ _____ _____    ______ ____
ROOT
ATOM      1  C   UNL     1      -1.428  -2.041  -0.249  0.00  0.00    +0.072 C 
ENDROOT
BRANCH   1   2
ATOM      2  C   UNL     1      -2.892  -2.350  -0.435  0.00  0.00    -0.000 A 
ATOM      3  C   UNL     1      -3.450  -2.319  -1.699  0.00  0.00    +0.007 A 
ATOM      4  C   UNL     1      -4.792  -2.603  -1.870  0.00  0.00    +0.000 A 
ATOM      5  C   UNL     1      -5.577  -2.918  -0.777  0.00  0.00    +0.003 A 
ATOM      6  C   UNL     1      -5.021  -2.951   0.487  0.00  0.00    +0.038 A 
ATOM      7  C   UNL     1      -3.676  -2.672   0.659  0.00  0.00    +0.128 A 
ATOM      8  F   UNL     1      -3.130  -2.709   1.895  0.00  0.00    -0.205 F 
ENDBRANCH   1   2
BRANCH   1   9
ATOM      9  C   UNL     1      -1.262  -0.565   0.119  0.00  0.00    -0.057 C 
BRANCH   9  10
ATOM     10  N   UNL     1      -2.031  -0.275   1.336  0.00  0.00    +0.381 N 
ATOM     11  H   UNL     1      -1.921   0.698   1.579  0.00  0.00    -0.090 HD
ATOM     12  H   UNL     1      -3.007  -0.473   1.173  0.00  0.00    -0.090 HD
ATOM     13  H   UNL     1      -1.693  -0.850   2.093  0.00  0.00    -0.090 HD
ENDBRANCH   9  10
BRANCH   9  15
ATOM     14  C   UNL     1       0.401   1.235   0.604  0.00  0.00    +0.002 C 
ATOM     15  C   UNL     1       0.218  -0.265   0.367  0.00  0.00    -0.018 C 
ENDBRANCH   9  15
ENDBRANCH   1   9
BRANCH   1  16
ATOM     16  S   UNL     1      -0.537  -2.384  -1.792  0.00  0.00    -0.081 S 
BRANCH  16  17
ATOM     17  C   UNL     1      -0.611  -4.137  -1.946  0.00  0.00    +0.171 A 
ATOM     18  N   UNL     1      -0.116  -4.730  -3.068  0.00  0.00    -0.302 N 
ATOM     19  H   UNL     1       0.274  -4.186  -3.771  0.00  0.00    +0.171 HD
ATOM     20  C   UNL     1      -0.164  -6.071  -3.204  0.00  0.00    +0.254 A 
ATOM     21  O   UNL     1       0.278  -6.611  -4.206  0.00  0.00    -0.268 OA
ATOM     22  C   UNL     1      -0.729  -6.834  -2.177  0.00  0.00    +0.113 A 
ATOM     23  C   UNL     1      -1.220  -6.182  -1.054  0.00  0.00    +0.124 A 
ATOM     24  N   UNL     1      -1.140  -4.849  -0.973  0.00  0.00    -0.209 NA
BRANCH  23  25
ATOM     25  N   UNL     1      -1.784  -6.907  -0.024  0.00  0.00    -0.343 N 
ATOM     26  H   UNL     1      -1.837  -7.873  -0.083  0.00  0.00    +0.144 HD
ATOM     27  H   UNL     1      -2.127  -6.449   0.760  0.00  0.00    +0.144 HD
ENDBRANCH  23  25
ENDBRANCH  16  17
ENDBRANCH   1  16
TORSDOF 7
