REMARK  Name = ZINC54368718
REMARK  9 active torsions:
REMARK  status: ('A' for Active; 'I' for Inactive)
REMARK    1  A    between atoms: C_1  and  C_2
REMARK    2  A    between atoms: C_2  and  C_4
REMARK    3  A    between atoms: C_2  and  N_17
REMARK    4  A    between atoms: N_6  and  C_7
REMARK    5  A    between atoms: C_9  and  C_15
REMARK    6  A    between atoms: C_9  and  C_16
REMARK    7  A    between atoms: C_11  and  C_13
REMARK    8  A    between atoms: C_11  and  C_14
REMARK    9  A    between atoms: C_18  and  C_20
REMARK                            x       y       z     vdW  Elec       q    Type
REMARK                         _______ _______ _______ _____ _____    ______ ____
ROOT
ATOM      1  C   UNL     1       0.703  -0.883   1.175  0.00  0.00    +0.233 C 
ATOM      2  O   UNL     1       1.645  -1.634   1.043  0.00  0.00    -0.274 OA
ATOM      3  N   UNL     1       0.290  -0.528   2.408  0.00  0.00    -0.311 N 
ATOM      4  H   UNL     1      -0.464   0.073   2.513  0.00  0.00    +0.149 HD
ENDROOT
BRANCH   3   5
ATOM      5  C   UNL     1       0.983  -1.051   3.592  0.00  0.00    +0.070 C 
ATOM      6  C   UNL     1       0.374  -2.401   3.974  0.00  0.00    +0.009 C 
ATOM      7  C   UNL     1       1.077  -2.954   5.214  0.00  0.00    -0.072 C 
ATOM      8  N   UNL     1       1.068  -2.005   6.318  0.00  0.00    +0.386 N 
ATOM      9  C   UNL     1       1.434  -0.628   6.028  0.00  0.00    -0.072 C 
ATOM     10  C   UNL     1       0.782  -0.086   4.761  0.00  0.00    +0.009 C 
ATOM     11  C   UNL     1       0.937   0.243   7.207  0.00  0.00    -0.010 C 
ATOM     12  C   UNL     1       2.952  -0.450   5.951  0.00  0.00    -0.010 C 
ATOM     13  C   UNL     1       2.491  -3.411   4.860  0.00  0.00    -0.010 C 
ATOM     14  C   UNL     1       0.290  -4.205   5.668  0.00  0.00    -0.010 C 
ATOM     15  H   UNL     1       0.134  -2.008   6.736  0.00  0.00    -0.084 HD
ATOM     16  H   UNL     1       1.690  -2.357   7.049  0.00  0.00    -0.084 HD
ENDBRANCH   3   5
BRANCH   1  18
ATOM     17  C   UNL     1       0.077   1.182  -0.049  0.00  0.00    +0.038 C 
ATOM     18  C   UNL     1      -0.008  -0.346  -0.041  0.00  0.00    +0.156 C 
BRANCH  18  19
ATOM     19  N   UNL     1       0.625  -0.876  -1.251  0.00  0.00    -0.300 N 
ATOM     20  C   UNL     1      -0.081  -0.971  -2.395  0.00  0.00    +0.251 C 
ATOM     21  O   UNL     1      -1.245  -0.617  -2.423  0.00  0.00    -0.270 OA
ATOM     22  H   UNL     1       1.553  -1.159  -1.228  0.00  0.00    +0.150 HD
BRANCH  20  23
ATOM     23  C   UNL     1       0.553  -1.502  -3.605  0.00  0.00    +0.074 A 
ATOM     24  C   UNL     1       0.013  -1.676  -4.870  0.00  0.00    +0.021 A 
ATOM     25  C   UNL     1       0.862  -2.202  -5.815  0.00  0.00    +0.008 A 
ATOM     26  C   UNL     1       2.134  -2.507  -5.460  0.00  0.00    +0.046 A 
ATOM     27  S   UNL     1       2.222  -2.084  -3.837  0.00  0.00    -0.092 S 
ENDBRANCH  20  23
ENDBRANCH  18  19
ENDBRANCH   1  18
TORSDOF 4
