REMARK  Name = ZINC41835694
REMARK  7 active torsions:
REMARK  status: ('A' for Active; 'I' for Inactive)
REMARK    1  A    between atoms: C_1  and  C_2
REMARK    2  A    between atoms: C_2  and  N_3
REMARK    3  A    between atoms: C_9  and  C_15
REMARK    4  A    between atoms: N_17  and  C_18
REMARK    5  A    between atoms: N_17  and  C_19
REMARK    6  A    between atoms: C_19  and  C_20
REMARK    7  A    between atoms: N_24  and  C_25
REMARK                            x       y       z     vdW  Elec       q    Type
REMARK                         _______ _______ _______ _____ _____    ______ ____
ROOT
ATOM      1  N   UNL     1      -0.877   0.963  -2.949  0.00  0.00    -0.287 N 
ATOM      2  C   UNL     1       0.169   0.162  -2.651  0.00  0.00    +0.262 A 
ATOM      3  O   UNL     1       0.553  -0.024  -1.376  0.00  0.00    -0.267 OA
ATOM      4  C   UNL     1       0.848  -0.474  -3.711  0.00  0.00    +0.065 A 
ATOM      5  C   UNL     1       1.942  -1.321  -3.481  0.00  0.00    +0.016 A 
ATOM      6  C   UNL     1       2.571  -1.918  -4.530  0.00  0.00    +0.014 A 
ATOM      7  C   UNL     1       2.139  -1.697  -5.847  0.00  0.00    +0.039 A 
ATOM      8  C   UNL     1       1.061  -0.866  -6.106  0.00  0.00    +0.041 A 
ATOM      9  C   UNL     1       0.400  -0.242  -5.038  0.00  0.00    +0.080 A 
ATOM     10  N   UNL     1      -0.648   0.569  -5.242  0.00  0.00    -0.222 NA
ATOM     11  C   UNL     1      -1.265   1.146  -4.222  0.00  0.00    +0.183 A 
ATOM     12  S   UNL     1      -2.602   2.167  -4.538  0.00  0.00    -0.011 S 
ENDROOT
BRANCH   7  13
ATOM     13  C   UNL     1       2.842  -2.359  -6.971  0.00  0.00    +0.247 C 
ATOM     14  O   UNL     1       4.053  -2.455  -6.957  0.00  0.00    -0.270 OA
ATOM     15  N   UNL     1       2.138  -2.853  -8.008  0.00  0.00    -0.293 N 
ATOM     16  C   UNL     1       0.691  -2.638  -8.081  0.00  0.00    +0.133 C 
BRANCH  15  17
ATOM     17  C   UNL     1       2.820  -3.607  -9.063  0.00  0.00    +0.180 C 
BRANCH  17  18
ATOM     18  C   UNL     1       2.839  -5.070  -8.704  0.00  0.00    +0.104 A 
ATOM     19  N   UNL     1       1.976  -5.963  -9.105  0.00  0.00    -0.348 N 
ATOM     20  C   UNL     1       2.303  -7.158  -8.591  0.00  0.00    +0.101 A 
ATOM     21  C   UNL     1       3.411  -6.999  -7.842  0.00  0.00    +0.104 A 
ATOM     22  N   UNL     1       3.755  -5.676  -7.918  0.00  0.00    -0.338 N 
ATOM     23  C   UNL     1       4.900  -5.037  -7.266  0.00  0.00    +0.150 C 
ATOM     24  H   UNL     1       1.217  -5.790  -9.684  0.00  0.00    +0.166 HD
ENDBRANCH  17  18
ENDBRANCH  15  17
ENDBRANCH   7  13
BRANCH   1  26
ATOM     25  C   UNL     1      -2.743   0.742  -1.383  0.00  0.00    +0.027 C 
ATOM     26  C   UNL     1      -1.601   1.638  -1.869  0.00  0.00    +0.124 C 
ENDBRANCH   1  26
TORSDOF 4
