REMARK  Name = ZINC64129943
REMARK  5 active torsions:
REMARK  status: ('A' for Active; 'I' for Inactive)
REMARK    1  A    between atoms: C_4  and  C_7
REMARK    2  A    between atoms: C_7  and  N_8
REMARK    3  A    between atoms: N_11  and  C_14
REMARK    4  A    between atoms: C_14  and  C_15
REMARK    5  A    between atoms: N_17  and  C_18
REMARK                            x       y       z     vdW  Elec       q    Type
REMARK                         _______ _______ _______ _____ _____    ______ ____
ROOT
ATOM      1  N   UNL     1       2.037  -1.942   2.732  0.00  0.00    +0.382 N 
ATOM      2  C   UNL     1       0.835  -2.754   2.507  0.00  0.00    -0.063 C 
ATOM      3  C   UNL     1       1.244  -4.194   2.190  0.00  0.00    +0.066 C 
ATOM      4  N   UNL     1       2.021  -4.738   3.313  0.00  0.00    -0.298 NA
ATOM      5  C   UNL     1       3.215  -3.920   3.566  0.00  0.00    +0.066 C 
ATOM      6  C   UNL     1       2.789  -2.482   3.872  0.00  0.00    -0.063 C 
ATOM      7  H   UNL     1       2.617  -1.963   1.907  0.00  0.00    -0.082 HD
ENDROOT
BRANCH   1   8
ATOM      8  C   UNL     1       1.644  -0.555   3.019  0.00  0.00    -0.075 C 
BRANCH   8  12
ATOM      9  C   UNL     1       4.423   2.670   2.240  0.00  0.00    +0.000 C 
ATOM     10  C   UNL     1       3.748   2.615   3.612  0.00  0.00    +0.000 C 
ATOM     11  C   UNL     1       2.498   1.736   3.531  0.00  0.00    +0.002 C 
ATOM     12  C   UNL     1       2.894   0.323   3.100  0.00  0.00    -0.028 C 
ATOM     13  C   UNL     1       3.569   0.378   1.728  0.00  0.00    +0.002 C 
ATOM     14  C   UNL     1       4.819   1.256   1.809  0.00  0.00    +0.000 C 
ENDBRANCH   8  12
ENDBRANCH   1   8
BRANCH   4  15
ATOM     15  C   UNL     1       2.385  -6.141   3.070  0.00  0.00    +0.180 C 
BRANCH  15  16
ATOM     16  C   UNL     1       2.959  -6.735   4.330  0.00  0.00    +0.228 C 
ATOM     17  O   UNL     1       3.056  -6.058   5.331  0.00  0.00    -0.274 OA
ATOM     18  N   UNL     1       3.366  -8.020   4.344  0.00  0.00    -0.303 N 
ATOM     19  H   UNL     1       3.289  -8.562   3.544  0.00  0.00    +0.149 HD
BRANCH  18  20
ATOM     20  C   UNL     1       3.924  -8.598   5.569  0.00  0.00    +0.159 C 
ATOM     21  C   UNL     1       4.664  -9.896   5.234  0.00  0.00    +0.032 C 
ATOM     22  C   UNL     1       3.970 -10.635   4.105  0.00  0.00    +0.004 C 
ATOM     23  C   UNL     1       2.596 -11.166   4.473  0.00  0.00    +0.019 C 
ATOM     24  C   UNL     1       1.615 -10.018   4.716  0.00  0.00    +0.104 C 
ATOM     25  N   UNL     1       1.729  -9.590   6.120  0.00  0.00    -0.314 N 
ATOM     26  C   UNL     1       2.804  -8.920   6.536  0.00  0.00    +0.233 C 
ATOM     27  O   UNL     1       2.886  -8.568   7.694  0.00  0.00    -0.274 OA
ATOM     28  H   UNL     1       1.017  -9.796   6.745  0.00  0.00    +0.149 HD
ENDBRANCH  18  20
ENDBRANCH  15  16
ENDBRANCH   4  15
TORSDOF 5
