REMARK  Name = ZINC12886008
REMARK  6 active torsions:
REMARK  status: ('A' for Active; 'I' for Inactive)
REMARK    1  A    between atoms: C_1  and  C_2
REMARK    2  A    between atoms: C_16  and  C_18
REMARK    3  A    between atoms: C_18  and  C_19
REMARK    4  A    between atoms: N_24  and  C_27
REMARK    5  A    between atoms: C_27  and  C_28
REMARK    6  A    between atoms: C_28  and  C_29
REMARK                            x       y       z     vdW  Elec       q    Type
REMARK                         _______ _______ _______ _____ _____    ______ ____
ROOT
ATOM      1  C   UNL     1       5.484   5.577  -2.789  0.00  0.00    +0.046 C 
ATOM      2  C   UNL     1       4.491   4.458  -2.610  0.00  0.00    -0.028 A 
ATOM      3  C   UNL     1       4.834   3.170  -2.968  0.00  0.00    +0.025 A 
ATOM      4  C   UNL     1       3.929   2.136  -2.808  0.00  0.00    +0.042 A 
ATOM      5  C   UNL     1       2.673   2.396  -2.284  0.00  0.00    +0.024 A 
ATOM      6  C   UNL     1       2.327   3.679  -1.926  0.00  0.00    -0.026 A 
ATOM      7  C   UNL     1       3.230   4.727  -2.085  0.00  0.00    +0.039 A 
ATOM      8  N   UNL     1       2.656   5.927  -1.657  0.00  0.00    -0.286 N 
ATOM      9  C   UNL     1       1.398   5.757  -1.208  0.00  0.00    +0.211 C 
ATOM     10  O   UNL     1       0.660   6.618  -0.777  0.00  0.00    -0.277 OA
ATOM     11  C   UNL     1       1.085   4.292  -1.345  0.00  0.00    +0.050 C 
ATOM     12  C   UNL     1       0.730   3.667   0.010  0.00  0.00    +0.088 C 
ATOM     13  C   UNL     1      -0.824   3.644   0.034  0.00  0.00    +0.073 C 
ATOM     14  C   UNL     1      -1.251   4.286  -1.303  0.00  0.00    -0.049 C 
ATOM     15  C   UNL     1      -1.153   2.169   0.019  0.00  0.00    +0.224 C 
ATOM     16  O   UNL     1      -2.271   1.700   0.017  0.00  0.00    -0.275 OA
ATOM     17  N   UNL     1      -0.018   1.461   0.010  0.00  0.00    -0.241 N 
ATOM     18  C   UNL     1       1.098   2.200   0.003  0.00  0.00    +0.225 C 
ATOM     19  O   UNL     1       2.228   1.761  -0.007  0.00  0.00    -0.275 OA
ATOM     20 CL   UNL     1       4.366   0.518  -3.261  0.00  0.00    -0.084 Cl
ATOM     21  H   UNL     1       3.111   6.783  -1.681  0.00  0.00    +0.155 HD
ATOM     22  N   UNL     1      -0.087   4.102  -2.174  0.00  0.00    +0.394 N 
ATOM     23  H   UNL     1      -0.089   3.156  -2.573  0.00  0.00    -0.083 HD
ATOM     24  H   UNL     1      -0.099   4.793  -2.933  0.00  0.00    -0.083 HD
ENDROOT
BRANCH  14  25
ATOM     25  C   UNL     1      -2.486   3.577  -1.863  0.00  0.00    +0.080 C 
BRANCH  25  26
ATOM     26  C   UNL     1      -2.958   4.295  -3.101  0.00  0.00    +0.209 C 
ATOM     27  O   UNL     1      -2.366   5.276  -3.497  0.00  0.00    -0.276 OA
ATOM     28  N   UNL     1      -4.039   3.845  -3.769  0.00  0.00    -0.329 N 
ATOM     29  H   UNL     1      -4.513   3.061  -3.453  0.00  0.00    +0.145 HD
ATOM     30  H   UNL     1      -4.343   4.307  -4.566  0.00  0.00    +0.145 HD
ENDBRANCH  25  26
ENDBRANCH  14  25
BRANCH  17  31
ATOM     31  C   UNL     1       0.002  -0.004   0.002  0.00  0.00    +0.121 C 
BRANCH  31  32
ATOM     32  C   UNL     1       0.023  -0.522   1.442  0.00  0.00    +0.054 C 
BRANCH  32  33
ATOM     33  C   UNL     1       0.043  -2.029   1.433  0.00  0.00    -0.046 A 
ATOM     34  C   UNL     1      -1.144  -2.736   1.447  0.00  0.00    +0.004 A 
ATOM     35  C   UNL     1      -1.126  -4.118   1.434  0.00  0.00    +0.000 A 
ATOM     36  C   UNL     1       0.081  -4.793   1.419  0.00  0.00    +0.000 A 
ATOM     37  C   UNL     1       1.268  -4.086   1.411  0.00  0.00    +0.000 A 
ATOM     38  C   UNL     1       1.250  -2.703   1.418  0.00  0.00    +0.004 A 
ENDBRANCH  32  33
ENDBRANCH  31  32
ENDBRANCH  17  31
TORSDOF 5
