REMARK  Name = ZINC04277721
REMARK  5 active torsions:
REMARK  status: ('A' for Active; 'I' for Inactive)
REMARK    1  A    between atoms: C_1  and  S_2
REMARK    2  A    between atoms: S_2  and  N_5
REMARK    3  A    between atoms: CA_15  and  CB_19
REMARK    4  A    between atoms: CB_19  and  CG_20
REMARK    5  A    between atoms: CZ_23  and  OH_26
REMARK                            x       y       z     vdW  Elec       q    Type
REMARK                         _______ _______ _______ _____ _____    ______ ____
ROOT
ATOM      1  N   UNK A   1      -2.155   1.575  -1.068  0.00  0.00    -0.178 NA
ATOM      2  C   UNK A   1      -0.709   1.570  -1.250  0.00  0.00    +0.128 C 
ATOM      3  C   UNK A   1      -0.013   1.086   0.008  0.00  0.00    +0.126 C 
ATOM      4  N   UNK A   1      -0.655   1.535   1.228  0.00  0.00    -0.286 N 
ATOM      5  C   UNK A   1      -1.983   2.102   1.335  0.00  0.00    +0.177 C 
ATOM      6  C   UNK A   1      -2.764   2.255   0.063  0.00  0.00    +0.141 C 
ATOM      7  C   UNK A   1      -2.748   1.381   2.417  0.00  0.00    +0.235 C 
ATOM      8  O   UNK A   1      -3.887   0.997   2.254  0.00  0.00    -0.274 OA
ATOM      9  N   TYR A   2      -2.080   1.189   3.592  0.00  0.00    -0.302 N 
ATOM     10  CA  TYR A   2      -0.715   1.737   3.680  0.00  0.00    +0.163 C 
ATOM     11  C   TYR A   2       0.028   1.379   2.409  0.00  0.00    +0.237 C 
ATOM     12  O   TYR A   2       1.170   0.973   2.435  0.00  0.00    -0.274 OA
ATOM     13  H   TYR A   2      -2.486   0.714   4.335  0.00  0.00    +0.150 HD
ENDROOT
BRANCH   1  15
ATOM     14  C   UNK A   1      -3.276  -0.897  -1.528  0.00  0.00    +0.215 C 
ATOM     15  S   UNK A   1      -3.119   0.794  -2.166  0.00  0.00    +0.029 S 
ATOM     16  O   UNK A   1      -4.370   1.463  -2.091  0.00  0.00    -0.158 OA
ATOM     17  O   UNK A   1      -2.368   0.794  -3.372  0.00  0.00    -0.158 OA
ENDBRANCH   1  15
BRANCH  10  18
ATOM     18  CB  TYR A   2       0.006   1.132   4.886  0.00  0.00    +0.067 C 
BRANCH  18  19
ATOM     19  CG  TYR A   2      -0.679   1.572   6.154  0.00  0.00    -0.045 A 
ATOM     20  CD2 TYR A   2      -0.275   2.731   6.792  0.00  0.00    +0.007 A 
ATOM     21  CE2 TYR A   2      -0.906   3.139   7.951  0.00  0.00    +0.045 A 
ATOM     22  CZ  TYR A   2      -1.939   2.380   8.481  0.00  0.00    +0.117 A 
ATOM     23  CE1 TYR A   2      -2.339   1.215   7.843  0.00  0.00    +0.045 A 
ATOM     24  CD1 TYR A   2      -1.709   0.814   6.681  0.00  0.00    +0.007 A 
BRANCH  22  25
ATOM     25  OH  TYR A   2      -2.558   2.777   9.624  0.00  0.00    -0.507 OA
ATOM     26  HH  TYR A   2      -2.153   2.430  10.431  0.00  0.00    +0.292 HD
ENDBRANCH  22  25
ENDBRANCH  18  19
ENDBRANCH  10  18
TORSDOF 4
