REMARK  Name = ZINC62746404
REMARK  7 active torsions:
REMARK  status: ('A' for Active; 'I' for Inactive)
REMARK    1  A    between atoms: C_1  and  C_2
REMARK    2  A    between atoms: C_2  and  C_4
REMARK    3  A    between atoms: C_2  and  N_21
REMARK    4  A    between atoms: C_9  and  O_10
REMARK    5  A    between atoms: O_10  and  C_11
REMARK    6  A    between atoms: C_11  and  C_12
REMARK    7  A    between atoms: N_21  and  C_22
REMARK                            x       y       z     vdW  Elec       q    Type
REMARK                         _______ _______ _______ _____ _____    ______ ____
ROOT
ATOM      1  C   UNL     1       0.707  -0.490  -1.238  0.00  0.00    -0.020 A 
ATOM      2  C   UNL     1       2.024  -0.904  -1.167  0.00  0.00    +0.008 A 
ATOM      3  C   UNL     1       2.672  -1.351  -2.303  0.00  0.00    +0.039 A 
ATOM      4  C   UNL     1       2.004  -1.384  -3.515  0.00  0.00    +0.127 A 
ATOM      5  C   UNL     1       0.686  -0.970  -3.591  0.00  0.00    +0.084 A 
ATOM      6  C   UNL     1       0.034  -0.527  -2.450  0.00  0.00    +0.125 A 
ATOM      7  F   UNL     1       2.640  -1.820  -4.625  0.00  0.00    -0.205 F 
ENDROOT
BRANCH   1   9
ATOM      8  C   UNL     1      -0.019   1.526   0.010  0.00  0.00    -0.009 C 
ATOM      9  C   UNL     1       0.002  -0.004   0.002  0.00  0.00    -0.041 C 
BRANCH   9  10
ATOM     10  N   UNL     1       0.713  -0.491   1.192  0.00  0.00    +0.382 N 
ATOM     11  C   UNL     1      -0.040  -0.119   2.398  0.00  0.00    -0.100 C 
ATOM     12  H   UNL     1       0.798  -1.495   1.145  0.00  0.00    -0.085 HD
ATOM     13  H   UNL     1       1.632  -0.076   1.228  0.00  0.00    -0.085 HD
ENDBRANCH   9  10
ENDBRANCH   1   9
BRANCH   6  14
ATOM     14  O   UNL     1      -1.263  -0.125  -2.520  0.00  0.00    -0.487 OA
BRANCH  14  15
ATOM     15  C   UNL     1      -1.894  -0.190  -3.801  0.00  0.00    +0.267 C 
BRANCH  15  16
ATOM     16  C   UNL     1      -3.317   0.292  -3.685  0.00  0.00    +0.026 A 
ATOM     17  C   UNL     1      -3.807   0.712  -2.462  0.00  0.00    +0.025 A 
ATOM     18  C   UNL     1      -5.113   1.154  -2.356  0.00  0.00    +0.018 A 
ATOM     19  C   UNL     1      -5.929   1.177  -3.472  0.00  0.00    +0.018 A 
ATOM     20  C   UNL     1      -5.441   0.758  -4.695  0.00  0.00    +0.040 A 
ATOM     21  C   UNL     1      -4.132   0.320  -4.803  0.00  0.00    +0.130 A 
ATOM     22  F   UNL     1      -3.651  -0.085  -6.000  0.00  0.00    -0.205 F 
ATOM     23 BR   UNL     1      -5.783   1.728  -0.683  0.00  0.00    -0.050 Br
ENDBRANCH  15  16
ENDBRANCH  14  15
ENDBRANCH   6  14
TORSDOF 5
