REMARK  Name = ZINC44334266
REMARK  9 active torsions:
REMARK  status: ('A' for Active; 'I' for Inactive)
REMARK    1  A    between atoms: C_1  and  C_2
REMARK    2  A    between atoms: C_5  and  C_8
REMARK    3  A    between atoms: C_9  and  C_18
REMARK    4  A    between atoms: C_13  and  C_17
REMARK    5  A    between atoms: C_18  and  C_19
REMARK    6  A    between atoms: C_19  and  C_21
REMARK    7  A    between atoms: C_19  and  N_25
REMARK    8  A    between atoms: C_21  and  O_23
REMARK    9  A    between atoms: O_23  and  C_24
REMARK                            x       y       z     vdW  Elec       q    Type
REMARK                         _______ _______ _______ _____ _____    ______ ____
ROOT
ATOM      1  C   UNL     1      -0.193  -4.489  -0.342  0.00  0.00    +0.068 A 
ATOM      2  C   UNL     1      -0.691  -5.181   0.720  0.00  0.00    +0.051 A 
ATOM      3  N   UNL     1      -0.277  -6.477   0.585  0.00  0.00    -0.304 N 
ATOM      4  C   UNL     1      -0.479  -7.592   1.348  0.00  0.00    +0.093 A 
ATOM      5  C   UNL     1       0.052  -8.778   0.985  0.00  0.00    +0.021 A 
ATOM      6  C   UNL     1       0.820  -8.882  -0.186  0.00  0.00    -0.046 A 
ATOM      7  C   UNL     1       1.029  -7.780  -0.956  0.00  0.00    +0.048 A 
ATOM      8  C   UNL     1       0.469  -6.547  -0.564  0.00  0.00    +0.116 A 
ATOM      9  N   UNL     1       0.503  -5.342  -1.111  0.00  0.00    -0.339 N 
ATOM     10  C   UNL     1       1.411 -10.209  -0.589  0.00  0.00    +0.044 C 
ATOM     11  H   UNL     1       0.961  -5.111  -1.935  0.00  0.00    +0.167 HD
ENDROOT
BRANCH   1  16
ATOM     12  C   UNL     1      -0.965   1.125  -1.371  0.00  0.00    +0.044 C 
ATOM     13  C   UNL     1      -0.763  -0.344  -1.102  0.00  0.00    -0.050 A 
ATOM     14  C   UNL     1      -0.970  -1.265  -2.113  0.00  0.00    +0.004 A 
ATOM     15  C   UNL     1      -0.786  -2.612  -1.872  0.00  0.00    +0.010 A 
ATOM     16  C   UNL     1      -0.392  -3.043  -0.607  0.00  0.00    +0.000 A 
ATOM     17  C   UNL     1      -0.184  -2.111   0.408  0.00  0.00    +0.010 A 
ATOM     18  C   UNL     1      -0.366  -0.767   0.154  0.00  0.00    +0.004 A 
ENDBRANCH   1  16
BRANCH   2  19
ATOM     19  C   UNL     1      -1.538  -4.624   1.835  0.00  0.00    +0.085 C 
BRANCH  19  20
ATOM     20  C   UNL     1      -3.006  -4.609   1.402  0.00  0.00    +0.167 C 
BRANCH  20  21
ATOM     21  N   UNL     1      -3.464  -5.987   1.179  0.00  0.00    -0.318 NA
ATOM     22  H   UNL     1      -2.977  -6.409   0.402  0.00  0.00    +0.119 HD
ATOM     23  H   UNL     1      -3.360  -6.543   2.015  0.00  0.00    +0.119 HD
ENDBRANCH  20  21
BRANCH  20  24
ATOM     24  C   UNL     1      -3.841  -3.971   2.481  0.00  0.00    +0.324 C 
ATOM     25  O   UNL     1      -4.464  -4.663   3.252  0.00  0.00    -0.249 OA
BRANCH  24  26
ATOM     26  O   UNL     1      -3.894  -2.634   2.587  0.00  0.00    -0.467 OA
ATOM     27  C   UNL     1      -4.707  -2.097   3.633  0.00  0.00    +0.280 C 
ENDBRANCH  24  26
ENDBRANCH  20  24
ENDBRANCH  19  20
ENDBRANCH   2  19
TORSDOF 6
