REMARK  Name = ZINC64886645
REMARK  11 active torsions:
REMARK  status: ('A' for Active; 'I' for Inactive)
REMARK    1  A    between atoms: C_1  and  C_2
REMARK    2  A    between atoms: C_2  and  C_3
REMARK    3  A    between atoms: C_3  and  C_4
REMARK    4  A    between atoms: C_5  and  C_24
REMARK    5  A    between atoms: C_7  and  C_9
REMARK    6  A    between atoms: N_11  and  N_12
REMARK    7  A    between atoms: N_15  and  C_16
REMARK    8  A    between atoms: C_16  and  C_17
REMARK    9  A    between atoms: C_17  and  C_18
REMARK   10  A    between atoms: C_18  and  N_19
REMARK   11  A    between atoms: C_24  and  C_25
REMARK                            x       y       z     vdW  Elec       q    Type
REMARK                         _______ _______ _______ _____ _____    ______ ____
ROOT
ATOM      1  N   UNL     1       3.317  -7.412   0.134  0.00  0.00    -0.218 N 
ATOM      2  C   UNL     1       4.478  -7.584   0.795  0.00  0.00    +0.316 C 
ATOM      3  O   UNL     1       4.892  -8.705   1.016  0.00  0.00    -0.251 OA
ATOM      4  N   UNL     1       5.182  -6.512   1.212  0.00  0.00    -0.298 N 
ATOM      5  H   UNL     1       2.810  -8.183  -0.166  0.00  0.00    +0.174 HD
ATOM      6  H   UNL     1       4.852  -5.617   1.035  0.00  0.00    +0.150 HD
ENDROOT
BRANCH   1   9
ATOM      7  C   UNL     1       1.679  -5.947  -0.782  0.00  0.00    +0.267 C 
ATOM      8  O   UNL     1       1.043  -6.915  -1.158  0.00  0.00    -0.268 OA
ATOM      9  N   UNL     1       2.840  -6.119  -0.120  0.00  0.00    -0.229 N 
ATOM     10  H   UNL     1       3.346  -5.348   0.179  0.00  0.00    +0.173 HD
BRANCH   7  14
ATOM     11  C   UNL     1       0.739  -2.004  -1.265  0.00  0.00    -0.006 A 
ATOM     12  C   UNL     1      -0.179  -2.847  -1.801  0.00  0.00    -0.037 A 
ATOM     13  C   UNL     1       0.023  -4.203  -1.704  0.00  0.00    +0.024 A 
ATOM     14  C   UNL     1       1.180  -4.595  -1.048  0.00  0.00    +0.076 A 
ATOM     15  S   UNL     1       1.907  -3.024  -0.619  0.00  0.00    -0.088 S 
BRANCH  12  16
ATOM     16  C   UNL     1      -1.403  -2.304  -2.492  0.00  0.00    +0.032 C 
ATOM     17  C   UNL     1      -1.066  -1.986  -3.950  0.00  0.00    +0.009 C 
ENDBRANCH  12  16
BRANCH  11  18
ATOM     18  C   UNL     1       0.718  -0.497  -1.257  0.00  0.00    +0.042 C 
BRANCH  18  20
ATOM     19  C   UNL     1      -0.019   1.526   0.010  0.00  0.00    +0.004 C 
ATOM     20  C   UNL     1       0.002  -0.004   0.002  0.00  0.00    +0.002 C 
ENDBRANCH  18  20
ENDBRANCH  11  18
ENDBRANCH   7  14
ENDBRANCH   1   9
BRANCH   4  21
ATOM     21  C   UNL     1       6.445  -6.699   1.930  0.00  0.00    +0.107 C 
BRANCH  21  22
ATOM     22  C   UNL     1       7.036  -5.333   2.287  0.00  0.00    +0.040 C 
BRANCH  22  23
ATOM     23  C   UNL     1       8.355  -5.529   3.037  0.00  0.00    +0.124 C 
BRANCH  23  24
ATOM     24  N   UNL     1       8.921  -4.221   3.378  0.00  0.00    -0.338 N 
ATOM     25  C   UNL     1       9.776  -3.480   2.608  0.00  0.00    +0.104 A 
ATOM     26  C   UNL     1      10.044  -2.354   3.296  0.00  0.00    +0.101 A 
ATOM     27  N   UNL     1       9.370  -2.405   4.455  0.00  0.00    -0.352 N 
ATOM     28  C   UNL     1       8.691  -3.519   4.508  0.00  0.00    +0.173 A 
ATOM     29  H   UNL     1       9.382  -1.721   5.142  0.00  0.00    +0.166 HD
ENDBRANCH  23  24
ENDBRANCH  22  23
ENDBRANCH  21  22
ENDBRANCH   4  21
TORSDOF 9
