REMARK  Name = ZINC62246003
REMARK  5 active torsions:
REMARK  status: ('A' for Active; 'I' for Inactive)
REMARK    1  A    between atoms: C_1  and  C_2
REMARK    2  A    between atoms: C_5  and  N_9
REMARK    3  A    between atoms: C_6  and  C_8
REMARK    4  A    between atoms: C_10  and  C_17
REMARK    5  A    between atoms: C_11  and  C_14
REMARK                            x       y       z     vdW  Elec       q    Type
REMARK                         _______ _______ _______ _____ _____    ______ ____
ROOT
ATOM      1  N   UNL     1       0.507  -4.207  -0.238  0.00  0.00    -0.216 N 
ATOM      2  C   UNL     1      -0.135  -5.110  -1.013  0.00  0.00    +0.074 A 
ATOM      3  C   UNL     1       0.418  -6.329  -0.739  0.00  0.00    +0.170 A 
ATOM      4  N   UNL     1       1.378  -6.162   0.187  0.00  0.00    -0.124 NA
ATOM      5  N   UNL     1       1.463  -4.917   0.502  0.00  0.00    -0.060 NA
ATOM      6  C   UNL     1      -1.246  -4.826  -1.990  0.00  0.00    +0.068 C 
ENDROOT
BRANCH   1  11
ATOM      7  C   UNL     1      -0.467   1.381  -0.040  0.00  0.00    +0.044 C 
ATOM      8  C   UNL     1      -0.208  -0.103  -0.092  0.00  0.00    -0.050 A 
ATOM      9  C   UNL     1      -0.085  -0.739  -1.314  0.00  0.00    +0.005 A 
ATOM     10  C   UNL     1       0.152  -2.099  -1.366  0.00  0.00    +0.028 A 
ATOM     11  C   UNL     1       0.267  -2.827  -0.189  0.00  0.00    +0.070 A 
ATOM     12  C   UNL     1       0.143  -2.186   1.036  0.00  0.00    -0.025 A 
ATOM     13  C   UNL     1      -0.089  -0.825   1.081  0.00  0.00    +0.008 A 
ATOM     14  C   UNL     1       0.266  -2.973   2.315  0.00  0.00    +0.046 C 
ENDBRANCH   1  11
BRANCH   3  15
ATOM     15  C   UNL     1       0.027  -7.611  -1.355  0.00  0.00    +0.263 C 
ATOM     16  O   UNL     1      -0.860  -7.640  -2.186  0.00  0.00    -0.269 OA
ATOM     17  N   UNL     1       0.653  -8.749  -0.997  0.00  0.00    -0.324 N 
ATOM     18  H   UNL     1       1.361  -8.726  -0.334  0.00  0.00    +0.145 HD
ATOM     19  H   UNL     1       0.396  -9.592  -1.402  0.00  0.00    +0.145 HD
ENDBRANCH   3  15
TORSDOF 2
