REMARK  Name = ZINC36296376
REMARK  7 active torsions:
REMARK  status: ('A' for Active; 'I' for Inactive)
REMARK    1  A    between atoms: C_1  and  C_2
REMARK    2  A    between atoms: C_3  and  N_21
REMARK    3  A    between atoms: C_7  and  N_8
REMARK    4  A    between atoms: N_8  and  S_9
REMARK    5  A    between atoms: S_9  and  C_12
REMARK    6  A    between atoms: C_15  and  O_19
REMARK    7  A    between atoms: O_19  and  C_20
REMARK                            x       y       z     vdW  Elec       q    Type
REMARK                         _______ _______ _______ _____ _____    ______ ____
ROOT
ATOM      1  N   UNL     1       0.026  -0.016   2.413  0.00  0.00    -0.216 N 
ATOM      2  H   UNL     1      -0.522   0.779   2.510  0.00  0.00    +0.174 HD
ENDROOT
BRANCH   1   9
ATOM      3  C   UNL     1       0.153   1.691   0.143  0.00  0.00    +0.047 C 
ATOM      4  C   UNL     1       0.258   0.193   0.022  0.00  0.00    -0.007 A 
ATOM      5  C   UNL     1       0.428  -0.394  -1.224  0.00  0.00    +0.029 A 
ATOM      6  C   UNL     1       0.525  -1.776  -1.332  0.00  0.00    +0.023 A 
ATOM      7  C   UNL     1       0.452  -2.566  -0.201  0.00  0.00    +0.004 A 
ATOM      8  C   UNL     1       0.282  -1.985   1.041  0.00  0.00    +0.025 A 
ATOM      9  C   UNL     1       0.191  -0.603   1.157  0.00  0.00    +0.053 A 
BRANCH   5  10
ATOM     10  N   UNL     1       0.502   0.404  -2.368  0.00  0.00    -0.358 N 
ATOM     11  H   UNL     1       0.434   1.369  -2.292  0.00  0.00    +0.142 HD
ATOM     12  H   UNL     1       0.621  -0.006  -3.239  0.00  0.00    +0.142 HD
ENDBRANCH   5  10
ENDBRANCH   1   9
BRANCH   1  13
ATOM     13  S   UNL     1       0.764  -0.678   3.740  0.00  0.00    +0.072 S 
ATOM     14  O   UNL     1       0.520   0.207   4.824  0.00  0.00    -0.150 OA
ATOM     15  O   UNL     1       0.387  -2.048   3.774  0.00  0.00    -0.150 OA
BRANCH  13  16
ATOM     16  C   UNL     1       2.501  -0.641   3.441  0.00  0.00    +0.110 A 
ATOM     17  C   UNL     1       3.116  -1.709   2.814  0.00  0.00    +0.032 A 
ATOM     18  C   UNL     1       4.477  -1.683   2.579  0.00  0.00    +0.048 A 
ATOM     19  C   UNL     1       5.227  -0.585   2.973  0.00  0.00    +0.134 A 
ATOM     20  C   UNL     1       4.607   0.486   3.602  0.00  0.00    +0.061 A 
ATOM     21  C   UNL     1       3.244   0.457   3.830  0.00  0.00    +0.047 A 
ATOM     22 BR   UNL     1       5.626   1.985   4.141  0.00  0.00    -0.046 Br
BRANCH  19  23
ATOM     23  O   UNL     1       6.566  -0.558   2.743  0.00  0.00    -0.494 OA
ATOM     24  C   UNL     1       7.136  -1.695   2.091  0.00  0.00    +0.277 C 
ENDBRANCH  19  23
ENDBRANCH  13  16
ENDBRANCH   1  13
TORSDOF 5
