REMARK  Name = ZINC63783165
REMARK  5 active torsions:
REMARK  status: ('A' for Active; 'I' for Inactive)
REMARK    1  A    between atoms: C_1  and  N_2
REMARK    2  A    between atoms: C_3  and  C_14
REMARK    3  A    between atoms: N_16  and  C_17
REMARK    4  A    between atoms: C_17  and  C_18
REMARK    5  A    between atoms: C_18  and  C_19
REMARK                            x       y       z     vdW  Elec       q    Type
REMARK                         _______ _______ _______ _____ _____    ______ ____
ROOT
ATOM      1  C   UNL     1      -1.690  -1.000  -1.417  0.00  0.00    +0.252 C 
ATOM      2  O   UNL     1      -0.897  -0.862  -2.324  0.00  0.00    -0.272 OA
ATOM      3  N   UNL     1      -2.954  -1.388  -1.680  0.00  0.00    -0.312 N 
ATOM      4  H   UNL     1      -3.588  -1.499  -0.955  0.00  0.00    +0.149 HD
ENDROOT
BRANCH   1   7
ATOM      5  C   UNL     1      -0.018   1.461   0.010  0.00  0.00    +0.134 C 
ATOM      6  N   UNL     1       0.002  -0.004   0.002  0.00  0.00    -0.274 N 
ATOM      7  C   UNL     1      -1.262  -0.739   0.004  0.00  0.00    +0.249 C 
ATOM      8  N   UNL     1      -1.105  -2.020   0.704  0.00  0.00    -0.318 N 
ATOM      9  C   UNL     1       0.022  -2.788   0.438  0.00  0.00    +0.041 A 
ATOM     10  C   UNL     1       0.006  -4.169   0.527  0.00  0.00    +0.024 A 
ATOM     11  C   UNL     1       1.155  -4.886   0.249  0.00  0.00    +0.002 A 
ATOM     12  C   UNL     1       2.321  -4.233  -0.119  0.00  0.00    +0.001 A 
ATOM     13  C   UNL     1       2.354  -2.857  -0.212  0.00  0.00    +0.015 A 
ATOM     14  C   UNL     1       1.204  -2.122   0.068  0.00  0.00    +0.058 A 
ATOM     15  C   UNL     1       1.186  -0.650  -0.013  0.00  0.00    +0.250 C 
ATOM     16  O   UNL     1       2.227  -0.025  -0.087  0.00  0.00    -0.270 OA
ATOM     17  H   UNL     1      -1.774  -2.324   1.338  0.00  0.00    +0.148 HD
ENDBRANCH   1   7
BRANCH   3  18
ATOM     18  C   UNL     1      -3.370  -1.642  -3.062  0.00  0.00    +0.108 C 
BRANCH  18  19
ATOM     19  C   UNL     1      -4.840  -2.065  -3.082  0.00  0.00    +0.052 C 
BRANCH  19  20
ATOM     20  C   UNL     1      -5.268  -2.326  -4.504  0.00  0.00    -0.040 C 
ATOM     21  C   UNL     1      -5.295  -3.520  -5.138  0.00  0.00    -0.001 A 
ATOM     22  C   UNL     1      -4.947  -4.881  -4.712  0.00  0.00    +0.010 A 
ATOM     23  C   UNL     1      -5.081  -5.899  -5.592  0.00  0.00    +0.001 A 
ATOM     24  C   UNL     1      -5.543  -5.687  -6.899  0.00  0.00    +0.002 A 
ATOM     25  C   UNL     1      -5.882  -4.466  -7.363  0.00  0.00    +0.026 A 
ATOM     26  C   UNL     1      -5.781  -3.323  -6.523  0.00  0.00    +0.043 A 
ATOM     27  N   UNL     1      -6.043  -2.057  -6.736  0.00  0.00    -0.380 N 
ATOM     28  C   UNL     1      -5.759  -1.307  -5.507  0.00  0.00    +0.144 C 
ATOM     29  H   UNL     1      -6.374  -1.679  -7.566  0.00  0.00    +0.160 HD
ENDBRANCH  19  20
ENDBRANCH  18  19
ENDBRANCH   3  18
TORSDOF 4
