REMARK  Name = ZINC52069498
REMARK  2 active torsions:
REMARK  status: ('A' for Active; 'I' for Inactive)
REMARK    1  A    between atoms: C_1  and  N_2
REMARK    2  A    between atoms: N_5  and  C_6
REMARK                            x       y       z     vdW  Elec       q    Type
REMARK                         _______ _______ _______ _____ _____    ______ ____
ROOT
ATOM      1  C   UNL     1      -2.412  -2.716  -0.044  0.00  0.00    +0.045 A 
ATOM      2  C   UNL     1      -3.567  -1.966  -0.213  0.00  0.00    +0.029 A 
ATOM      3  C   UNL     1      -4.799  -2.592  -0.257  0.00  0.00    +0.052 A 
ATOM      4  C   UNL     1      -4.883  -3.969  -0.134  0.00  0.00    +0.173 A 
ATOM      5  C   UNL     1      -3.726  -4.724   0.035  0.00  0.00    +0.175 A 
ATOM      6  C   UNL     1      -2.491  -4.097   0.074  0.00  0.00    +0.075 A 
ATOM      7  O   UNL     1      -4.074  -6.041   0.131  0.00  0.00    -0.395 OA
ATOM      8  C   UNL     1      -5.482  -6.046   0.429  0.00  0.00    +0.589 C 
ATOM      9  O   UNL     1      -5.957  -4.813  -0.144  0.00  0.00    -0.395 OA
ATOM     10  F   UNL     1      -6.108  -7.142  -0.174  0.00  0.00    -0.125 F 
ATOM     11  F   UNL     1      -5.692  -6.058   1.812  0.00  0.00    -0.125 F 
ENDROOT
BRANCH   1  16
ATOM     12  C   UNL     1      -1.911   0.861   2.159  0.00  0.00    +0.142 C 
ATOM     13  N   UNL     1      -2.065  -0.401   1.431  0.00  0.00    -0.361 N 
ATOM     14  C   UNL     1      -1.020  -0.895   0.685  0.00  0.00    +0.173 C 
ATOM     15  N   UNL     1       0.106  -0.242   0.627  0.00  0.00    -0.371 N 
ATOM     16  N   UNL     1      -1.164  -2.080   0.001  0.00  0.00    -0.328 N 
ATOM     17  H   UNL     1      -2.903  -0.887   1.474  0.00  0.00    +0.162 HD
ATOM     18  H   UNL     1       0.867  -0.626   0.164  0.00  0.00    +0.159 HD
ATOM     19  H   UNL     1      -0.402  -2.475  -0.451  0.00  0.00    +0.169 HD
ATOM     20  H   UNL     1       0.184   0.629   1.047  0.00  0.00    +0.159 HD
ENDBRANCH   1  16
TORSDOF 1
