REMARK  Name = ZINC20357389
REMARK  8 active torsions:
REMARK  status: ('A' for Active; 'I' for Inactive)
REMARK    1  A    between atoms: C_1  and  C_2
REMARK    2  A    between atoms: C_5  and  N_8
REMARK    3  A    between atoms: N_10  and  C_11
REMARK    4  A    between atoms: C_13  and  C_19
REMARK    5  A    between atoms: C_13  and  C_20
REMARK    6  A    between atoms: C_15  and  C_17
REMARK    7  A    between atoms: C_15  and  C_18
REMARK    8  A    between atoms: C_25  and  C_27
REMARK                            x       y       z     vdW  Elec       q    Type
REMARK                         _______ _______ _______ _____ _____    ______ ____
ROOT
ATOM      1  N   UNL     1       3.281   3.784  -0.100  0.00  0.00    -0.286 N 
ATOM      2  C   UNL     1       2.028   4.172  -0.145  0.00  0.00    +0.186 C 
ATOM      3  N   UNL     1       1.714   5.499   0.013  0.00  0.00    -0.355 N 
ATOM      4  N   UNL     1       1.029   3.248  -0.350  0.00  0.00    -0.237 N 
ATOM      5  C   UNL     1       0.580   2.724  -1.542  0.00  0.00    +0.140 A 
ATOM      6  N   UNL     1       1.104   3.084  -2.696  0.00  0.00    -0.283 NA
ATOM      7  C   UNL     1      -0.455   1.795  -1.467  0.00  0.00    +0.058 A 
ATOM      8  C   UNL     1      -0.926   1.497  -0.235  0.00  0.00    +0.007 A 
ATOM      9  S   UNL     1       0.046   2.473   0.813  0.00  0.00    -0.008 S 
ATOM     10  C   UNL     1      -2.032   0.543   0.136  0.00  0.00    +0.053 C 
ATOM     11  H   UNL     1       0.664   5.824  -0.025  0.00  0.00    +0.163 HD
ATOM     12  H   UNL     1       0.821   2.647  -3.515  0.00  0.00    +0.188 HD
ATOM     13  H   UNL     1       4.076   4.515   0.110  0.00  0.00    +0.155 HD
ENDROOT
BRANCH   3  14
ATOM     14  C   UNL     1       2.780   6.485   0.231  0.00  0.00    +0.079 C 
ATOM     15  C   UNL     1       3.095   6.562   1.725  0.00  0.00    +0.011 C 
ATOM     16  C   UNL     1       4.186   7.598   1.985  0.00  0.00    -0.071 C 
ATOM     17  N   UNL     1       3.926   8.868   1.341  0.00  0.00    +0.386 N 
ATOM     18  C   UNL     1       3.381   8.909   0.000  0.00  0.00    -0.071 C 
ATOM     19  C   UNL     1       2.299   7.858  -0.235  0.00  0.00    +0.011 C 
ATOM     20  C   UNL     1       4.487   8.750  -1.051  0.00  0.00    -0.010 C 
ATOM     21  C   UNL     1       2.739  10.296  -0.218  0.00  0.00    -0.010 C 
ATOM     22  C   UNL     1       5.545   7.029   1.558  0.00  0.00    -0.010 C 
ATOM     23  C   UNL     1       4.249   7.834   3.511  0.00  0.00    -0.010 C 
ATOM     24  H   UNL     1       3.198   9.439   1.938  0.00  0.00    -0.084 HD
ATOM     25  H   UNL     1       4.863   9.438   1.262  0.00  0.00    -0.084 HD
ENDBRANCH   3  14
BRANCH   1  30
ATOM     26  C   UNL     1       4.594  -1.635  -0.985  0.00  0.00    +0.044 C 
ATOM     27  C   UNL     1       4.244  -0.189  -0.749  0.00  0.00    -0.050 A 
ATOM     28  C   UNL     1       4.794   0.793  -1.553  0.00  0.00    +0.005 A 
ATOM     29  C   UNL     1       4.477   2.119  -1.343  0.00  0.00    +0.023 A 
ATOM     30  C   UNL     1       3.599   2.470  -0.315  0.00  0.00    +0.034 A 
ATOM     31  C   UNL     1       3.052   1.474   0.497  0.00  0.00    +0.023 A 
ATOM     32  C   UNL     1       3.373   0.151   0.271  0.00  0.00    +0.005 A 
ENDBRANCH   1  30
TORSDOF 2
