REMARK  Name = ZINC43285956
REMARK  9 active torsions:
REMARK  status: ('A' for Active; 'I' for Inactive)
REMARK    1  A    between atoms: C_1  and  C_2
REMARK    2  A    between atoms: C_2  and  C_3
REMARK    3  A    between atoms: C_3  and  C_5
REMARK    4  A    between atoms: C_3  and  N_22
REMARK    5  A    between atoms: C_5  and  C_7
REMARK    6  A    between atoms: C_5  and  N_13
REMARK    7  A    between atoms: C_16  and  N_19
REMARK    8  A    between atoms: N_19  and  C_20
REMARK    9  A    between atoms: N_19  and  C_21
REMARK                            x       y       z     vdW  Elec       q    Type
REMARK                         _______ _______ _______ _____ _____    ______ ____
ROOT
ATOM      1  C   UNL     1       0.655  -2.037   1.299  0.00  0.00    +0.079 C 
ENDROOT
BRANCH   1   2
ATOM      2  C   UNL     1      -0.662  -2.727   1.053  0.00  0.00    +0.006 A 
ATOM      3  C   UNL     1      -1.247  -3.055  -0.125  0.00  0.00    +0.028 A 
ATOM      4  C   UNL     1      -2.473  -3.693  -0.110  0.00  0.00    +0.025 A 
ATOM      5  C   UNL     1      -3.054  -3.971   1.083  0.00  0.00    +0.060 A 
ATOM      6  S   UNL     1      -1.852  -3.333   2.237  0.00  0.00    -0.099 S 
ATOM      7 BR   UNL     1      -3.328  -4.168  -1.729  0.00  0.00    -0.050 Br
ENDBRANCH   1   2
BRANCH   1   8
ATOM      8  N   UNL     1       1.434  -2.804   2.280  0.00  0.00    -0.297 NA
ATOM      9  C   UNL     1       0.796  -2.769   3.602  0.00  0.00    +0.083 C 
ATOM     10  C   UNL     1       1.704  -3.452   4.627  0.00  0.00    +0.000 C 
ATOM     11  C   UNL     1       1.952  -4.901   4.197  0.00  0.00    -0.067 C 
ATOM     12  C   UNL     1       2.572  -4.911   2.797  0.00  0.00    +0.000 C 
ATOM     13  C   UNL     1       1.639  -4.186   1.825  0.00  0.00    +0.083 C 
BRANCH  11  14
ATOM     14  N   UNL     1       2.870  -5.544   5.146  0.00  0.00    +0.378 N 
ATOM     15  C   UNL     1       2.277  -5.527   6.490  0.00  0.00    -0.096 C 
ATOM     16  C   UNL     1       3.107  -6.934   4.733  0.00  0.00    -0.096 C 
ATOM     17  H   UNL     1       3.746  -5.043   5.159  0.00  0.00    -0.082 HD
ENDBRANCH  11  14
ENDBRANCH   1   8
BRANCH   1  18
ATOM     18  C   UNL     1       0.400  -0.629   1.839  0.00  0.00    -0.053 C 
BRANCH  18  19
ATOM     19  N   UNL     1       1.684   0.044   2.079  0.00  0.00    +0.381 N 
ATOM     20  H   UNL     1       1.516   0.973   2.435  0.00  0.00    -0.090 HD
ATOM     21  H   UNL     1       2.219  -0.483   2.752  0.00  0.00    -0.090 HD
ATOM     22  H   UNL     1       2.199   0.104   1.213  0.00  0.00    -0.090 HD
ENDBRANCH  18  19
BRANCH  18  24
ATOM     23  C   UNL     1      -0.773   1.534   1.407  0.00  0.00    +0.002 C 
ATOM     24  C   UNL     1      -0.411   0.170   0.817  0.00  0.00    -0.018 C 
ENDBRANCH  18  24
ENDBRANCH   1  18
TORSDOF 6
