REMARK  Name = ZINC29554494
REMARK  7 active torsions:
REMARK  status: ('A' for Active; 'I' for Inactive)
REMARK    1  A    between atoms: C_1  and  C_2
REMARK    2  A    between atoms: C_2  and  C_3
REMARK    3  A    between atoms: C_2  and  N_4
REMARK    4  A    between atoms: C_5  and  S_7
REMARK    5  A    between atoms: S_7  and  C_8
REMARK    6  A    between atoms: C_8  and  C_9
REMARK    7  A    between atoms: C_15  and  C_17
REMARK                            x       y       z     vdW  Elec       q    Type
REMARK                         _______ _______ _______ _____ _____    ______ ____
ROOT
ATOM      1  C   UNL     1       2.141   0.062  -2.468  0.00  0.00    +0.226 C 
ATOM      2  O   UNL     1       1.923   1.052  -3.135  0.00  0.00    -0.275 OA
ATOM      3  N   UNL     1       2.445   0.184  -1.161  0.00  0.00    -0.294 N 
ATOM      4  C   UNL     1       2.732  -0.929  -0.238  0.00  0.00    +0.108 C 
ATOM      5  C   UNL     1       3.592  -0.300   0.886  0.00  0.00    +0.021 C 
ATOM      6  C   UNL     1       2.940   1.101   1.031  0.00  0.00    +0.029 C 
ATOM      7  C   UNL     1       2.546   1.450  -0.419  0.00  0.00    +0.106 C 
ENDROOT
BRANCH   7   8
ATOM      8  C   UNL     1       1.216   2.159  -0.432  0.00  0.00    -0.023 A 
ATOM      9  C   UNL     1       0.045   1.432  -0.315  0.00  0.00    +0.009 A 
ATOM     10  C   UNL     1      -1.176   2.078  -0.333  0.00  0.00    +0.050 A 
ATOM     11  C   UNL     1      -1.231   3.458  -0.458  0.00  0.00    +0.162 A 
ATOM     12  C   UNL     1      -0.054   4.189  -0.574  0.00  0.00    +0.162 A 
ATOM     13  C   UNL     1       1.168   3.534  -0.561  0.00  0.00    +0.055 A 
ATOM     14  O   UNL     1      -0.085   5.544  -0.694  0.00  0.00    -0.485 OA
ATOM     15  C   UNL     1      -1.335   6.128  -1.077  0.00  0.00    +0.270 C 
ATOM     16  C   UNL     1      -2.443   5.491  -0.228  0.00  0.00    +0.270 C 
ATOM     17  O   UNL     1      -2.441   4.080  -0.475  0.00  0.00    -0.485 OA
ENDBRANCH   7   8
BRANCH   1  18
ATOM     18  C   UNL     1       2.072  -1.304  -3.102  0.00  0.00    +0.173 C 
BRANCH  18  19
ATOM     19  S   UNL     1       1.646  -1.136  -4.853  0.00  0.00    -0.084 S 
BRANCH  19  21
ATOM     20  N   UNL     1       1.898  -3.758  -4.449  0.00  0.00    -0.366 N 
ATOM     21  C   UNL     1       1.634  -2.833  -5.328  0.00  0.00    +0.126 C 
ATOM     22  N   UNL     1       1.346  -3.181  -6.628  0.00  0.00    -0.339 N 
ATOM     23  H   UNL     1       1.123  -2.400  -7.370  0.00  0.00    +0.144 HD
ATOM     24  H   UNL     1       1.338  -4.240  -6.925  0.00  0.00    +0.144 HD
ATOM     25  H   UNL     1       2.027  -3.490  -3.389  0.00  0.00    +0.162 HD
BRANCH  20  27
ATOM     26  C   UNL     1       3.361  -5.718  -4.382  0.00  0.00    +0.030 C 
ATOM     27  C   UNL     1       2.024  -5.156  -4.871  0.00  0.00    +0.075 C 
ATOM     28  C   UNL     1       0.878  -5.974  -4.273  0.00  0.00    +0.030 C 
ENDBRANCH  20  27
ENDBRANCH  19  21
ENDBRANCH  18  19
ENDBRANCH   1  18
TORSDOF 5
