REMARK  Name = ZINC37918034
REMARK  3 active torsions:
REMARK  status: ('A' for Active; 'I' for Inactive)
REMARK    1  A    between atoms: C_3  and  C_7
REMARK    2  A    between atoms: N_12  and  C_14
REMARK    3  A    between atoms: C_14  and  C_15
REMARK                            x       y       z     vdW  Elec       q    Type
REMARK                         _______ _______ _______ _____ _____    ______ ____
ROOT
ATOM      1  C   UNL     1       3.647   0.672   0.083  0.00  0.00    -0.011 C 
ATOM      2  C   UNL     1       4.374   1.922   0.589  0.00  0.00    +0.004 C 
ATOM      3  C   UNL     1       5.845   1.852   0.169  0.00  0.00    +0.016 C 
ATOM      4  C   UNL     1       6.469   0.571   0.728  0.00  0.00    +0.085 C 
ATOM      5  N   UNL     1       5.739  -0.595   0.214  0.00  0.00    -0.294 NA
ATOM      6  C   UNL     1       4.335  -0.575   0.643  0.00  0.00    +0.086 C 
ENDROOT
BRANCH   1   9
ATOM      7  C   UNL     1      -0.019   1.536   0.011  0.00  0.00    -0.021 C 
ATOM      8  C   UNL     1       1.468   1.960  -0.001  0.00  0.00    -0.017 C 
ATOM      9  C   UNL     1       2.191   0.705   0.550  0.00  0.00    -0.068 C 
ATOM     10  N   UNL     1       1.421  -0.418  -0.044  0.00  0.00    +0.381 N 
ATOM     11  C   UNL     1       0.002  -0.004   0.002  0.00  0.00    -0.082 C 
ATOM     12  H   UNL     1       1.708  -0.571  -0.999  0.00  0.00    -0.086 HD
ATOM     13  H   UNL     1       1.556  -1.258   0.499  0.00  0.00    -0.086 HD
ENDBRANCH   1   9
BRANCH   5  14
ATOM     14  C   UNL     1       6.395  -1.846   0.618  0.00  0.00    +0.181 C 
BRANCH  14  15
ATOM     15  C   UNL     1       7.743  -1.944  -0.049  0.00  0.00    +0.234 C 
ATOM     16  O   UNL     1       8.120  -1.060  -0.787  0.00  0.00    -0.274 OA
ATOM     17  N   UNL     1       8.529  -3.016   0.176  0.00  0.00    -0.239 N 
ATOM     18  C   UNL     1       9.735  -3.104  -0.421  0.00  0.00    +0.303 C 
ATOM     19  O   UNL     1      10.113  -2.217  -1.161  0.00  0.00    -0.253 OA
ATOM     20  N   UNL     1      10.521  -4.175  -0.196  0.00  0.00    -0.313 N 
ATOM     21  H   UNL     1       8.228  -3.724   0.767  0.00  0.00    +0.159 HD
ATOM     22  H   UNL     1      10.219  -4.883   0.395  0.00  0.00    +0.146 HD
ATOM     23  H   UNL     1      11.389  -4.239  -0.625  0.00  0.00    +0.146 HD
ENDBRANCH  14  15
ENDBRANCH   5  14
TORSDOF 3
