REMARK  Name = ZINC61689070
REMARK  9 active torsions:
REMARK  status: ('A' for Active; 'I' for Inactive)
REMARK    1  A    between atoms: C_1  and  C_2
REMARK    2  A    between atoms: C_3  and  C_19
REMARK    3  A    between atoms: C_4  and  N_17
REMARK    4  A    between atoms: C_6  and  C_8
REMARK    5  A    between atoms: C_11  and  O_15
REMARK    6  A    between atoms: O_15  and  C_16
REMARK    7  A    between atoms: N_17  and  N_18
REMARK    8  A    between atoms: C_19  and  C_20
REMARK    9  A    between atoms: C_19  and  C_21
REMARK                            x       y       z     vdW  Elec       q    Type
REMARK                         _______ _______ _______ _____ _____    ______ ____
ROOT
ATOM      1  C   UNL     1      -0.424   1.510  -0.172  0.00  0.00    +0.066 C 
ATOM      2  C   UNL     1      -0.257   0.016  -0.062  0.00  0.00    +0.047 A 
ATOM      3  C   UNL     1      -0.106  -0.755  -1.200  0.00  0.00    +0.017 A 
ATOM      4  C   UNL     1       0.047  -2.136  -1.054  0.00  0.00    +0.140 A 
ATOM      5  N   UNL     1       0.042  -2.659   0.167  0.00  0.00    -0.211 NA
ATOM      6  C   UNL     1      -0.105  -1.885   1.233  0.00  0.00    +0.162 A 
ATOM      7  N   UNL     1      -0.247  -0.571   1.124  0.00  0.00    -0.232 NA
ENDROOT
BRANCH   6   8
ATOM      8  C   UNL     1      -0.106  -2.503   2.581  0.00  0.00    +0.020 A 
ATOM      9  C   UNL     1      -0.266  -1.706   3.714  0.00  0.00    +0.015 A 
ATOM     10  C   UNL     1      -0.266  -2.283   4.966  0.00  0.00    +0.047 A 
ATOM     11  C   UNL     1      -0.107  -3.656   5.100  0.00  0.00    +0.134 A 
ATOM     12  C   UNL     1       0.052  -4.453   3.973  0.00  0.00    +0.060 A 
ATOM     13  C   UNL     1       0.047  -3.882   2.717  0.00  0.00    +0.030 A 
ATOM     14 BR   UNL     1       0.270  -6.322   4.160  0.00  0.00    -0.046 Br
BRANCH  11  15
ATOM     15  O   UNL     1      -0.107  -4.222   6.335  0.00  0.00    -0.494 OA
ATOM     16  C   UNL     1      -0.276  -3.344   7.450  0.00  0.00    +0.277 C 
ENDBRANCH  11  15
ENDBRANCH   6   8
BRANCH   3  17
ATOM     17  C   UNL     1      -0.106  -0.120  -2.566  0.00  0.00    +0.018 C 
ATOM     18  C   UNL     1       1.244  -0.365  -3.243  0.00  0.00    +0.012 C 
ATOM     19  C   UNL     1      -1.221  -0.736  -3.414  0.00  0.00    +0.012 C 
ENDBRANCH   3  17
BRANCH   4  20
ATOM     20  N   UNL     1       0.201  -2.947  -2.166  0.00  0.00    -0.267 N 
ATOM     21  H   UNL     1       0.303  -2.551  -3.045  0.00  0.00    +0.167 HD
BRANCH  20  22
ATOM     22  N   UNL     1       0.209  -4.306  -2.025  0.00  0.00    -0.255 NA
ATOM     23  H   UNL     1       0.329  -4.762  -2.917  0.00  0.00    +0.140 HD
ATOM     24  H   UNL     1       0.920  -4.597  -1.371  0.00  0.00    +0.140 HD
ENDBRANCH  20  22
ENDBRANCH   4  20
TORSDOF 5
