REMARK  Name = ZINC37039903
REMARK  8 active torsions:
REMARK  status: ('A' for Active; 'I' for Inactive)
REMARK    1  A    between atoms: C_1  and  C_2
REMARK    2  A    between atoms: C_2  and  C_4
REMARK    3  A    between atoms: C_2  and  N_12
REMARK    4  A    between atoms: N_15  and  C_18
REMARK    5  A    between atoms: C_18  and  C_19
REMARK    6  A    between atoms: C_19  and  C_20
REMARK    7  A    between atoms: C_20  and  C_21
REMARK    8  A    between atoms: C_21  and  N_22
REMARK                            x       y       z     vdW  Elec       q    Type
REMARK                         _______ _______ _______ _____ _____    ______ ____
ROOT
ATOM      1  N   UNL     1       0.813  -0.485   1.128  0.00  0.00    -0.295 NA
ATOM      2  C   UNL     1       0.277  -0.012   2.412  0.00  0.00    +0.066 C 
ATOM      3  C   UNL     1       1.115  -0.589   3.555  0.00  0.00    -0.063 C 
ATOM      4  N   UNL     1       2.512  -0.163   3.401  0.00  0.00    +0.381 N 
ATOM      5  C   UNL     1       3.041  -0.664   2.126  0.00  0.00    -0.063 C 
ATOM      6  C   UNL     1       2.219  -0.087   0.971  0.00  0.00    +0.066 C 
ATOM      7  H   UNL     1       2.559   0.845   3.412  0.00  0.00    -0.082 HD
ENDROOT
BRANCH   1   9
ATOM      8  C   UNL     1      -0.027   1.532   0.022  0.00  0.00    +0.034 C 
ATOM      9  C   UNL     1       0.000   0.002   0.005  0.00  0.00    +0.140 C 
BRANCH   9  10
ATOM     10  C   UNL     1      -1.405  -0.526   0.137  0.00  0.00    +0.233 C 
ATOM     11  O   UNL     1      -1.725  -1.162   1.119  0.00  0.00    -0.274 OA
ATOM     12  N   UNL     1      -2.307  -0.293  -0.838  0.00  0.00    -0.296 N 
ATOM     13  C   UNL     1      -1.912   0.368  -2.092  0.00  0.00    +0.136 C 
ATOM     14  C   UNL     1      -2.420  -0.478  -3.265  0.00  0.00    +0.179 C 
ATOM     15  O   UNL     1      -3.817  -0.731  -3.093  0.00  0.00    -0.377 OA
ATOM     16  C   UNL     1      -4.134  -1.486  -1.921  0.00  0.00    +0.179 C 
ATOM     17  C   UNL     1      -3.713  -0.697  -0.681  0.00  0.00    +0.136 C 
ENDBRANCH   9  10
ENDBRANCH   1   9
BRANCH   4  18
ATOM     18  C   UNL     1       3.312  -0.702   4.509  0.00  0.00    -0.079 C 
BRANCH  18  19
ATOM     19  C   UNL     1       4.739  -0.157   4.419  0.00  0.00    -0.020 C 
BRANCH  19  20
ATOM     20  C   UNL     1       5.573  -0.719   5.572  0.00  0.00    -0.021 C 
BRANCH  20  21
ATOM     21  C   UNL     1       7.000  -0.175   5.483  0.00  0.00    -0.087 C 
BRANCH  21  22
ATOM     22  N   UNL     1       7.800  -0.714   6.590  0.00  0.00    +0.378 N 
ATOM     23  H   UNL     1       7.389  -0.436   7.469  0.00  0.00    -0.090 HD
ATOM     24  H   UNL     1       7.820  -1.721   6.532  0.00  0.00    -0.090 HD
ATOM     25  H   UNL     1       8.742  -0.355   6.531  0.00  0.00    -0.090 HD
ENDBRANCH  21  22
ENDBRANCH  20  21
ENDBRANCH  19  20
ENDBRANCH  18  19
ENDBRANCH   4  18
TORSDOF 7
