REMARK  Name = ZINC48786273
REMARK  4 active torsions:
REMARK  status: ('A' for Active; 'I' for Inactive)
REMARK    1  A    between atoms: C_3  and  O_10
REMARK    2  A    between atoms: C_4  and  N_9
REMARK    3  A    between atoms: C_6  and  C_7
REMARK    4  A    between atoms: O_10  and  C_11
REMARK                            x       y       z     vdW  Elec       q    Type
REMARK                         _______ _______ _______ _____ _____    ______ ____
ROOT
ATOM      1  C   UNL     1      -0.036   1.501  -0.107  0.00  0.00    +0.022 A 
ATOM      2  C   UNL     1       1.169   2.170  -0.107  0.00  0.00    +0.049 A 
ATOM      3  C   UNL     1       2.359   1.463  -0.020  0.00  0.00    +0.151 A 
ATOM      4  C   UNL     1       2.342   0.070   0.069  0.00  0.00    +0.069 A 
ATOM      5  C   UNL     1       1.136  -0.607   0.070  0.00  0.00    +0.045 A 
ATOM      6  C   UNL     1      -0.062   0.107  -0.018  0.00  0.00    +0.054 A 
ENDROOT
BRANCH   4   7
ATOM      7  N   UNL     1       3.544  -0.641   0.156  0.00  0.00    -0.355 N 
ATOM      8  H   UNL     1       4.390  -0.166   0.155  0.00  0.00    +0.142 HD
ATOM      9  H   UNL     1       3.531  -1.609   0.218  0.00  0.00    +0.142 HD
ENDBRANCH   4   7
BRANCH   6  10
ATOM     10  C   UNL     1      -1.314  -0.589  -0.018  0.00  0.00    +0.099 C 
ATOM     11  N   UNL     1      -2.307  -1.141  -0.017  0.00  0.00    -0.191 NA
ENDBRANCH   6  10
BRANCH   3  12
ATOM     12  O   UNL     1       3.544   2.127  -0.020  0.00  0.00    -0.435 OA
BRANCH  12  13
ATOM     13  C   UNL     1       4.185   2.284  -1.204  0.00  0.00    +0.238 A 
ATOM     14  C   UNL     1       5.425   2.891  -1.264  0.00  0.00    +0.099 A 
ATOM     15  C   UNL     1       6.099   3.057  -2.494  0.00  0.00    +0.085 A 
ATOM     16  C   UNL     1       7.352   3.690  -2.413  0.00  0.00    +0.036 A 
ATOM     17  C   UNL     1       7.832   4.091  -1.220  0.00  0.00    +0.048 A 
ATOM     18  S   UNL     1       6.541   3.606  -0.087  0.00  0.00    -0.090 S 
ATOM     19  N   UNL     1       5.448   2.585  -3.585  0.00  0.00    -0.235 NA
ATOM     20  C   UNL     1       4.275   2.017  -3.485  0.00  0.00    +0.225 A 
ATOM     21  N   UNL     1       3.639   1.851  -2.339  0.00  0.00    -0.200 NA
ENDBRANCH  12  13
ENDBRANCH   3  12
TORSDOF 4
