REMARK  Name = ZINC20975750
REMARK  11 active torsions:
REMARK  status: ('A' for Active; 'I' for Inactive)
REMARK    1  A    between atoms: C_1  and  C_2
REMARK    2  A    between atoms: C_2  and  N_3
REMARK    3  A    between atoms: N_6  and  C_9
REMARK    4  A    between atoms: C_12  and  C_34
REMARK    5  A    between atoms: C_14  and  N_15
REMARK    6  A    between atoms: C_16  and  C_18
REMARK    7  A    between atoms: C_19  and  C_20
REMARK    8  A    between atoms: C_23  and  C_25
REMARK    9  A    between atoms: C_30  and  N_31
REMARK   10  A    between atoms: C_34  and  O_36
REMARK   11  A    between atoms: O_36  and  C_37
REMARK                            x       y       z     vdW  Elec       q    Type
REMARK                         _______ _______ _______ _____ _____    ______ ____
ROOT
ATOM      1  N   UNL     1       4.582  -6.024  -4.004  0.00  0.00    -0.280 N 
ATOM      2  C   UNL     1       4.265  -6.124  -2.698  0.00  0.00    +0.241 C 
ATOM      3  O   UNL     1       4.478  -7.162  -2.097  0.00  0.00    -0.270 OA
ATOM      4  H   UNL     1       4.323  -5.114  -4.565  0.00  0.00    +0.155 HD
ENDROOT
BRANCH   1  10
ATOM      5  C   UNL     1       6.185  -6.810  -5.644  0.00  0.00    +0.051 A 
ATOM      6  C   UNL     1       6.841  -7.856  -6.284  0.00  0.00    +0.026 A 
ATOM      7  C   UNL     1       6.567  -9.160  -5.937  0.00  0.00    +0.017 A 
ATOM      8  C   UNL     1       5.626  -9.436  -4.940  0.00  0.00    +0.061 A 
ATOM      9  C   UNL     1       4.968  -8.386  -4.292  0.00  0.00    +0.040 A 
ATOM     10  C   UNL     1       5.243  -7.079  -4.647  0.00  0.00    +0.056 A 
BRANCH   5  14
ATOM     11  N   UNL     1       7.752  -3.441  -7.495  0.00  0.00    +0.382 N 
ATOM     12  C   UNL     1       8.135  -3.705  -6.100  0.00  0.00    -0.060 C 
ATOM     13  C   UNL     1       7.884  -5.179  -5.776  0.00  0.00    +0.086 C 
ATOM     14  N   UNL     1       6.466  -5.493  -5.998  0.00  0.00    -0.332 N 
ATOM     15  C   UNL     1       6.083  -5.229  -7.392  0.00  0.00    +0.086 C 
ATOM     16  C   UNL     1       6.334  -3.755  -7.717  0.00  0.00    -0.060 C 
ATOM     17  H   UNL     1       8.351  -4.099  -8.142  0.00  0.00    -0.082 HD
BRANCH  11  19
ATOM     18  C   UNL     1       7.417  -1.743  -9.227  0.00  0.00    -0.017 C 
ATOM     19  C   UNL     1       8.049  -2.051  -7.868  0.00  0.00    -0.082 C 
ENDBRANCH  11  19
ENDBRANCH   5  14
BRANCH   8  20
ATOM     20  C   UNL     1       5.332 -10.832  -4.569  0.00  0.00    +0.339 C 
ATOM     21  O   UNL     1       4.515 -11.071  -3.702  0.00  0.00    -0.245 OA
BRANCH  20  22
ATOM     22  O   UNL     1       5.970 -11.843  -5.191  0.00  0.00    -0.464 OA
ATOM     23  C   UNL     1       5.631 -13.192  -4.774  0.00  0.00    +0.280 C 
ENDBRANCH  20  22
ENDBRANCH   8  20
ENDBRANCH   1  10
BRANCH   2  24
ATOM     24  C   UNL     1       3.684  -5.024  -2.025  0.00  0.00    +0.071 C 
ATOM     25  C   UNL     1       3.363  -5.125  -0.709  0.00  0.00    +0.051 C 
BRANCH  25  26
ATOM     26  C   UNL     1       2.783  -4.025  -0.037  0.00  0.00    +0.129 A 
ATOM     27  C   UNL     1       2.410  -3.992   1.294  0.00  0.00    +0.050 A 
ATOM     28  C   UNL     1       1.884  -2.720   1.533  0.00  0.00    +0.050 A 
ATOM     29  C   UNL     1       1.953  -2.028   0.356  0.00  0.00    +0.138 A 
ATOM     30  O   UNL     1       2.490  -2.826  -0.583  0.00  0.00    -0.455 OA
BRANCH  29  31
ATOM     31  C   UNL     1       1.505  -0.637   0.149  0.00  0.00    +0.047 A 
ATOM     32  C   UNL     1       0.232  -0.240   0.566  0.00  0.00    +0.014 A 
ATOM     33  C   UNL     1      -0.181   1.061   0.369  0.00  0.00    +0.001 A 
ATOM     34  C   UNL     1       0.663   1.973  -0.241  0.00  0.00    +0.002 A 
ATOM     35  C   UNL     1       1.925   1.587  -0.656  0.00  0.00    +0.033 A 
ATOM     36  C   UNL     1       2.351   0.289  -0.466  0.00  0.00    +0.137 A 
BRANCH  36  37
ATOM     37  N   UNL     1       3.702  -0.122  -0.910  0.00  0.00    +0.057 N 
ATOM     38  O   UNL     1       4.439   0.686  -1.446  0.00  0.00    -0.126 OA
ATOM     39  O   UNL     1       4.076  -1.269  -0.741  0.00  0.00    -0.126 OA
ENDBRANCH  36  37
ENDBRANCH  29  31
ENDBRANCH  25  26
ENDBRANCH   2  24
TORSDOF 9
