REMARK  Name = ZINC62243994
REMARK  5 active torsions:
REMARK  status: ('A' for Active; 'I' for Inactive)
REMARK    1  A    between atoms: C_1  and  C_2
REMARK    2  A    between atoms: C_6  and  N_8
REMARK    3  A    between atoms: C_9  and  C_15
REMARK    4  A    between atoms: C_10  and  C_13
REMARK    5  A    between atoms: C_13  and  N_14
REMARK                            x       y       z     vdW  Elec       q    Type
REMARK                         _______ _______ _______ _____ _____    ______ ____
ROOT
ATOM      1  N   UNL     1       0.055  -2.956   2.223  0.00  0.00    -0.212 N 
ATOM      2  C   UNL     1      -0.608  -4.103   2.571  0.00  0.00    +0.096 A 
ATOM      3  C   UNL     1      -0.382  -4.291   3.902  0.00  0.00    +0.074 A 
ATOM      4  N   UNL     1       0.386  -3.301   4.351  0.00  0.00    -0.135 NA
ATOM      5  N   UNL     1       0.674  -2.492   3.393  0.00  0.00    -0.060 NA
ENDROOT
BRANCH   1  11
ATOM      6  C   UNL     1       0.241   1.092  -0.565  0.00  0.00    +0.044 C 
ATOM      7  C   UNL     1       0.200  -0.408  -0.427  0.00  0.00    -0.048 A 
ATOM      8  C   UNL     1       0.215  -1.206  -1.557  0.00  0.00    +0.003 A 
ATOM      9  C   UNL     1       0.178  -2.582  -1.435  0.00  0.00    +0.002 A 
ATOM     10  C   UNL     1       0.125  -3.165  -0.184  0.00  0.00    +0.028 A 
ATOM     11  C   UNL     1       0.109  -2.367   0.952  0.00  0.00    +0.068 A 
ATOM     12  C   UNL     1       0.152  -0.985   0.826  0.00  0.00    +0.031 A 
ENDBRANCH   1  11
BRANCH   2  13
ATOM     13  C   UNL     1      -1.412  -4.968   1.678  0.00  0.00    +0.002 A 
ATOM     14  C   UNL     1      -1.126  -6.330   1.580  0.00  0.00    +0.011 A 
ATOM     15  C   UNL     1      -1.879  -7.131   0.746  0.00  0.00    +0.020 A 
ATOM     16  C   UNL     1      -2.915  -6.586   0.008  0.00  0.00    +0.041 A 
ATOM     17  C   UNL     1      -3.203  -5.235   0.101  0.00  0.00    +0.020 A 
ATOM     18  C   UNL     1      -2.461  -4.425   0.935  0.00  0.00    +0.011 A 
ATOM     19 CL   UNL     1      -3.858  -7.601  -1.040  0.00  0.00    -0.084 Cl
ENDBRANCH   2  13
BRANCH   3  20
ATOM     20  C   UNL     1      -0.915  -5.432   4.730  0.00  0.00    -0.026 C 
BRANCH  20  21
ATOM     21  N   UNL     1      -2.271  -5.108   5.194  0.00  0.00    +0.382 N 
ATOM     22  H   UNL     1      -2.248  -4.255   5.732  0.00  0.00    -0.090 HD
ATOM     23  H   UNL     1      -2.879  -4.987   4.398  0.00  0.00    -0.090 HD
ATOM     24  H   UNL     1      -2.618  -5.860   5.771  0.00  0.00    -0.090 HD
ENDBRANCH  20  21
ENDBRANCH   3  20
TORSDOF 4
