REMARK  Name = ZINC46426359
REMARK  9 active torsions:
REMARK  status: ('A' for Active; 'I' for Inactive)
REMARK    1  A    between atoms: C_1  and  C_2
REMARK    2  A    between atoms: C_5  and  C_27
REMARK    3  A    between atoms: N_8  and  C_10
REMARK    4  A    between atoms: C_10  and  C_11
REMARK    5  A    between atoms: C_11  and  C_12
REMARK    6  A    between atoms: C_12  and  N_13
REMARK    7  A    between atoms: C_19  and  N_22
REMARK    8  A    between atoms: N_22  and  S_23
REMARK    9  A    between atoms: S_23  and  C_26
REMARK                            x       y       z     vdW  Elec       q    Type
REMARK                         _______ _______ _______ _____ _____    ______ ____
ROOT
ATOM      1  N   UNL     1       5.198  -2.115   3.294  0.00  0.00    -0.299 N 
ATOM      2  C   UNL     1       6.100  -2.446   4.238  0.00  0.00    +0.302 C 
ATOM      3  O   UNL     1       5.739  -3.010   5.253  0.00  0.00    -0.253 OA
ATOM      4  N   UNL     1       7.404  -2.153   4.058  0.00  0.00    -0.286 N 
ATOM      5  C   UNL     1       8.414  -2.609   5.022  0.00  0.00    +0.111 C 
ATOM      6  C   UNL     1       9.507  -3.373   4.267  0.00  0.00    +0.039 C 
ATOM      7  C   UNL     1      10.060  -2.488   3.148  0.00  0.00    +0.079 C 
ATOM      8  C   UNL     1       8.940  -2.148   2.162  0.00  0.00    +0.039 C 
ATOM      9  C   UNL     1       7.841  -1.377   2.890  0.00  0.00    +0.111 C 
ATOM     10  H   UNL     1       5.474  -1.601   2.518  0.00  0.00    +0.150 HD
ENDROOT
BRANCH   7  11
ATOM     11  N   UNL     1      11.129  -3.203   2.445  0.00  0.00    -0.192 NA
ATOM     12  H   UNL     1      11.072  -4.163   2.324  0.00  0.00    +0.148 HD
BRANCH  11  13
ATOM     13  S   UNL     1      12.434  -2.370   1.857  0.00  0.00    +0.027 S 
ATOM     14  O   UNL     1      13.240  -3.357   1.227  0.00  0.00    -0.158 OA
ATOM     15  O   UNL     1      11.874  -1.303   1.103  0.00  0.00    -0.158 OA
ATOM     16  C   UNL     1      13.275  -1.722   3.328  0.00  0.00    +0.214 C 
ENDBRANCH  11  13
ENDBRANCH   7  11
BRANCH   1  17
ATOM     17  C   UNL     1       3.801  -2.531   3.437  0.00  0.00    +0.104 C 
BRANCH  17  18
ATOM     18  C   UNL     1       2.994  -2.030   2.238  0.00  0.00    +0.000 C 
BRANCH  18  19
ATOM     19  C   UNL     1       1.534  -2.465   2.388  0.00  0.00    -0.077 C 
BRANCH  19  25
ATOM     20  C   UNL     1      -0.021   1.521   0.009  0.00  0.00    +0.005 C 
ATOM     21  C   UNL     1       0.002  -0.009  -0.000  0.00  0.00    -0.031 C 
ATOM     22  C   UNL     1      -1.434  -0.541   0.012  0.00  0.00    +0.003 C 
ATOM     23  C   UNL     1      -1.401  -2.071   0.082  0.00  0.00    -0.031 C 
ATOM     24  C   UNL     1      -0.612  -2.502   1.321  0.00  0.00    -0.076 C 
ATOM     25  N   UNL     1       0.759  -1.984   1.236  0.00  0.00    +0.380 N 
ATOM     26  C   UNL     1       0.740  -0.516   1.241  0.00  0.00    -0.076 C 
ATOM     27  C   UNL     1      -0.725  -2.625  -1.173  0.00  0.00    +0.005 C 
ATOM     28  H   UNL     1       1.189  -2.311   0.384  0.00  0.00    -0.082 HD
ENDBRANCH  19  25
ENDBRANCH  18  19
ENDBRANCH  17  18
ENDBRANCH   1  17
TORSDOF 6
