REMARK  Name = ZINC65465057
REMARK  16 active torsions:
REMARK  status: ('A' for Active; 'I' for Inactive)
REMARK    1  A    between atoms: C_1  and  C_2
REMARK    2  A    between atoms: C_2  and  C_3
REMARK    3  A    between atoms: C_3  and  C_4
REMARK    4  A    between atoms: C_3  and  C_6
REMARK    5  A    between atoms: C_3  and  N_23
REMARK    6  A    between atoms: C_4  and  C_5
REMARK    7  A    between atoms: C_6  and  N_7
REMARK    8  A    between atoms: N_10  and  C_11
REMARK    9  A    between atoms: C_11  and  C_12
REMARK   10  A    between atoms: C_14  and  O_21
REMARK   11  A    between atoms: C_15  and  O_20
REMARK   12  A    between atoms: C_16  and  O_18
REMARK   13  A    between atoms: O_18  and  C_19
REMARK   14  A    between atoms: O_21  and  C_22
REMARK   15  A    between atoms: N_23  and  C_24
REMARK   16  A    between atoms: N_23  and  C_25
REMARK                            x       y       z     vdW  Elec       q    Type
REMARK                         _______ _______ _______ _____ _____    ______ ____
ROOT
ATOM      1  N   UNL     1       0.779  -0.319  -3.866  0.00  0.00    -0.301 N 
ATOM      2  C   UNL     1       0.432   0.094  -5.101  0.00  0.00    +0.300 C 
ATOM      3  O   UNL     1      -0.521   0.835  -5.249  0.00  0.00    -0.253 OA
ATOM      4  N   UNL     1       1.141  -0.313  -6.172  0.00  0.00    -0.295 N 
ATOM      5  H   UNL     1       1.539  -0.910  -3.748  0.00  0.00    +0.150 HD
ATOM      6  H   UNL     1       1.901  -0.904  -6.054  0.00  0.00    +0.151 HD
ENDROOT
BRANCH   1   7
ATOM      7  C   UNL     1       0.008   0.124  -2.702  0.00  0.00    +0.094 C 
BRANCH   7   8
ATOM      8  C   UNL     1       0.696  -0.355  -1.422  0.00  0.00    -0.051 C 
BRANCH   8   9
ATOM      9  N   UNL     1       0.926  -1.804  -1.503  0.00  0.00    +0.381 N 
ATOM     10  C   UNL     1       1.478  -2.285  -0.230  0.00  0.00    -0.096 C 
ATOM     11  C   UNL     1      -0.346  -2.487  -1.774  0.00  0.00    -0.096 C 
ATOM     12  H   UNL     1       1.578  -2.000  -2.248  0.00  0.00    -0.082 HD
ENDBRANCH   8   9
BRANCH   8  14
ATOM     13  C   UNL     1       2.982  -0.061  -2.387  0.00  0.00    +0.002 C 
ATOM     14  C   UNL     1       2.036   0.365  -1.262  0.00  0.00    -0.014 C 
ENDBRANCH   8  14
BRANCH   8  15
ATOM     15  C   UNL     1      -0.196  -0.047  -0.217  0.00  0.00    -0.014 C 
ATOM     16  C   UNL     1      -0.541   1.443  -0.207  0.00  0.00    +0.002 C 
ENDBRANCH   8  15
ENDBRANCH   7   8
ENDBRANCH   1   7
BRANCH   4  17
ATOM     17  C   UNL     1       0.763   0.136  -7.515  0.00  0.00    +0.141 C 
BRANCH  17  18
ATOM     18  C   UNL     1       1.708  -0.458  -8.527  0.00  0.00    -0.023 A 
ATOM     19  C   UNL     1       2.864   0.218  -8.871  0.00  0.00    +0.054 A 
ATOM     20  C   UNL     1       3.736  -0.325  -9.803  0.00  0.00    +0.165 A 
ATOM     21  C   UNL     1       3.447  -1.551 -10.391  0.00  0.00    +0.201 A 
ATOM     22  C   UNL     1       2.284  -2.227 -10.042  0.00  0.00    +0.165 A 
ATOM     23  C   UNL     1       1.420  -1.680  -9.106  0.00  0.00    +0.054 A 
BRANCH  22  24
ATOM     24  O   UNL     1       1.997  -3.427 -10.615  0.00  0.00    -0.491 OA
ATOM     25  C   UNL     1       0.784  -4.066 -10.209  0.00  0.00    +0.277 C 
ENDBRANCH  22  24
BRANCH  21  26
ATOM     26  O   UNL     1       4.300  -2.087 -11.306  0.00  0.00    -0.501 OA
ATOM     27  H   UNL     1       4.982  -2.655 -10.922  0.00  0.00    +0.292 HD
ENDBRANCH  21  26
BRANCH  20  28
ATOM     28  O   UNL     1       4.872   0.341 -10.141  0.00  0.00    -0.491 OA
ATOM     29  C   UNL     1       5.105   1.596  -9.497  0.00  0.00    +0.277 C 
ENDBRANCH  20  28
ENDBRANCH  17  18
ENDBRANCH   4  17
TORSDOF 10
