REMARK  Name = ZINC08854876
REMARK  13 active torsions:
REMARK  status: ('A' for Active; 'I' for Inactive)
REMARK    1  A    between atoms: C_1  and  C_2
REMARK    2  A    between atoms: C_2  and  C_3
REMARK    3  A    between atoms: C_3  and  C_4
REMARK    4  A    between atoms: C_11  and  N_37
REMARK    5  A    between atoms: C_12  and  C_35
REMARK    6  A    between atoms: C_13  and  C_15
REMARK    7  A    between atoms: C_17  and  N_32
REMARK    8  A    between atoms: C_18  and  O_24
REMARK    9  A    between atoms: C_19  and  O_21
REMARK   10  A    between atoms: O_21  and  C_22
REMARK   11  A    between atoms: C_22  and  C_23
REMARK   12  A    between atoms: O_24  and  C_25
REMARK   13  A    between atoms: C_25  and  C_27
REMARK                            x       y       z     vdW  Elec       q    Type
REMARK                         _______ _______ _______ _____ _____    ______ ____
ROOT
ATOM      1  C   UNL     1      -1.115  -1.946   3.897  0.00  0.00    -0.029 A 
ATOM      2  C   UNL     1      -0.417  -2.733   4.793  0.00  0.00    +0.041 A 
ATOM      3  C   UNL     1      -0.098  -2.243   6.046  0.00  0.00    +0.172 A 
ATOM      4  C   UNL     1      -0.478  -0.959   6.405  0.00  0.00    +0.203 A 
ATOM      5  C   UNL     1      -1.182  -0.167   5.502  0.00  0.00    +0.165 A 
ATOM      6  C   UNL     1      -1.494  -0.664   4.246  0.00  0.00    +0.054 A 
ENDROOT
BRANCH   1  16
ATOM      7  C   UNL     1       0.762  -2.018   1.233  0.00  0.00    +0.071 A 
ATOM      8  C   UNL     1      -0.197  -2.849   1.795  0.00  0.00    +0.049 A 
ATOM      9  C   UNL     1       0.183  -4.144   1.575  0.00  0.00    +0.222 A 
ATOM     10  N   UNL     1       1.343  -4.117   0.900  0.00  0.00    -0.246 N 
ATOM     11  H   UNL     1       1.851  -4.889   0.606  0.00  0.00    +0.192 HD
ATOM     12  N   UNL     1       1.687  -2.773   0.689  0.00  0.00    -0.176 NA
ATOM     13  O   UNL     1      -0.548  -5.204   2.001  0.00  0.00    -0.423 OA
ATOM     14  C   UNL     1      -1.810  -4.967   2.414  0.00  0.00    +0.200 C 
ATOM     15  C   UNL     1      -2.297  -3.734   2.675  0.00  0.00    +0.098 C 
ATOM     16  C   UNL     1      -1.460  -2.486   2.532  0.00  0.00    +0.101 C 
BRANCH  14  17
ATOM     17  N   UNL     1      -2.649  -6.041   2.578  0.00  0.00    -0.328 N 
ATOM     18  H   UNL     1      -2.328  -6.939   2.398  0.00  0.00    +0.145 HD
ATOM     19  H   UNL     1      -3.562  -5.902   2.873  0.00  0.00    +0.145 HD
ENDBRANCH  14  17
BRANCH  15  20
ATOM     20  C   UNL     1      -3.657  -3.606   3.103  0.00  0.00    +0.101 C 
ATOM     21  N   UNL     1      -4.737  -3.505   3.443  0.00  0.00    -0.191 NA
ENDBRANCH  15  20
BRANCH   7  22
ATOM     22  C   UNL     1       0.742  -0.511   1.242  0.00  0.00    +0.057 C 
BRANCH  22  24
ATOM     23  C   UNL     1      -0.019   1.526   0.010  0.00  0.00    +0.004 C 
ATOM     24  C   UNL     1       0.002  -0.004   0.002  0.00  0.00    +0.003 C 
ENDBRANCH  22  24
ENDBRANCH   7  22
ENDBRANCH   1  16
BRANCH   3  25
ATOM     25  N   UNL     1       0.650  -3.088   7.003  0.00  0.00    +0.060 N 
ATOM     26  O   UNL     1       0.981  -4.208   6.691  0.00  0.00    -0.126 OA
ATOM     27  O   UNL     1       0.929  -2.659   8.099  0.00  0.00    -0.126 OA
ENDBRANCH   3  25
BRANCH   5  28
ATOM     28  O   UNL     1      -1.557   1.093   5.849  0.00  0.00    -0.488 OA
BRANCH  28  29
ATOM     29  C   UNL     1      -2.276   1.848   4.872  0.00  0.00    +0.226 C 
ATOM     30  C   UNL     1      -2.610   3.229   5.439  0.00  0.00    +0.048 C 
ENDBRANCH  28  29
ENDBRANCH   5  28
BRANCH   4  31
ATOM     31  O   UNL     1      -0.166  -0.475   7.636  0.00  0.00    -0.416 OA
BRANCH  31  32
ATOM     32  C   UNL     1       1.007   0.175   7.782  0.00  0.00    +0.351 C 
ATOM     33  O   UNL     1       1.749   0.312   6.828  0.00  0.00    -0.244 OA
BRANCH  32  34
ATOM     34  C   UNL     1       1.388   0.714   9.089  0.00  0.00    +0.097 A 
ATOM     35  C   UNL     1       2.533   1.411   9.448  0.00  0.00    +0.022 A 
ATOM     36  C   UNL     1       2.609   1.793  10.765  0.00  0.00    +0.008 A 
ATOM     37  C   UNL     1       1.593   1.475  11.605  0.00  0.00    +0.046 A 
ATOM     38  S   UNL     1       0.497   0.653  10.632  0.00  0.00    -0.090 S 
ENDBRANCH  32  34
ENDBRANCH  31  32
ENDBRANCH   4  31
TORSDOF 11
