REMARK  Name = ZINC53499279
REMARK  5 active torsions:
REMARK  status: ('A' for Active; 'I' for Inactive)
REMARK    1  A    between atoms: C_4  and  N_7
REMARK    2  A    between atoms: N_7  and  C_8
REMARK    3  A    between atoms: C_8  and  C_9
REMARK    4  A    between atoms: C_9  and  C_10
REMARK    5  A    between atoms: C_10  and  N_11
REMARK                            x       y       z     vdW  Elec       q    Type
REMARK                         _______ _______ _______ _____ _____    ______ ____
ROOT
ATOM      1  C   UNL     1       3.814  -3.921  -3.633  0.00  0.00    -0.080 C 
ENDROOT
BRANCH   1   2
ATOM      2  N   UNL     1       4.502  -4.395  -4.842  0.00  0.00    +0.382 N 
ATOM      3  C   UNL     1       3.673  -4.108  -6.019  0.00  0.00    -0.078 C 
ATOM      4  C   UNL     1       4.419  -4.526  -7.288  0.00  0.00    -0.018 C 
ATOM      5  C   UNL     1       4.719  -6.027  -7.226  0.00  0.00    +0.000 C 
ATOM      6  C   UNL     1       5.521  -6.324  -5.956  0.00  0.00    -0.025 C 
ATOM      7  C   UNL     1       4.733  -5.841  -4.737  0.00  0.00    -0.065 C 
ATOM      8  C   UNL     1       3.390  -6.570  -4.674  0.00  0.00    -0.015 C 
ATOM      9  C   UNL     1       3.632  -8.077  -4.561  0.00  0.00    -0.002 C 
ATOM     10  C   UNL     1       4.417  -8.559  -5.783  0.00  0.00    +0.000 C 
ATOM     11  C   UNL     1       5.762  -7.831  -5.847  0.00  0.00    +0.002 C 
ATOM     12  H   UNL     1       5.387  -3.919  -4.933  0.00  0.00    -0.081 HD
ENDBRANCH   1   2
BRANCH   1  13
ATOM     13  C   UNL     1       3.683  -2.398  -3.685  0.00  0.00    -0.038 C 
BRANCH  13  14
ATOM     14  C   UNL     1       2.967  -1.904  -2.426  0.00  0.00    -0.084 C 
BRANCH  14  15
ATOM     15  N   UNL     1       2.841  -0.442  -2.476  0.00  0.00    +0.381 N 
ATOM     16  H   UNL     1       2.309  -0.177  -3.292  0.00  0.00    -0.086 HD
ATOM     17  H   UNL     1       3.760  -0.027  -2.525  0.00  0.00    -0.086 HD
BRANCH  15  21
ATOM     18  C   UNL     1      -0.019   1.526   0.010  0.00  0.00    -0.000 C 
ATOM     19  C   UNL     1       1.417   2.055  -0.000  0.00  0.00    -0.002 C 
ATOM     20  C   UNL     1       2.133   1.562  -1.259  0.00  0.00    -0.016 C 
ATOM     21  C   UNL     1       2.154   0.032  -1.268  0.00  0.00    -0.072 C 
ATOM     22  C   UNL     1       0.718  -0.497  -1.257  0.00  0.00    -0.016 C 
ATOM     23  C   UNL     1       0.002  -0.004   0.002  0.00  0.00    -0.002 C 
ENDBRANCH  15  21
ENDBRANCH  14  15
ENDBRANCH  13  14
ENDBRANCH   1  13
TORSDOF 5
