REMARK  Name = ZINC20933312
REMARK  4 active torsions:
REMARK  status: ('A' for Active; 'I' for Inactive)
REMARK    1  A    between atoms: C_7  and  C_11
REMARK    2  A    between atoms: N_12  and  N_13
REMARK    3  A    between atoms: C_14  and  C_16
REMARK    4  A    between atoms: C_18  and  N_24
REMARK                            x       y       z     vdW  Elec       q    Type
REMARK                         _______ _______ _______ _____ _____    ______ ____
ROOT
ATOM      1  N   UNL     1       1.964   6.551   0.020  0.00  0.00    -0.202 N 
ATOM      2  C   UNL     1       1.445   7.795   0.032  0.00  0.00    +0.283 C 
ATOM      3  O   UNL     1       0.239   7.950   0.044  0.00  0.00    -0.267 OA
ATOM      4  H   UNL     1       3.055   6.411   0.009  0.00  0.00    +0.178 HD
ENDROOT
BRANCH   2   5
ATOM      5  C   UNL     1       2.342   8.971   0.030  0.00  0.00    +0.149 A 
ATOM      6  C   UNL     1       1.799  10.253   0.037  0.00  0.00    +0.094 A 
ATOM      7  C   UNL     1       2.659  11.352   0.040  0.00  0.00    +0.067 A 
ATOM      8  C   UNL     1       4.033  11.117   0.025  0.00  0.00    +0.100 A 
ATOM      9  C   UNL     1       4.497   9.811   0.014  0.00  0.00    +0.150 A 
ATOM     10  N   UNL     1       3.660   8.794   0.017  0.00  0.00    -0.228 NA
ATOM     11 CL   UNL     1       6.207   9.511  -0.004  0.00  0.00    -0.060 Cl
ATOM     12 CL   UNL     1       5.150  12.445   0.021  0.00  0.00    -0.078 Cl
ATOM     13 CL   UNL     1       0.078  10.481   0.048  0.00  0.00    -0.079 Cl
BRANCH   7  14
ATOM     14  N   UNL     1       2.157  12.652   0.052  0.00  0.00    -0.356 N 
ATOM     15  H   UNL     1       2.847  13.508   0.054  0.00  0.00    +0.142 HD
ATOM     16  H   UNL     1       1.070  12.821   0.059  0.00  0.00    +0.142 HD
ENDBRANCH   7  14
ENDBRANCH   2   5
BRANCH   1  18
ATOM     17  C   UNL     1       1.615   4.238   0.010  0.00  0.00    +0.140 C 
ATOM     18  N   UNL     1       1.114   5.437   0.021  0.00  0.00    -0.187 NA
BRANCH  17  25
ATOM     19  C   UNL     1      -3.045   3.774   0.050  0.00  0.00    +0.001 A 
ATOM     20  C   UNL     1      -3.444   2.444   0.047  0.00  0.00    +0.002 A 
ATOM     21  C   UNL     1      -2.510   1.431   0.033  0.00  0.00    +0.026 A 
ATOM     22  C   UNL     1      -1.153   1.738   0.016  0.00  0.00    +0.047 A 
ATOM     23  C   UNL     1      -0.751   3.084   0.026  0.00  0.00    +0.008 A 
ATOM     24  C   UNL     1      -1.707   4.098   0.040  0.00  0.00    +0.010 A 
ATOM     25  C   UNL     1       0.723   3.068   0.012  0.00  0.00    +0.020 A 
ATOM     26  C   UNL     1       1.096   1.760   0.001  0.00  0.00    +0.093 A 
ATOM     27  N   UNL     1      -0.011   0.966   0.007  0.00  0.00    -0.360 N 
ATOM     28  H   UNL     1      -0.089  -0.131   0.006  0.00  0.00    +0.165 HD
ENDBRANCH  17  25
ENDBRANCH   1  18
TORSDOF 4
