REMARK  Name = ZINC39656985
REMARK  6 active torsions:
REMARK  status: ('A' for Active; 'I' for Inactive)
REMARK    1  A    between atoms: C_1  and  C_2
REMARK    2  A    between atoms: C_6  and  C_9
REMARK    3  A    between atoms: C_13  and  C_22
REMARK    4  A    between atoms: N_24  and  C_25
REMARK    5  A    between atoms: C_25  and  C_27
REMARK    6  A    between atoms: C_25  and  C_28
REMARK                            x       y       z     vdW  Elec       q    Type
REMARK                         _______ _______ _______ _____ _____    ______ ____
ROOT
ATOM      1  C   UNL     1      -0.098  -2.595   2.268  0.00  0.00    +0.252 C 
ATOM      2  O   UNL     1       1.010  -2.807   2.722  0.00  0.00    -0.270 OA
ATOM      3  N   UNL     1      -1.190  -3.043   2.919  0.00  0.00    -0.296 N 
ATOM      4  C   UNL     1      -2.610  -2.890   2.522  0.00  0.00    +0.121 C 
ATOM      5  C   UNL     1      -3.264  -4.243   2.884  0.00  0.00    +0.100 C 
ATOM      6  C   UNL     1      -2.363  -4.833   3.981  0.00  0.00    -0.004 C 
ATOM      7  C   UNL     1      -1.242  -3.805   4.190  0.00  0.00    +0.115 C 
ATOM      8  C   UNL     1      -1.772  -6.163   3.521  0.00  0.00    -0.010 C 
ATOM      9  C   UNL     1      -0.926  -6.758   4.651  0.00  0.00    -0.082 C 
ATOM     10  N   UNL     1      -1.764  -6.957   5.839  0.00  0.00    +0.379 N 
ATOM     11  C   UNL     1      -2.253  -5.663   6.330  0.00  0.00    -0.082 C 
ATOM     12  C   UNL     1      -3.155  -5.021   5.271  0.00  0.00    -0.010 C 
ATOM     13  H   UNL     1      -2.550  -7.544   5.601  0.00  0.00    -0.086 HD
ATOM     14  H   UNL     1      -1.220  -7.405   6.561  0.00  0.00    -0.086 HD
ENDROOT
BRANCH   1  20
ATOM     15  C   UNL     1      -0.651   1.737  -0.151  0.00  0.00    +0.047 C 
ATOM     16  C   UNL     1      -0.513   0.236  -0.167  0.00  0.00    -0.014 A 
ATOM     17  C   UNL     1      -0.527  -0.445  -1.371  0.00  0.00    +0.009 A 
ATOM     18  C   UNL     1      -0.402  -1.822  -1.397  0.00  0.00    +0.039 A 
ATOM     19  C   UNL     1      -0.262  -2.529  -0.218  0.00  0.00    +0.138 A 
ATOM     20  C   UNL     1      -0.247  -1.849   1.004  0.00  0.00    +0.107 A 
ATOM     21  C   UNL     1      -0.368  -0.455   1.021  0.00  0.00    +0.141 A 
ATOM     22  F   UNL     1      -0.349   0.213   2.195  0.00  0.00    -0.204 F 
ATOM     23  F   UNL     1      -0.141  -3.875  -0.245  0.00  0.00    -0.205 F 
ENDBRANCH   1  20
BRANCH   5  24
ATOM     24  C   UNL     1      -3.292  -5.150   1.681  0.00  0.00    +0.219 C 
ATOM     25  O   UNL     1      -2.423  -5.068   0.839  0.00  0.00    -0.275 OA
ATOM     26  N   UNL     1      -4.283  -6.052   1.540  0.00  0.00    -0.308 N 
ATOM     27  H   UNL     1      -4.979  -6.118   2.213  0.00  0.00    +0.149 HD
BRANCH  26  28
ATOM     28  C   UNL     1      -4.311  -6.934   0.370  0.00  0.00    +0.100 C 
ATOM     29  C   UNL     1      -3.432  -8.158   0.634  0.00  0.00    +0.033 C 
BRANCH  28  30
ATOM     30  C   UNL     1      -5.727  -7.378   0.109  0.00  0.00    -0.027 A 
ATOM     31  C   UNL     1      -6.557  -7.697   1.168  0.00  0.00    +0.006 A 
ATOM     32  C   UNL     1      -7.856  -8.104   0.929  0.00  0.00    +0.015 A 
ATOM     33  C   UNL     1      -8.325  -8.193  -0.369  0.00  0.00    +0.018 A 
ATOM     34  C   UNL     1      -7.494  -7.874  -1.428  0.00  0.00    +0.015 A 
ATOM     35  C   UNL     1      -6.197  -7.462  -1.188  0.00  0.00    +0.006 A 
ATOM     36 BR   UNL     1     -10.102  -8.751  -0.696  0.00  0.00    -0.050 Br
ENDBRANCH  28  30
ENDBRANCH  26  28
ENDBRANCH   5  24
TORSDOF 4
