REMARK  Name = ZINC39532838
REMARK  9 active torsions:
REMARK  status: ('A' for Active; 'I' for Inactive)
REMARK    1  A    between atoms: C_1  and  C_2
REMARK    2  A    between atoms: C_2  and  C_3
REMARK    3  A    between atoms: C_3  and  C_4
REMARK    4  A    between atoms: C_7  and  C_10
REMARK    5  A    between atoms: C_10  and  C_12
REMARK    6  A    between atoms: C_10  and  N_15
REMARK    7  A    between atoms: C_12  and  N_13
REMARK    8  A    between atoms: N_13  and  O_14
REMARK    9  A    between atoms: C_19  and  O_22
REMARK                            x       y       z     vdW  Elec       q    Type
REMARK                         _______ _______ _______ _____ _____    ______ ____
ROOT
ATOM      1  C   UNL     1      -1.355  -6.312  -0.019  0.00  0.00    +0.103 C 
ENDROOT
BRANCH   1   2
ATOM      2  N   UNL     1      -2.124  -6.849   1.112  0.00  0.00    -0.295 NA
ATOM      3  C   UNL     1      -1.323  -6.840   2.344  0.00  0.00    +0.066 C 
ATOM      4  C   UNL     1      -2.177  -7.350   3.507  0.00  0.00    -0.063 C 
ATOM      5  N   UNL     1      -2.640  -8.713   3.214  0.00  0.00    +0.398 N 
ATOM      6  C   UNL     1      -3.458  -8.702   1.995  0.00  0.00    +0.073 C 
ATOM      7  C   UNL     1      -2.616  -8.203   0.819  0.00  0.00    +0.096 C 
ATOM      8  H   UNL     1      -1.843  -9.317   3.079  0.00  0.00    -0.082 HD
ATOM      9  H   UNL     1      -3.193  -9.054   3.987  0.00  0.00    -0.082 HD
BRANCH   6  10
ATOM     10  O   UNL     1      -3.923 -10.025   1.720  0.00  0.00    -0.409 OA
ATOM     11  H   UNL     1      -4.465 -10.405   2.424  0.00  0.00    +0.207 HD
ENDBRANCH   6  10
ENDBRANCH   1   2
BRANCH   1  15
ATOM     12  C   UNL     1      -1.247  -2.049   0.231  0.00  0.00    -0.047 A 
ATOM     13  C   UNL     1      -0.808  -2.685  -0.914  0.00  0.00    +0.004 A 
ATOM     14  C   UNL     1      -0.843  -4.065  -0.995  0.00  0.00    +0.005 A 
ATOM     15  C   UNL     1      -1.316  -4.808   0.070  0.00  0.00    -0.029 A 
ATOM     16  C   UNL     1      -1.755  -4.171   1.216  0.00  0.00    +0.005 A 
ATOM     17  C   UNL     1      -1.716  -2.792   1.298  0.00  0.00    +0.004 A 
BRANCH  12  18
ATOM     18  C   UNL     1      -1.208  -0.545   0.320  0.00  0.00    +0.035 C 
BRANCH  18  20
ATOM     19  C   UNL     1       0.179   1.425   0.980  0.00  0.00    +0.004 C 
ATOM     20  C   UNL     1       0.140  -0.102   0.890  0.00  0.00    +0.001 C 
ENDBRANCH  18  20
ENDBRANCH  12  18
ENDBRANCH   1  15
BRANCH   1  21
ATOM     21  C   UNL     1       0.071  -6.862   0.026  0.00  0.00    +0.134 C 
BRANCH  21  22
ATOM     22  N   UNL     1       0.032  -8.330  -0.035  0.00  0.00    -0.202 NA
ATOM     23  H   UNL     1      -0.466  -8.644  -0.854  0.00  0.00    +0.154 HD
BRANCH  22  24
ATOM     24  O   UNL     1       1.382  -8.893   0.006  0.00  0.00    -0.315 OA
ATOM     25  H   UNL     1       1.406  -9.859  -0.032  0.00  0.00    +0.236 HD
ENDBRANCH  22  24
ENDBRANCH  21  22
ENDBRANCH   1  21
TORSDOF 8
