REMARK  Name = ZINC20095608
REMARK  6 active torsions:
REMARK  status: ('A' for Active; 'I' for Inactive)
REMARK    1  A    between atoms: C_1  and  C_2
REMARK    2  A    between atoms: C_2  and  C_4
REMARK    3  A    between atoms: C_2  and  N_11
REMARK    4  A    between atoms: N_11  and  C_12
REMARK    5  A    between atoms: C_12  and  C_14
REMARK    6  A    between atoms: C_12  and  C_15
REMARK                            x       y       z     vdW  Elec       q    Type
REMARK                         _______ _______ _______ _____ _____    ______ ____
ROOT
ATOM      1  N   UNL     1      -1.239   3.272   0.916  0.00  0.00    +0.388 N 
ATOM      2  H   UNL     1      -0.802   4.114   0.359  0.00  0.00    -0.084 HD
ATOM      3  H   UNL     1      -0.586   3.013   1.762  0.00  0.00    -0.084 HD
ENDROOT
BRANCH   1   5
ATOM      4  C   UNL     1      -2.904   2.814   2.653  0.00  0.00    -0.009 C 
ATOM      5  C   UNL     1      -2.565   3.655   1.421  0.00  0.00    -0.043 C 
BRANCH   5   6
ATOM      6  C   UNL     1      -2.557   5.115   1.796  0.00  0.00    -0.061 A 
ATOM      7  C   UNL     1      -1.457   5.658   2.434  0.00  0.00    +0.005 A 
ATOM      8  C   UNL     1      -1.446   6.998   2.774  0.00  0.00    +0.038 A 
ATOM      9  C   UNL     1      -2.542   7.793   2.485  0.00  0.00    +0.123 A 
ATOM     10  C   UNL     1      -3.645   7.247   1.852  0.00  0.00    +0.038 A 
ATOM     11  C   UNL     1      -3.651   5.909   1.508  0.00  0.00    +0.005 A 
ATOM     12  F   UNL     1      -2.535   9.101   2.823  0.00  0.00    -0.205 F 
ENDBRANCH   5   6
ENDBRANCH   1   5
BRANCH   1  13
ATOM     13  C   UNL     1      -1.333   2.112   0.020  0.00  0.00    -0.043 C 
ATOM     14  C   UNL     1      -1.663   2.587  -1.397  0.00  0.00    -0.009 C 
BRANCH  13  15
ATOM     15  C   UNL     1      -0.017   1.378   0.010  0.00  0.00    -0.058 A 
ATOM     16  C   UNL     1       1.169   2.089   0.002  0.00  0.00    +0.006 A 
ATOM     17  C   UNL     1       2.379   1.420  -0.013  0.00  0.00    +0.050 A 
ATOM     18  C   UNL     1       2.405   0.035  -0.021  0.00  0.00    +0.166 A 
ATOM     19  C   UNL     1       1.211  -0.681  -0.013  0.00  0.00    +0.166 A 
ATOM     20  C   UNL     1       0.002  -0.004   0.002  0.00  0.00    +0.051 A 
ATOM     21  O   UNL     1       1.501  -2.015  -0.024  0.00  0.00    -0.453 OA
ATOM     22  C   UNL     1       2.881  -2.111   0.375  0.00  0.00    +0.466 C 
ATOM     23  O   UNL     1       3.444  -0.851  -0.036  0.00  0.00    -0.453 OA
ENDBRANCH  13  15
ENDBRANCH   1  13
TORSDOF 4
