REMARK  Name = ZINC36039437
REMARK  8 active torsions:
REMARK  status: ('A' for Active; 'I' for Inactive)
REMARK    1  A    between atoms: C_1  and  C_2
REMARK    2  A    between atoms: C_2  and  N_3
REMARK    3  A    between atoms: N_3  and  C_4
REMARK    4  A    between atoms: C_4  and  C_5
REMARK    5  A    between atoms: C_5  and  N_7
REMARK    6  A    between atoms: C_10  and  C_20
REMARK    7  A    between atoms: N_12  and  C_13
REMARK    8  A    between atoms: C_16  and  C_19
REMARK                            x       y       z     vdW  Elec       q    Type
REMARK                         _______ _______ _______ _____ _____    ______ ____
ROOT
ATOM      1  N   UNL     1       1.552  -3.735  -2.673  0.00  0.00    -0.148 NA
ATOM      2  C   UNL     1       2.176  -4.165  -3.770  0.00  0.00    +0.205 A 
ATOM      3  N   UNL     1       2.720  -3.382  -4.736  0.00  0.00    -0.326 N 
ATOM      4  C   UNL     1       3.271  -4.218  -5.701  0.00  0.00    +0.066 A 
ATOM      5  C   UNL     1       3.059  -5.489  -5.316  0.00  0.00    +0.120 A 
ATOM      6  N   UNL     1       2.384  -5.465  -4.113  0.00  0.00    -0.287 N 
ATOM      7  H   UNL     1       2.724  -2.412  -4.751  0.00  0.00    +0.169 HD
ENDROOT
BRANCH   6   8
ATOM      8  C   UNL     1       1.980  -6.585  -3.376  0.00  0.00    +0.049 A 
ATOM      9  C   UNL     1       1.296  -6.419  -2.178  0.00  0.00    +0.026 A 
ATOM     10  C   UNL     1       0.899  -7.525  -1.453  0.00  0.00    +0.005 A 
ATOM     11  C   UNL     1       1.181  -8.797  -1.918  0.00  0.00    -0.050 A 
ATOM     12  C   UNL     1       1.862  -8.965  -3.110  0.00  0.00    +0.005 A 
ATOM     13  C   UNL     1       2.257  -7.862  -3.843  0.00  0.00    +0.026 A 
ATOM     14  C   UNL     1       0.746 -10.002  -1.124  0.00  0.00    +0.044 C 
ENDBRANCH   6   8
BRANCH   4  15
ATOM     15  C   UNL     1       3.967  -3.785  -6.933  0.00  0.00    -0.000 A 
ATOM     16  C   UNL     1       4.470  -4.734  -7.824  0.00  0.00    +0.010 A 
ATOM     17  C   UNL     1       5.117  -4.324  -8.971  0.00  0.00    +0.001 A 
ATOM     18  C   UNL     1       5.269  -2.975  -9.239  0.00  0.00    +0.000 A 
ATOM     19  C   UNL     1       4.774  -2.029  -8.359  0.00  0.00    +0.001 A 
ATOM     20  C   UNL     1       4.119  -2.426  -7.212  0.00  0.00    +0.010 A 
ENDBRANCH   4  15
BRANCH   1  21
ATOM     21  C   UNL     1       1.415  -2.433  -2.455  0.00  0.00    +0.222 C 
ATOM     22  O   UNL     1       1.859  -1.632  -3.255  0.00  0.00    -0.276 OA
BRANCH  21  23
ATOM     23  C   UNL     1       0.710  -1.947  -1.215  0.00  0.00    +0.017 C 
BRANCH  23  24
ATOM     24  N   UNL     1       0.690  -0.478  -1.207  0.00  0.00    +0.385 N 
ATOM     25  H   UNL     1       0.202  -0.144  -2.024  0.00  0.00    -0.085 HD
ATOM     26  H   UNL     1       1.636  -0.129  -1.214  0.00  0.00    -0.085 HD
BRANCH  24  28
ATOM     27  C   UNL     1      -0.019   1.526   0.010  0.00  0.00    -0.017 C 
ATOM     28  C   UNL     1       0.002  -0.004   0.002  0.00  0.00    -0.085 C 
ENDBRANCH  24  28
ENDBRANCH  23  24
ENDBRANCH  21  23
ENDBRANCH   1  21
TORSDOF 6
