REMARK  Name = ZINC21797868
REMARK  4 active torsions:
REMARK  status: ('A' for Active; 'I' for Inactive)
REMARK    1  A    between atoms: C_3  and  C_17
REMARK    2  A    between atoms: C_4  and  O_7
REMARK    3  A    between atoms: O_7  and  C_8
REMARK    4  A    between atoms: N_18  and  O_19
REMARK                            x       y       z     vdW  Elec       q    Type
REMARK                         _______ _______ _______ _____ _____    ______ ____
ROOT
ATOM      1  C   UNL     1       5.762   4.016  -0.345  0.00  0.00    +0.021 A 
ATOM      2  C   UNL     1       5.888   2.637  -0.361  0.00  0.00    +0.018 A 
ATOM      3  C   UNL     1       4.730   1.864  -0.247  0.00  0.00    +0.080 A 
ATOM      4  C   UNL     1       3.493   2.512  -0.122  0.00  0.00    +0.231 A 
ATOM      5  N   UNL     1       3.427   3.832  -0.118  0.00  0.00    -0.220 NA
ATOM      6  C   UNL     1       4.508   4.583  -0.219  0.00  0.00    +0.114 A 
ENDROOT
BRANCH   3   7
ATOM      7  C   UNL     1       4.808   0.387  -0.259  0.00  0.00    +0.168 C 
ATOM      8  N   UNL     1       3.722  -0.323  -0.152  0.00  0.00    -0.071 NA
ATOM      9  N   UNL     1       6.036  -0.241  -0.383  0.00  0.00    -0.340 N 
ATOM     10  H   UNL     1       6.093  -1.339  -0.391  0.00  0.00    +0.144 HD
ATOM     11  H   UNL     1       6.954   0.359  -0.472  0.00  0.00    +0.144 HD
BRANCH   8  12
ATOM     12  O   UNL     1       3.796  -1.737  -0.163  0.00  0.00    -0.408 OA
ATOM     13  H   UNL     1       2.878  -2.336  -0.073  0.00  0.00    +0.328 HD
ENDBRANCH   8  12
ENDBRANCH   3   7
BRANCH   4  14
ATOM     14  O   UNL     1       2.358   1.780  -0.011  0.00  0.00    -0.436 OA
BRANCH  14  15
ATOM     15  C   UNL     1       1.170   2.442  -0.010  0.00  0.00    +0.150 A 
ATOM     16  C   UNL     1       0.542   2.738   1.191  0.00  0.00    +0.069 A 
ATOM     17  C   UNL     1      -0.666   3.411   1.190  0.00  0.00    +0.063 A 
ATOM     18  C   UNL     1      -1.248   3.789  -0.008  0.00  0.00    +0.061 A 
ATOM     19  C   UNL     1      -0.620   3.499  -1.206  0.00  0.00    +0.045 A 
ATOM     20  C   UNL     1       0.585   2.821  -1.210  0.00  0.00    +0.085 A 
ATOM     21 CL   UNL     1       1.369   2.452  -2.714  0.00  0.00    -0.080 Cl
ATOM     22 CL   UNL     1      -2.764   4.635  -0.007  0.00  0.00    -0.082 Cl
ATOM     23 CL   UNL     1      -1.453   3.782   2.692  0.00  0.00    -0.082 Cl
ENDBRANCH  14  15
ENDBRANCH   4  14
TORSDOF 4
