REMARK  Name = ZINC57476382
REMARK  5 active torsions:
REMARK  status: ('A' for Active; 'I' for Inactive)
REMARK    1  A    between atoms: C_5  and  C_7
REMARK    2  A    between atoms: C_9  and  C_12
REMARK    3  A    between atoms: C_12  and  S_13
REMARK    4  A    between atoms: S_13  and  C_14
REMARK    5  A    between atoms: C_18  and  N_20
REMARK                            x       y       z     vdW  Elec       q    Type
REMARK                         _______ _______ _______ _____ _____    ______ ____
ROOT
ATOM      1  C   UNL     1      -0.718  -5.270  -0.033  0.00  0.00    +0.133 C 
ENDROOT
BRANCH   1   4
ATOM      2  C   UNL     1       1.249  -2.161  -0.023  0.00  0.00    +0.110 A 
ATOM      3  N   UNL     1       0.240  -3.021  -0.023  0.00  0.00    -0.243 NA
ATOM      4  C   UNL     1       0.449  -4.316  -0.033  0.00  0.00    +0.059 A 
ATOM      5  C   UNL     1       1.721  -4.797  -0.042  0.00  0.00    +0.071 A 
ATOM      6  S   UNL     1       2.651  -3.270  -0.044  0.00  0.00    -0.075 S 
BRANCH   2  11
ATOM      7  C   UNL     1      -0.017   1.375   0.010  0.00  0.00    +0.001 A 
ATOM      8  C   UNL     1       1.170   2.087   0.002  0.00  0.00    +0.001 A 
ATOM      9  C   UNL     1       2.383   1.422  -0.013  0.00  0.00    +0.020 A 
ATOM     10  C   UNL     1       2.416   0.041  -0.021  0.00  0.00    +0.051 A 
ATOM     11  C   UNL     1       1.222  -0.682  -0.014  0.00  0.00    +0.025 A 
ATOM     12  C   UNL     1       0.002  -0.004   0.002  0.00  0.00    +0.012 A 
ATOM     13 CL   UNL     1       3.938  -0.793  -0.041  0.00  0.00    -0.083 Cl
ENDBRANCH   2  11
ENDBRANCH   1   4
BRANCH   1  14
ATOM     14  S   UNL     1      -1.195  -5.641  -1.743  0.00  0.00    -0.080 S 
BRANCH  14  15
ATOM     15  C   UNL     1      -2.553  -6.752  -1.575  0.00  0.00    +0.192 A 
ATOM     16  N   UNL     1      -2.962  -7.091  -0.361  0.00  0.00    -0.207 NA
ATOM     17  C   UNL     1      -3.985  -7.927  -0.196  0.00  0.00    +0.122 A 
ATOM     18  C   UNL     1      -4.625  -8.445  -1.318  0.00  0.00    +0.086 A 
ATOM     19  C   UNL     1      -4.167  -8.065  -2.577  0.00  0.00    +0.122 A 
ATOM     20  N   UNL     1      -3.141  -7.221  -2.665  0.00  0.00    -0.207 NA
ATOM     21  N   UNL     1      -4.406  -8.278   1.077  0.00  0.00    -0.343 N 
ATOM     22  H   UNL     1      -3.955  -7.914   1.855  0.00  0.00    +0.144 HD
ATOM     23  H   UNL     1      -5.152  -8.888   1.190  0.00  0.00    +0.144 HD
BRANCH  19  24
ATOM     24  N   UNL     1      -4.773  -8.556  -3.723  0.00  0.00    -0.343 N 
ATOM     25  H   UNL     1      -5.522  -9.168  -3.651  0.00  0.00    +0.144 HD
ATOM     26  H   UNL     1      -4.449  -8.287  -4.596  0.00  0.00    +0.144 HD
ENDBRANCH  19  24
ENDBRANCH  14  15
ENDBRANCH   1  14
TORSDOF 5
