REMARK  Name = ZINC22966117
REMARK  9 active torsions:
REMARK  status: ('A' for Active; 'I' for Inactive)
REMARK    1  A    between atoms: C_1  and  C_2
REMARK    2  A    between atoms: C_2  and  C_4
REMARK    3  A    between atoms: C_2  and  N_18
REMARK    4  A    between atoms: N_6  and  C_7
REMARK    5  A    between atoms: C_8  and  C_15
REMARK    6  A    between atoms: N_18  and  C_19
REMARK    7  A    between atoms: N_18  and  C_20
REMARK    8  A    between atoms: C_20  and  C_21
REMARK    9  A    between atoms: C_26  and  C_27
REMARK                            x       y       z     vdW  Elec       q    Type
REMARK                         _______ _______ _______ _____ _____    ______ ____
ROOT
ATOM      1  C   UNL     1       1.629   4.445   0.012  0.00  0.00    +0.204 C 
ATOM      2  O   UNL     1       0.416   4.408   0.024  0.00  0.00    -0.277 OA
ATOM      3  N   UNL     1       2.338   3.299  -0.002  0.00  0.00    -0.281 N 
ATOM      4  H   UNL     1       3.437   3.333  -0.013  0.00  0.00    +0.155 HD
ENDROOT
BRANCH   3   5
ATOM      5  C   UNL     1       1.681   2.078  -0.003  0.00  0.00    +0.084 A 
ATOM      6  C   UNL     1       2.229   0.806  -0.015  0.00  0.00    +0.068 A 
ATOM      7  C   UNL     1       1.307  -0.329  -0.013  0.00  0.00    -0.023 A 
ATOM      8  C   UNL     1       0.002  -0.004   0.002  0.00  0.00    -0.004 A 
ATOM      9  S   UNL     1      -0.022   1.772   0.012  0.00  0.00    -0.077 S 
ATOM     10  C   UNL     1      -0.882  -1.222   0.007  0.00  0.00    +0.043 C 
ATOM     11  C   UNL     1       0.051  -2.378   0.429  0.00  0.00    +0.010 C 
ATOM     12  C   UNL     1       1.427  -1.853  -0.025  0.00  0.00    +0.037 C 
BRANCH   6  13
ATOM     13  C   UNL     1       3.682   0.606  -0.029  0.00  0.00    +0.244 C 
ATOM     14  O   UNL     1       4.275   0.528  -1.089  0.00  0.00    -0.270 OA
ATOM     15  N   UNL     1       4.360   0.506   1.131  0.00  0.00    -0.325 N 
ATOM     16  H   UNL     1       5.450   0.355   1.120  0.00  0.00    +0.145 HD
ATOM     17  H   UNL     1       3.824   0.576   2.089  0.00  0.00    +0.145 HD
ENDBRANCH   6  13
ENDBRANCH   3   5
BRANCH   1  19
ATOM     18  C   UNL     1       3.206   5.888  -1.245  0.00  0.00    -0.004 C 
ATOM     19  C   UNL     1       2.342   5.773   0.013  0.00  0.00    +0.016 C 
BRANCH  19  20
ATOM     20  N   UNL     1       1.354   6.859   0.029  0.00  0.00    +0.388 N 
ATOM     21  C   UNL     1       0.496   6.809  -1.163  0.00  0.00    -0.095 C 
ATOM     22  H   UNL     1       0.713   6.720   0.912  0.00  0.00    -0.081 HD
BRANCH  20  23
ATOM     23  C   UNL     1       2.012   8.167   0.150  0.00  0.00    -0.042 C 
BRANCH  23  24
ATOM     24  C   UNL     1       0.974   9.229   0.409  0.00  0.00    -0.052 A 
ATOM     25  C   UNL     1       0.533  10.032  -0.626  0.00  0.00    +0.002 A 
ATOM     26  C   UNL     1      -0.422  11.003  -0.389  0.00  0.00    +0.000 A 
ATOM     27  C   UNL     1      -0.928  11.178   0.886  0.00  0.00    +0.001 A 
ATOM     28  C   UNL     1      -0.482  10.379   1.922  0.00  0.00    +0.012 A 
ATOM     29  C   UNL     1       0.469   9.405   1.684  0.00  0.00    +0.056 A 
BRANCH  29  30
ATOM     30  C   UNL     1       0.955   8.534   2.814  0.00  0.00    +0.418 C 
ATOM     31  F   UNL     1       0.302   8.897   3.997  0.00  0.00    -0.166 F 
ATOM     32  F   UNL     1       0.678   7.194   2.522  0.00  0.00    -0.166 F 
ATOM     33  F   UNL     1       2.335   8.702   2.971  0.00  0.00    -0.166 F 
ENDBRANCH  29  30
ENDBRANCH  23  24
ENDBRANCH  20  23
ENDBRANCH  19  20
ENDBRANCH   1  19
TORSDOF 7
