REMARK  Name = ZINC47683751
REMARK  11 active torsions:
REMARK  status: ('A' for Active; 'I' for Inactive)
REMARK    1  A    between atoms: C_1  and  C_2
REMARK    2  A    between atoms: C_2  and  C_3
REMARK    3  A    between atoms: C_2  and  N_4
REMARK    4  A    between atoms: N_4  and  C_5
REMARK    5  A    between atoms: N_4  and  C_25
REMARK    6  A    between atoms: C_5  and  C_6
REMARK    7  A    between atoms: C_6  and  N_7
REMARK    8  A    between atoms: N_10  and  C_11
REMARK    9  A    between atoms: C_17  and  C_19
REMARK   10  A    between atoms: C_25  and  C_26
REMARK   11  A    between atoms: C_25  and  C_27
REMARK                            x       y       z     vdW  Elec       q    Type
REMARK                         _______ _______ _______ _____ _____    ______ ____
ROOT
ATOM      1  N   UNL     1      -4.441   1.382  -1.970  0.00  0.00    -0.301 N 
ATOM      2  C   UNL     1      -4.358   2.716  -2.140  0.00  0.00    +0.300 C 
ATOM      3  O   UNL     1      -3.689   3.386  -1.376  0.00  0.00    -0.253 OA
ATOM      4  N   UNL     1      -5.015   3.309  -3.157  0.00  0.00    -0.296 N 
ATOM      5  H   UNL     1      -4.974   0.848  -2.579  0.00  0.00    +0.150 HD
ATOM      6  H   UNL     1      -5.548   2.775  -3.766  0.00  0.00    +0.151 HD
ENDROOT
BRANCH   4   7
ATOM      7  C   UNL     1      -4.923   4.759  -3.341  0.00  0.00    +0.077 C 
ATOM      8  C   UNL     1      -5.963   5.452  -2.458  0.00  0.00    +0.041 C 
ATOM      9  C   UNL     1      -5.842   6.970  -2.627  0.00  0.00    +0.109 C 
ATOM     10  N   UNL     1      -5.950   7.296  -4.056  0.00  0.00    -0.301 N 
ATOM     11  C   UNL     1      -5.058   6.618  -5.005  0.00  0.00    +0.109 C 
ATOM     12  C   UNL     1      -5.188   5.104  -4.809  0.00  0.00    +0.041 C 
ATOM     13  C   UNL     1      -6.852   8.200  -4.487  0.00  0.00    +0.219 C 
ATOM     14  O   UNL     1      -7.513   8.827  -3.686  0.00  0.00    -0.275 OA
BRANCH  13  15
ATOM     15  C   UNL     1      -7.040   8.432  -5.964  0.00  0.00    +0.075 C 
ATOM     16  C   UNL     1      -5.790   9.104  -6.538  0.00  0.00    +0.013 C 
ATOM     17  C   UNL     1      -5.981   9.339  -8.037  0.00  0.00    +0.001 C 
ATOM     18  C   UNL     1      -7.195  10.243  -8.262  0.00  0.00    +0.000 C 
ATOM     19  C   UNL     1      -8.444   9.570  -7.689  0.00  0.00    +0.001 C 
ATOM     20  C   UNL     1      -8.254   9.335  -6.189  0.00  0.00    +0.013 C 
ENDBRANCH  13  15
ENDBRANCH   4   7
BRANCH   1  21
ATOM     21  C   UNL     1      -3.727   0.738  -0.864  0.00  0.00    +0.087 C 
BRANCH  21  22
ATOM     22  C   UNL     1      -3.988  -0.769  -0.898  0.00  0.00    -0.059 C 
BRANCH  22  23
ATOM     23  N   UNL     1      -3.399  -1.395   0.293  0.00  0.00    +0.384 N 
ATOM     24  H   UNL     1      -3.727  -0.919   1.120  0.00  0.00    -0.081 HD
BRANCH  23  26
ATOM     25  C   UNL     1      -1.497  -1.250  -1.243  0.00  0.00    -0.014 C 
ATOM     26  C   UNL     1      -1.935  -1.300   0.223  0.00  0.00    -0.074 C 
ATOM     27  C   UNL     1      -1.471  -0.029   0.937  0.00  0.00    -0.014 C 
ENDBRANCH  23  26
BRANCH  23  28
ATOM     28  C   UNL     1      -3.796  -2.808   0.352  0.00  0.00    -0.074 C 
ATOM     29  C   UNL     1      -3.287  -3.427   1.655  0.00  0.00    -0.014 C 
ATOM     30  C   UNL     1      -5.322  -2.911   0.300  0.00  0.00    -0.014 C 
ENDBRANCH  23  28
ENDBRANCH  22  23
ENDBRANCH  21  22
ENDBRANCH   1  21
TORSDOF 7
