REMARK  Name = ZINC65503976
REMARK  4 active torsions:
REMARK  status: ('A' for Active; 'I' for Inactive)
REMARK    1  A    between atoms: C_1  and  C_2
REMARK    2  A    between atoms: C_4  and  C_13
REMARK    3  A    between atoms: C_13  and  C_14
REMARK    4  A    between atoms: N_16  and  C_17
REMARK                            x       y       z     vdW  Elec       q    Type
REMARK                         _______ _______ _______ _____ _____    ______ ____
ROOT
ATOM      1  C   UNL     1       0.208  -0.467  -2.706  0.00  0.00    +0.129 C 
ENDROOT
BRANCH   1   4
ATOM      2  C   UNL     1      -1.606  -2.281  -0.725  0.00  0.00    +0.035 C 
ATOM      3  C   UNL     1      -0.076  -2.243  -0.691  0.00  0.00    +0.104 C 
ATOM      4  C   UNL     1       0.427  -0.952  -1.296  0.00  0.00    -0.030 C 
ATOM      5  C   UNL     1       1.113  -0.321  -0.317  0.00  0.00    +0.002 A 
ATOM      6  C   UNL     1       1.834   0.956  -0.269  0.00  0.00    +0.010 A 
ATOM      7  C   UNL     1       2.439   1.337   0.877  0.00  0.00    +0.004 A 
ATOM      8  C   UNL     1       2.408   0.555   2.039  0.00  0.00    +0.040 A 
ATOM      9  C   UNL     1       1.771  -0.637   2.098  0.00  0.00    +0.147 A 
ATOM     10  C   UNL     1       1.078  -1.150   0.910  0.00  0.00    +0.079 A 
ATOM     11  N   UNL     1       0.399  -2.251   0.697  0.00  0.00    -0.376 N 
ATOM     12  F   UNL     1       1.773  -1.352   3.244  0.00  0.00    -0.203 F 
ATOM     13  H   UNL     1       0.237  -2.952   1.347  0.00  0.00    +0.160 HD
ENDBRANCH   1   4
BRANCH   1  14
ATOM     14  C   UNL     1       1.270  -1.045  -3.607  0.00  0.00    +0.218 C 
ATOM     15  O   UNL     1       2.060  -1.854  -3.170  0.00  0.00    -0.275 OA
ATOM     16  N   UNL     1       1.341  -0.662  -4.897  0.00  0.00    -0.304 N 
ATOM     17  H   UNL     1       0.708  -0.015  -5.246  0.00  0.00    +0.149 HD
BRANCH  16  18
ATOM     18  C   UNL     1       2.372  -1.225  -5.772  0.00  0.00    +0.159 C 
ATOM     19  C   UNL     1       2.518  -0.352  -7.021  0.00  0.00    +0.032 C 
ATOM     20  C   UNL     1       1.176   0.221  -7.437  0.00  0.00    +0.004 C 
ATOM     21  C   UNL     1       0.187  -0.824  -7.921  0.00  0.00    +0.019 C 
ATOM     22  C   UNL     1      -0.233  -1.749  -6.778  0.00  0.00    +0.104 C 
ATOM     23  N   UNL     1       0.742  -2.846  -6.677  0.00  0.00    -0.314 N 
ATOM     24  C   UNL     1       1.971  -2.620  -6.200  0.00  0.00    +0.233 C 
ATOM     25  O   UNL     1       2.767  -3.531  -6.115  0.00  0.00    -0.274 OA
ATOM     26  H   UNL     1       0.492  -3.741  -6.956  0.00  0.00    +0.149 HD
ENDBRANCH  16  18
ENDBRANCH   1  14
TORSDOF 3
