REMARK  Name = ZINC49307214
REMARK  10 active torsions:
REMARK  status: ('A' for Active; 'I' for Inactive)
REMARK    1  A    between atoms: C_1  and  C_2
REMARK    2  A    between atoms: C_2  and  C_4
REMARK    3  A    between atoms: C_2  and  N_7
REMARK    4  A    between atoms: C_4  and  C_5
REMARK    5  A    between atoms: C_4  and  C_6
REMARK    6  A    between atoms: C_8  and  C_10
REMARK    7  A    between atoms: C_10  and  O_11
REMARK    8  A    between atoms: O_11  and  C_12
REMARK    9  A    between atoms: C_17  and  C_18
REMARK   10  A    between atoms: C_18  and  N_19
REMARK                            x       y       z     vdW  Elec       q    Type
REMARK                         _______ _______ _______ _____ _____    ______ ____
ROOT
ATOM      1  C   UNL     1       4.994  -1.556   3.139  0.00  0.00    +0.123 A 
ATOM      2  C   UNL     1       4.444  -1.948   4.351  0.00  0.00    +0.047 A 
ATOM      3  C   UNL     1       5.266  -2.383   5.372  0.00  0.00    +0.019 A 
ATOM      4  C   UNL     1       6.637  -2.429   5.187  0.00  0.00    +0.018 A 
ATOM      5  C   UNL     1       7.187  -2.039   3.979  0.00  0.00    +0.020 A 
ATOM      6  C   UNL     1       6.368  -1.608   2.953  0.00  0.00    -0.022 A 
ATOM      7 BR   UNL     1       7.759  -3.026   6.586  0.00  0.00    -0.050 Br
ENDROOT
BRANCH   1   8
ATOM      8  O   UNL     1       4.187  -1.127   2.133  0.00  0.00    -0.483 OA
BRANCH   8   9
ATOM      9  C   UNL     1       2.783  -1.099   2.395  0.00  0.00    +0.324 C 
BRANCH   9  11
ATOM     10  N   UNL     1       0.711  -0.489   1.189  0.00  0.00    -0.310 N 
ATOM     11  C   UNL     1       2.054  -0.600   1.174  0.00  0.00    +0.251 C 
ATOM     12  O   UNL     1       2.676  -0.297   0.177  0.00  0.00    -0.272 OA
ATOM     13  H   UNL     1       0.213  -0.731   1.986  0.00  0.00    +0.149 HD
BRANCH  10  15
ATOM     14  C   UNL     1      -0.019   1.526   0.010  0.00  0.00    +0.028 C 
ATOM     15  C   UNL     1       0.002  -0.004   0.002  0.00  0.00    +0.073 C 
BRANCH  15  16
ATOM     16  C   UNL     1      -1.433  -0.534   0.013  0.00  0.00    +0.003 C 
ATOM     17  C   UNL     1      -2.187   0.060   1.205  0.00  0.00    +0.009 C 
ATOM     18  C   UNL     1      -2.135  -0.131  -1.286  0.00  0.00    +0.009 C 
ENDBRANCH  15  16
ENDBRANCH  10  15
ENDBRANCH   9  11
ENDBRANCH   8   9
ENDBRANCH   1   8
BRANCH   6  19
ATOM     19  C   UNL     1       6.967  -1.189   1.635  0.00  0.00    -0.047 C 
BRANCH  19  20
ATOM     20  N   UNL     1       7.052   0.276   1.580  0.00  0.00    +0.381 N 
ATOM     21  H   UNL     1       7.453   0.557   0.697  0.00  0.00    -0.090 HD
ATOM     22  H   UNL     1       6.128   0.671   1.669  0.00  0.00    -0.090 HD
ATOM     23  H   UNL     1       7.634   0.608   2.334  0.00  0.00    -0.090 HD
ENDBRANCH  19  20
ENDBRANCH   6  19
TORSDOF 7
