REMARK  Name = ZINC40510103
REMARK  6 active torsions:
REMARK  status: ('A' for Active; 'I' for Inactive)
REMARK    1  A    between atoms: C_1  and  C_2
REMARK    2  A    between atoms: C_4  and  C_21
REMARK    3  A    between atoms: C_7  and  C_8
REMARK    4  A    between atoms: C_8  and  N_10
REMARK    5  A    between atoms: C_13  and  C_20
REMARK    6  A    between atoms: C_16  and  C_19
REMARK                            x       y       z     vdW  Elec       q    Type
REMARK                         _______ _______ _______ _____ _____    ______ ____
ROOT
ATOM      1  C   UNL     1       2.470  -0.526  -1.307  0.00  0.00    +0.044 C 
ATOM      2  C   UNL     1       1.203  -0.986  -0.634  0.00  0.00    -0.036 A 
ATOM      3  C   UNL     1      -0.036  -0.599  -1.114  0.00  0.00    +0.025 A 
ATOM      4  C   UNL     1      -1.182  -1.037  -0.476  0.00  0.00    +0.015 A 
ATOM      5  N   UNL     1      -1.118  -1.818   0.585  0.00  0.00    -0.347 N 
ATOM      6  C   UNL     1       0.040  -2.219   1.086  0.00  0.00    +0.109 A 
ATOM      7  C   UNL     1       1.249  -1.821   0.489  0.00  0.00    +0.044 A 
ATOM      8  N   UNL     1       0.060  -3.039   2.200  0.00  0.00    -0.316 N 
ATOM      9  C   UNL     1       0.002  -2.467   3.552  0.00  0.00    +0.109 C 
ATOM     10  C   UNL     1      -1.148  -3.128   4.318  0.00  0.00    +0.004 C 
ATOM     11  C   UNL     1      -0.970  -4.647   4.286  0.00  0.00    +0.009 C 
ATOM     12  C   UNL     1      -1.011  -5.137   2.837  0.00  0.00    +0.004 C 
ATOM     13  C   UNL     1       0.135  -4.499   2.054  0.00  0.00    +0.109 C 
ATOM     14  C   UNL     1      -0.867  -6.660   2.808  0.00  0.00    +0.009 C 
ATOM     15  C   UNL     1      -1.141  -2.643   5.769  0.00  0.00    +0.009 C 
ATOM     16  C   UNL     1      -2.529  -0.613  -1.001  0.00  0.00    +0.063 C 
ATOM     17  H   UNL     1      -1.941  -2.107   1.009  0.00  0.00    +0.167 HD
ENDROOT
BRANCH   7  18
ATOM     18  C   UNL     1       2.540  -2.269   1.038  0.00  0.00    +0.080 C 
ATOM     19  S   UNL     1       3.315  -3.649   0.386  0.00  0.00    -0.035 S 
BRANCH  18  20
ATOM     20  N   UNL     1       3.111  -1.592   2.053  0.00  0.00    -0.352 N 
ATOM     21  H   UNL     1       2.711  -0.769   2.374  0.00  0.00    +0.143 HD
ATOM     22  H   UNL     1       3.924  -1.928   2.464  0.00  0.00    +0.143 HD
ENDBRANCH  18  20
ENDBRANCH   7  18
TORSDOF 2
