REMARK  Name = ZINC41249886
REMARK  8 active torsions:
REMARK  status: ('A' for Active; 'I' for Inactive)
REMARK    1  A    between atoms: C_1  and  C_2
REMARK    2  A    between atoms: C_2  and  C_4
REMARK    3  A    between atoms: C_2  and  N_19
REMARK    4  A    between atoms: C_10  and  C_13
REMARK    5  A    between atoms: N_19  and  S_20
REMARK    6  A    between atoms: S_20  and  N_23
REMARK    7  A    between atoms: N_23  and  C_24
REMARK    8  A    between atoms: N_23  and  C_25
REMARK                            x       y       z     vdW  Elec       q    Type
REMARK                         _______ _______ _______ _____ _____    ______ ____
ROOT
ATOM      1  C   UNL     1       0.609  -0.451  -1.303  0.00  0.00    +0.234 C 
ATOM      2  O   UNL     1       1.568  -1.194  -1.302  0.00  0.00    -0.274 OA
ATOM      3  N   UNL     1       0.088  -0.024  -2.470  0.00  0.00    -0.295 N 
ATOM      4  C   UNL     1      -0.999   0.968  -2.496  0.00  0.00    +0.136 C 
ATOM      5  C   UNL     1      -2.120   0.433  -3.395  0.00  0.00    +0.179 C 
ATOM      6  O   UNL     1      -1.570   0.059  -4.661  0.00  0.00    -0.369 OA
ATOM      7  C   UNL     1      -0.609  -0.997  -4.593  0.00  0.00    +0.166 C 
ATOM      8  C   UNL     1       0.593  -0.531  -3.756  0.00  0.00    +0.144 C 
ENDROOT
BRANCH   7   9
ATOM      9  C   UNL     1      -0.148  -1.348  -5.984  0.00  0.00    -0.017 A 
ATOM     10  C   UNL     1       0.080  -0.347  -6.909  0.00  0.00    +0.006 A 
ATOM     11  C   UNL     1       0.504  -0.669  -8.185  0.00  0.00    +0.000 A 
ATOM     12  C   UNL     1       0.700  -1.992  -8.535  0.00  0.00    +0.000 A 
ATOM     13  C   UNL     1       0.472  -2.993  -7.609  0.00  0.00    +0.000 A 
ATOM     14  C   UNL     1       0.053  -2.670  -6.332  0.00  0.00    +0.006 A 
ENDBRANCH   7   9
BRANCH   1  16
ATOM     15  C   UNL     1       0.539   1.378   0.370  0.00  0.00    +0.035 C 
ATOM     16  C   UNL     1       0.001  -0.006   0.002  0.00  0.00    +0.160 C 
BRANCH  16  17
ATOM     17  N   UNL     1       0.350  -0.962   1.055  0.00  0.00    -0.168 NA
ATOM     18  H   UNL     1       1.216  -1.399   1.046  0.00  0.00    +0.150 HD
BRANCH  17  19
ATOM     19  S   UNL     1      -0.733  -1.297   2.262  0.00  0.00    +0.097 S 
ATOM     20  O   UNL     1      -0.120  -2.267   3.101  0.00  0.00    -0.141 OA
ATOM     21  O   UNL     1      -1.193  -0.046   2.754  0.00  0.00    -0.141 OA
BRANCH  19  22
ATOM     22  N   UNL     1      -2.037  -2.037   1.558  0.00  0.00    -0.173 NA
ATOM     23  C   UNL     1      -2.067  -3.496   1.424  0.00  0.00    +0.132 C 
ATOM     24  C   UNL     1      -3.160  -1.233   1.071  0.00  0.00    +0.132 C 
ENDBRANCH  19  22
ENDBRANCH  17  19
ENDBRANCH  16  17
ENDBRANCH   1  16
TORSDOF 5
