REMARK  Name = ZINC62962692
REMARK  3 active torsions:
REMARK  status: ('A' for Active; 'I' for Inactive)
REMARK    1  A    between atoms: N_9  and  C_13
REMARK    2  A    between atoms: C_13  and  C_20
REMARK    3  A    between atoms: C_20  and  N_21
REMARK                            x       y       z     vdW  Elec       q    Type
REMARK                         _______ _______ _______ _____ _____    ______ ____
ROOT
ATOM      1  C   UNL     1      -0.642  -2.528   1.195  0.00  0.00    +0.028 C 
ATOM      2  C   UNL     1      -0.935  -4.011   0.976  0.00  0.00    +0.044 C 
ATOM      3  C   UNL     1      -2.234  -4.186   0.141  0.00  0.00    +0.168 C 
ATOM      4  S   UNL     1      -2.014  -2.804  -1.064  0.00  0.00    -0.029 S 
ATOM      5  O   UNL     1      -1.135  -3.222  -2.099  0.00  0.00    -0.174 OA
ATOM      6  O   UNL     1      -3.287  -2.267  -1.397  0.00  0.00    -0.174 OA
ATOM      7  C   UNL     1      -1.130  -1.628   0.043  0.00  0.00    +0.186 C 
ENDROOT
BRANCH   1  14
ATOM      8  C   UNL     1       0.897   1.444   1.389  0.00  0.00    +0.002 C 
ATOM      9  C   UNL     1       2.415   1.606   1.491  0.00  0.00    +0.003 C 
ATOM     10  C   UNL     1       2.983   0.550   2.442  0.00  0.00    +0.033 C 
ATOM     11  C   UNL     1       2.648  -0.843   1.907  0.00  0.00    +0.135 C 
ATOM     12  C   UNL     1       1.127  -1.000   1.827  0.00  0.00    +0.086 C 
ATOM     13  C   UNL     1       0.562   0.045   0.866  0.00  0.00    +0.021 C 
ATOM     14  N   UNL     1       0.808  -2.352   1.348  0.00  0.00    -0.289 NA
ATOM     15  C   UNL     1       1.370  -3.365   2.254  0.00  0.00    +0.113 C 
ATOM     16  C   UNL     1       2.886  -3.180   2.350  0.00  0.00    +0.175 C 
ATOM     17  O   UNL     1       3.176  -1.845   2.777  0.00  0.00    -0.374 OA
ENDBRANCH   1  14
BRANCH   1  18
ATOM     18  C   UNL     1      -1.327  -2.082   2.489  0.00  0.00    -0.062 C 
BRANCH  18  19
ATOM     19  N   UNL     1      -1.486  -0.622   2.481  0.00  0.00    +0.379 N 
ATOM     20  H   UNL     1      -0.583  -0.186   2.369  0.00  0.00    -0.090 HD
ATOM     21  H   UNL     1      -2.087  -0.353   1.717  0.00  0.00    -0.090 HD
ATOM     22  H   UNL     1      -1.897  -0.324   3.353  0.00  0.00    -0.090 HD
ENDBRANCH  18  19
ENDBRANCH   1  18
TORSDOF 3
