REMARK  Name = ZINC40921965
REMARK  9 active torsions:
REMARK  status: ('A' for Active; 'I' for Inactive)
REMARK    1  A    between atoms: C_1  and  C_2
REMARK    2  A    between atoms: C_2  and  N_3
REMARK    3  A    between atoms: N_3  and  S_4
REMARK    4  A    between atoms: S_4  and  C_7
REMARK    5  A    between atoms: C_12  and  N_13
REMARK    6  A    between atoms: C_14  and  C_16
REMARK    7  A    between atoms: C_16  and  C_17
REMARK    8  A    between atoms: C_16  and  C_18
REMARK    9  A    between atoms: C_16  and  N_19
REMARK                            x       y       z     vdW  Elec       q    Type
REMARK                         _______ _______ _______ _____ _____    ______ ____
ROOT
ATOM      1  C   UNL     1       1.372  -2.909   0.455  0.00  0.00    +0.126 A 
ATOM      2  C   UNL     1       2.444  -3.734   0.731  0.00  0.00    +0.030 A 
ATOM      3  C   UNL     1       3.089  -4.400  -0.295  0.00  0.00    +0.002 A 
ATOM      4  C   UNL     1       2.661  -4.243  -1.601  0.00  0.00    +0.002 A 
ATOM      5  C   UNL     1       1.589  -3.420  -1.884  0.00  0.00    +0.025 A 
ATOM      6  C   UNL     1       0.937  -2.753  -0.855  0.00  0.00    +0.060 A 
ENDROOT
BRANCH   6   7
ATOM      7  N   UNL     1      -0.153  -1.923  -1.138  0.00  0.00    -0.285 N 
ATOM      8  C   UNL     1      -0.183  -1.217  -2.286  0.00  0.00    +0.205 C 
ATOM      9  O   UNL     1       0.690  -1.369  -3.113  0.00  0.00    -0.277 OA
ATOM     10  H   UNL     1      -0.887  -1.855  -0.507  0.00  0.00    +0.155 HD
BRANCH   8  11
ATOM     11  C   UNL     1      -1.302  -0.241  -2.541  0.00  0.00    +0.002 C 
ATOM     12  C   UNL     1      -0.962   1.104  -1.895  0.00  0.00    -0.001 C 
ATOM     13  C   UNL     1      -1.480  -0.052  -4.049  0.00  0.00    -0.001 C 
BRANCH  11  14
ATOM     14  N   UNL     1      -2.548  -0.761  -1.962  0.00  0.00    +0.387 N 
ATOM     15  H   UNL     1      -2.430  -0.885  -0.968  0.00  0.00    -0.089 HD
ATOM     16  H   UNL     1      -3.297  -0.107  -2.133  0.00  0.00    -0.089 HD
ATOM     17  H   UNL     1      -2.772  -1.648  -2.388  0.00  0.00    -0.089 HD
ENDBRANCH  11  14
ENDBRANCH   8  11
ENDBRANCH   6   7
BRANCH   1  18
ATOM     18  S   UNL     1       0.551  -2.061   1.763  0.00  0.00    +0.060 S 
ATOM     19  O   UNL     1       0.452  -0.700   1.366  0.00  0.00    -0.153 OA
ATOM     20  O   UNL     1       1.191  -2.458   2.968  0.00  0.00    -0.153 OA
BRANCH  18  21
ATOM     21  N   UNL     1      -0.996  -2.648   1.833  0.00  0.00    -0.190 NA
ATOM     22  H   UNL     1      -1.746  -2.063   1.643  0.00  0.00    +0.148 HD
BRANCH  21  24
ATOM     23  C   UNL     1      -2.690  -4.233   2.608  0.00  0.00    +0.022 C 
ATOM     24  C   UNL     1      -1.232  -4.051   2.181  0.00  0.00    +0.102 C 
ENDBRANCH  21  24
ENDBRANCH  18  21
ENDBRANCH   1  18
TORSDOF 6
