REMARK  Name = ZINC20424376
REMARK  13 active torsions:
REMARK  status: ('A' for Active; 'I' for Inactive)
REMARK    1  A    between atoms: C_1  and  C_2
REMARK    2  A    between atoms: C_5  and  N_9
REMARK    3  A    between atoms: C_6  and  C_8
REMARK    4  A    between atoms: C_10  and  C_12
REMARK    5  A    between atoms: C_12  and  S_13
REMARK    6  A    between atoms: S_13  and  C_14
REMARK    7  A    between atoms: N_19  and  N_20
REMARK    8  A    between atoms: C_21  and  C_22
REMARK    9  A    between atoms: C_25  and  O_35
REMARK   10  A    between atoms: C_26  and  O_28
REMARK   11  A    between atoms: O_28  and  C_29
REMARK   12  A    between atoms: C_29  and  N_30
REMARK   13  A    between atoms: O_35  and  C_36
REMARK                            x       y       z     vdW  Elec       q    Type
REMARK                         _______ _______ _______ _____ _____    ______ ____
ROOT
ATOM      1  C   UNL     1       0.003  -0.005   0.033  0.00  0.00    +0.211 A 
ATOM      2  N   UNL     1      -0.015   1.361   0.046  0.00  0.00    -0.186 NA
ATOM      3  C   UNL     1       1.280   1.801   0.047  0.00  0.00    +0.232 A 
ATOM      4  N   UNL     1       2.064   0.751   0.035  0.00  0.00    -0.245 N 
ATOM      5  N   UNL     1       1.256  -0.393   0.026  0.00  0.00    -0.144 NA
ATOM      6  N   UNL     1       1.691   3.126   0.058  0.00  0.00    -0.205 N 
ATOM      7  H   UNL     1       0.944   3.934   0.067  0.00  0.00    +0.177 HD
ATOM      8  H   UNL     1       3.157   0.880   0.033  0.00  0.00    +0.192 HD
ENDROOT
BRANCH   6   9
ATOM      9  N   UNL     1       3.057   3.436   0.057  0.00  0.00    -0.188 NA
ATOM     10  C   UNL     1       3.442   4.676   0.067  0.00  0.00    +0.138 C 
BRANCH  10  11
ATOM     11  C   UNL     1       4.880   5.002   0.067  0.00  0.00    -0.002 A 
ATOM     12  C   UNL     1       5.830   3.977   0.061  0.00  0.00    +0.013 A 
ATOM     13  C   UNL     1       7.174   4.285   0.055  0.00  0.00    +0.050 A 
ATOM     14  C   UNL     1       7.587   5.609   0.065  0.00  0.00    +0.162 A 
ATOM     15  C   UNL     1       6.645   6.635   0.077  0.00  0.00    +0.165 A 
ATOM     16  C   UNL     1       5.296   6.336   0.078  0.00  0.00    +0.059 A 
BRANCH  14  17
ATOM     17  O   UNL     1       8.914   5.906   0.064  0.00  0.00    -0.491 OA
ATOM     18  C   UNL     1       9.825   4.805   0.051  0.00  0.00    +0.277 C 
ENDBRANCH  14  17
BRANCH  15  19
ATOM     19  O   UNL     1       7.053   7.933   0.088  0.00  0.00    -0.466 OA
BRANCH  19  20
ATOM     20  C   UNL     1       6.034   8.934   0.099  0.00  0.00    +0.374 C 
BRANCH  20  21
ATOM     21  N   UNL     1       6.653  10.261   0.110  0.00  0.00    -0.235 N 
ATOM     22  C   UNL     1       7.978  10.520   0.109  0.00  0.00    +0.112 A 
ATOM     23  C   UNL     1       8.136  11.863   0.120  0.00  0.00    +0.041 A 
ATOM     24  C   UNL     1       6.864  12.446   0.128  0.00  0.00    +0.134 A 
ATOM     25  N   UNL     1       5.975  11.487   0.116  0.00  0.00    -0.177 NA
ENDBRANCH  20  21
ENDBRANCH  19  20
ENDBRANCH  15  19
ENDBRANCH  10  11
ENDBRANCH   6   9
BRANCH   1  26
ATOM     26  S   UNL     1      -1.408  -1.059   0.027  0.00  0.00    -0.075 S 
BRANCH  26  27
ATOM     27  C   UNL     1      -0.706  -2.732   0.009  0.00  0.00    +0.173 C 
BRANCH  27  29
ATOM     28  N   UNL     1      -1.537  -5.062  -0.010  0.00  0.00    -0.285 N 
ATOM     29  C   UNL     1      -1.822  -3.745   0.003  0.00  0.00    +0.227 C 
ATOM     30  O   UNL     1      -2.977  -3.375   0.010  0.00  0.00    -0.275 OA
ATOM     31  H   UNL     1      -0.494  -5.397  -0.108  0.00  0.00    +0.155 HD
BRANCH  28  36
ATOM     32  C   UNL     1      -5.713  -8.874   0.439  0.00  0.00    +0.044 C 
ATOM     33  C   UNL     1      -4.604  -7.862   0.320  0.00  0.00    -0.050 A 
ATOM     34  C   UNL     1      -4.776  -6.587   0.829  0.00  0.00    +0.005 A 
ATOM     35  C   UNL     1      -3.761  -5.657   0.721  0.00  0.00    +0.024 A 
ATOM     36  C   UNL     1      -2.567  -6.002   0.101  0.00  0.00    +0.036 A 
ATOM     37  C   UNL     1      -2.400  -7.281  -0.413  0.00  0.00    -0.029 A 
ATOM     38  C   UNL     1      -3.417  -8.209  -0.298  0.00  0.00    +0.008 A 
ATOM     39  C   UNL     1      -1.109  -7.658  -1.093  0.00  0.00    +0.045 C 
ENDBRANCH  28  36
ENDBRANCH  27  29
ENDBRANCH  26  27
ENDBRANCH   1  26
TORSDOF 10
