REMARK  Name = ZINC57848589
REMARK  6 active torsions:
REMARK  status: ('A' for Active; 'I' for Inactive)
REMARK    1  A    between atoms: C_1  and  C_2
REMARK    2  A    between atoms: C_2  and  C_3
REMARK    3  A    between atoms: C_2  and  N_4
REMARK    4  A    between atoms: N_12  and  C_16
REMARK    5  A    between atoms: C_16  and  C_17
REMARK    6  A    between atoms: C_17  and  C_18
REMARK                            x       y       z     vdW  Elec       q    Type
REMARK                         _______ _______ _______ _____ _____    ______ ____
ROOT
ATOM      1  N   UNL     1      -1.376  -0.512   0.012  0.00  0.00    +0.381 N 
ATOM      2  C   UNL     1      -2.088  -0.016  -1.172  0.00  0.00    -0.076 C 
ATOM      3  C   UNL     1      -3.550  -0.468  -1.117  0.00  0.00    +0.017 C 
ATOM      4  C   UNL     1      -3.605  -1.991  -1.067  0.00  0.00    +0.109 C 
ATOM      5  C   UNL     1      -2.785  -2.515   0.108  0.00  0.00    +0.017 C 
ATOM      6  C   UNL     1      -1.354  -1.980   0.004  0.00  0.00    -0.076 C 
ATOM      7  C   UNL     1      -5.036  -2.466  -0.967  0.00  0.00    +0.246 C 
ATOM      8  O   UNL     1      -5.828  -2.230  -0.079  0.00  0.00    -0.273 OA
ATOM      9  N   UNL     1      -5.247  -3.208  -2.074  0.00  0.00    -0.224 N 
ATOM     10  C   UNL     1      -4.155  -3.262  -2.846  0.00  0.00    +0.309 C 
ATOM     11  O   UNL     1      -4.100  -3.871  -3.897  0.00  0.00    -0.252 OA
ATOM     12  N   UNL     1      -3.124  -2.567  -2.329  0.00  0.00    -0.285 N 
ATOM     13  H   UNL     1      -2.239  -2.467  -2.713  0.00  0.00    +0.151 HD
ATOM     14  H   UNL     1      -1.846  -0.189   0.845  0.00  0.00    -0.081 HD
ENDROOT
BRANCH   1  16
ATOM     15  C   UNL     1      -0.019   1.526   0.010  0.00  0.00    -0.014 C 
ATOM     16  C   UNL     1       0.002  -0.004   0.002  0.00  0.00    -0.075 C 
ATOM     17  C   UNL     1       0.742  -0.511   1.242  0.00  0.00    -0.014 C 
ENDBRANCH   1  16
BRANCH   9  18
ATOM     18  C   UNL     1      -6.514  -3.872  -2.391  0.00  0.00    +0.116 C 
BRANCH  18  19
ATOM     19  C   UNL     1      -7.396  -2.924  -3.207  0.00  0.00    +0.004 C 
BRANCH  19  20
ATOM     20  C   UNL     1      -8.719  -3.618  -3.538  0.00  0.00    -0.070 C 
ATOM     21  C   UNL     1      -9.549  -2.720  -4.458  0.00  0.00    -0.016 C 
ATOM     22  C   UNL     1     -10.871  -3.418  -4.787  0.00  0.00    -0.003 C 
ATOM     23  C   UNL     1     -11.603  -3.745  -3.482  0.00  0.00    -0.019 C 
ATOM     24  C   UNL     1     -10.698  -4.604  -2.598  0.00  0.00    -0.082 C 
ATOM     25  N   UNL     1      -9.462  -3.871  -2.297  0.00  0.00    +0.381 N 
ATOM     26  H   UNL     1      -8.892  -4.418  -1.671  0.00  0.00    -0.086 HD
ATOM     27  H   UNL     1      -9.692  -2.992  -1.859  0.00  0.00    -0.086 HD
ENDBRANCH  19  20
ENDBRANCH  18  19
ENDBRANCH   9  18
TORSDOF 4
