REMARK  Name = ZINC67434641
REMARK  6 active torsions:
REMARK  status: ('A' for Active; 'I' for Inactive)
REMARK    1  A    between atoms: C_1  and  N_2
REMARK    2  A    between atoms: C_6  and  N_9
REMARK    3  A    between atoms: C_13  and  C_16
REMARK    4  A    between atoms: C_16  and  C_17
REMARK    5  A    between atoms: C_17  and  N_18
REMARK    6  A    between atoms: N_18  and  C_19
REMARK                            x       y       z     vdW  Elec       q    Type
REMARK                         _______ _______ _______ _____ _____    ______ ____
ROOT
ATOM      1  C   UNL     1       2.869  -7.725   1.956  0.00  0.00    -0.080 C 
ENDROOT
BRANCH   1   2
ATOM      2  N   UNL     1       4.053  -8.572   1.757  0.00  0.00    +0.381 N 
ATOM      3  H   UNL     1       3.950  -9.098   0.903  0.00  0.00    -0.086 HD
ATOM      4  H   UNL     1       4.875  -7.991   1.698  0.00  0.00    -0.086 HD
BRANCH   2   5
ATOM      5  C   UNL     1       4.188  -9.498   2.889  0.00  0.00    -0.072 C 
ATOM      6  C   UNL     1       4.467  -8.704   4.167  0.00  0.00    -0.015 C 
ATOM      7  C   UNL     1       4.607  -9.669   5.347  0.00  0.00    +0.005 C 
ATOM      8  C   UNL     1       5.764 -10.634   5.081  0.00  0.00    -0.033 C 
ATOM      9  C   UNL     1       5.486 -11.427   3.803  0.00  0.00    +0.005 C 
ATOM     10  C   UNL     1       5.346 -10.462   2.624  0.00  0.00    -0.015 C 
ATOM     11  C   UNL     1       7.064  -9.842   4.918  0.00  0.00    -0.012 C 
ATOM     12  C   UNL     1       8.228 -10.818   4.730  0.00  0.00    -0.082 C 
ATOM     13  N   UNL     1       8.329 -11.695   5.903  0.00  0.00    +0.379 N 
ATOM     14  C   UNL     1       7.114 -12.509   6.024  0.00  0.00    -0.082 C 
ATOM     15  C   UNL     1       5.907 -11.598   6.261  0.00  0.00    -0.012 C 
ATOM     16  H   UNL     1       9.130 -12.300   5.800  0.00  0.00    -0.086 HD
ATOM     17  H   UNL     1       8.440 -11.133   6.734  0.00  0.00    -0.086 HD
ENDBRANCH   2   5
ENDBRANCH   1   2
BRANCH   1  18
ATOM     18  C   UNL     1       2.728  -6.760   0.777  0.00  0.00    +0.014 C 
BRANCH  18  23
ATOM     19  N   UNL     1       0.134  -4.124  -0.021  0.00  0.00    -0.324 N 
ATOM     20  C   UNL     1      -1.093  -4.929   0.085  0.00  0.00    +0.133 C 
ATOM     21  C   UNL     1      -0.894  -5.970   1.193  0.00  0.00    +0.179 C 
ATOM     22  O   UNL     1       0.318  -6.689   0.951  0.00  0.00    -0.374 OA
ATOM     23  C   UNL     1       1.495  -5.878   0.983  0.00  0.00    +0.134 C 
ATOM     24  C   UNL     1       1.418  -4.833  -0.141  0.00  0.00    +0.136 C 
BRANCH  19  30
ATOM     25  C   UNL     1      -0.135   1.456   0.006  0.00  0.00    +0.176 C 
ATOM     26  N   UNL     1      -0.045  -0.006  -0.000  0.00  0.00    -0.233 N 
ATOM     27  C   UNL     1       1.165  -0.600   0.019  0.00  0.00    +0.269 A 
ATOM     28  O   UNL     1       2.181   0.076   0.042  0.00  0.00    -0.266 OA
ATOM     29  C   UNL     1       1.248  -1.999   0.012  0.00  0.00    +0.096 A 
ATOM     30  C   UNL     1       0.082  -2.741  -0.013  0.00  0.00    +0.055 A 
ATOM     31  C   UNL     1      -1.163  -2.075  -0.032  0.00  0.00    +0.156 A 
ATOM     32  N   UNL     1      -1.214  -0.773  -0.020  0.00  0.00    -0.175 NA
ENDBRANCH  19  30
ENDBRANCH  18  23
ENDBRANCH   1  18
TORSDOF 5
