REMARK  Name = ZINC13640378
REMARK  8 active torsions:
REMARK  status: ('A' for Active; 'I' for Inactive)
REMARK    1  A    between atoms: C_1  and  C_2
REMARK    2  A    between atoms: C_2  and  C_3
REMARK    3  A    between atoms: C_3  and  C_5
REMARK    4  A    between atoms: C_3  and  O_6
REMARK    5  A    between atoms: O_6  and  C_7
REMARK    6  A    between atoms: C_20  and  C_23
REMARK    7  A    between atoms: C_26  and  O_30
REMARK    8  A    between atoms: C_28  and  O_29
REMARK                            x       y       z     vdW  Elec       q    Type
REMARK                         _______ _______ _______ _____ _____    ______ ____
ROOT
ATOM      1  C   UNL     1       0.129   0.063   0.773  0.00  0.00    +0.121 A 
ATOM      2  C   UNL     1       0.133   1.447   0.858  0.00  0.00    +0.047 A 
ATOM      3  C   UNL     1       1.318   2.138   0.699  0.00  0.00    +0.027 A 
ATOM      4  C   UNL     1       2.498   1.448   0.455  0.00  0.00    +0.032 A 
ATOM      5  C   UNL     1       2.501   0.065   0.367  0.00  0.00    -0.016 A 
ATOM      6  C   UNL     1       1.306  -0.623   0.529  0.00  0.00    +0.051 A 
ATOM      7  C   UNL     1       3.748  -0.718   0.103  0.00  0.00    +0.049 C 
ATOM      8  C   UNL     1       4.249  -1.398   1.356  0.00  0.00    -0.023 C 
ATOM      9  C   UNL     1       5.559  -1.400   1.377  0.00  0.00    -0.030 C 
ATOM     10  C   UNL     1       6.112  -0.726   0.136  0.00  0.00    +0.033 C 
ATOM     11  C   UNL     1       4.929   0.164  -0.347  0.00  0.00    +0.029 C 
ATOM     12  C   UNL     1       4.962   1.453   0.478  0.00  0.00    +0.108 C 
ATOM     13  N   UNL     1       3.693   2.165   0.298  0.00  0.00    -0.336 N 
ATOM     14  H   UNL     1       3.680   3.110   0.076  0.00  0.00    +0.147 HD
ENDROOT
BRANCH  12  15
ATOM     15  C   UNL     1       5.150   1.118   1.936  0.00  0.00    +0.015 A 
ATOM     16  C   UNL     1       4.050   0.876   2.736  0.00  0.00    +0.012 A 
ATOM     17  C   UNL     1       4.219   0.567   4.072  0.00  0.00    +0.046 A 
ATOM     18  C   UNL     1       5.495   0.500   4.614  0.00  0.00    +0.120 A 
ATOM     19  C   UNL     1       6.600   0.742   3.813  0.00  0.00    +0.091 A 
ATOM     20  C   UNL     1       6.428   1.046   2.471  0.00  0.00    +0.125 A 
BRANCH  20  21
ATOM     21  O   UNL     1       7.510   1.279   1.682  0.00  0.00    -0.506 OA
ATOM     22  H   UNL     1       7.786   2.205   1.657  0.00  0.00    +0.292 HD
ENDBRANCH  20  21
BRANCH  18  23
ATOM     23  O   UNL     1       5.660   0.197   5.928  0.00  0.00    -0.507 OA
ATOM     24  H   UNL     1       5.749  -0.750   6.105  0.00  0.00    +0.292 HD
ENDBRANCH  18  23
ENDBRANCH  12  15
BRANCH   1  25
ATOM     25  O   UNL     1      -1.036  -0.623   0.929  0.00  0.00    -0.489 OA
BRANCH  25  26
ATOM     26  C   UNL     1      -2.196   0.138   1.270  0.00  0.00    +0.170 C 
ATOM     27  C   UNL     1      -2.231   0.366   2.782  0.00  0.00    +0.052 C 
BRANCH  26  29
ATOM     28  C   UNL     1      -3.477  -0.744  -0.685  0.00  0.00    +0.007 C 
ATOM     29  C   UNL     1      -3.451  -0.625   0.840  0.00  0.00    +0.041 C 
ENDBRANCH  26  29
ENDBRANCH  25  26
ENDBRANCH   1  25
TORSDOF 6
