REMARK  Name = ZINC19328013
REMARK  5 active torsions:
REMARK  status: ('A' for Active; 'I' for Inactive)
REMARK    1  A    between atoms: C_1  and  C_2
REMARK    2  A    between atoms: C_2  and  C_17
REMARK    3  A    between atoms: N_3  and  N_4
REMARK    4  A    between atoms: C_5  and  C_7
REMARK    5  A    between atoms: C_9  and  N_15
REMARK                            x       y       z     vdW  Elec       q    Type
REMARK                         _______ _______ _______ _____ _____    ______ ____
ROOT
ATOM      1  N   UNL     1      -4.124  -0.287   0.015  0.00  0.00    -0.201 N 
ATOM      2  C   UNL     1      -4.401  -1.607   0.009  0.00  0.00    +0.283 C 
ATOM      3  O   UNL     1      -3.495  -2.418   0.000  0.00  0.00    -0.267 OA
ATOM      4  H   UNL     1      -4.944   0.447   0.023  0.00  0.00    +0.178 HD
ENDROOT
BRANCH   2   5
ATOM      5  C   UNL     1      -5.807  -2.067   0.011  0.00  0.00    +0.149 A 
ATOM      6  C   UNL     1      -6.086  -3.431  -0.002  0.00  0.00    +0.094 A 
ATOM      7  C   UNL     1      -7.417  -3.849   0.006  0.00  0.00    +0.067 A 
ATOM      8  C   UNL     1      -8.416  -2.877   0.015  0.00  0.00    +0.100 A 
ATOM      9  C   UNL     1      -8.058  -1.538   0.022  0.00  0.00    +0.150 A 
ATOM     10  N   UNL     1      -6.793  -1.175   0.020  0.00  0.00    -0.228 NA
ATOM     11 CL   UNL     1      -9.297  -0.323   0.035  0.00  0.00    -0.060 Cl
ATOM     12 CL   UNL     1     -10.089  -3.339   0.018  0.00  0.00    -0.078 Cl
ATOM     13 CL   UNL     1      -4.797  -4.594  -0.020  0.00  0.00    -0.079 Cl
BRANCH   7  14
ATOM     14  N   UNL     1      -7.740  -5.205  -0.002  0.00  0.00    -0.356 N 
ATOM     15  H   UNL     1      -8.794  -5.519   0.004  0.00  0.00    +0.142 HD
ATOM     16  H   UNL     1      -6.940  -5.960  -0.014  0.00  0.00    +0.142 HD
ENDBRANCH   7  14
ENDBRANCH   2   5
BRANCH   1  19
ATOM     17  C   UNL     1      -3.648   2.428   0.030  0.00  0.00    +0.069 C 
ATOM     18  C   UNL     1      -2.526   1.422   0.019  0.00  0.00    +0.079 C 
ATOM     19  N   UNL     1      -2.793   0.149   0.013  0.00  0.00    -0.183 NA
BRANCH  18  20
ATOM     20  C   UNL     1      -1.132   1.879   0.017  0.00  0.00    +0.062 A 
ATOM     21  C   UNL     1      -0.013   1.076   0.008  0.00  0.00    +0.029 A 
ATOM     22  C   UNL     1       1.104   1.924   0.002  0.00  0.00    +0.019 A 
ATOM     23  C   UNL     1       0.656   3.199   0.013  0.00  0.00    +0.083 A 
ATOM     24  N   UNL     1      -0.706   3.186   0.026  0.00  0.00    -0.360 N 
ATOM     25  H   UNL     1      -1.441   4.004   0.041  0.00  0.00    +0.165 HD
ENDBRANCH  18  20
ENDBRANCH   1  19
TORSDOF 4
