REMARK  Name = ZINC58863524
REMARK  4 active torsions:
REMARK  status: ('A' for Active; 'I' for Inactive)
REMARK    1  A    between atoms: C_1  and  C_2
REMARK    2  A    between atoms: C_7  and  N_8
REMARK    3  A    between atoms: N_11  and  N_12
REMARK    4  A    between atoms: C_13  and  C_15
REMARK                            x       y       z     vdW  Elec       q    Type
REMARK                         _______ _______ _______ _____ _____    ______ ____
ROOT
ATOM      1  N   UNL     1       0.026  -0.015   2.417  0.00  0.00    -0.268 N 
ATOM      2  C   UNL     1      -0.056  -0.694   3.578  0.00  0.00    +0.320 C 
ATOM      3  O   UNL     1      -0.040  -1.910   3.573  0.00  0.00    -0.251 OA
ATOM      4  N   UNL     1      -0.155  -0.026   4.745  0.00  0.00    -0.218 N 
ATOM      5  H   UNL     1       0.079   0.954   2.425  0.00  0.00    +0.156 HD
ATOM      6  H   UNL     1      -0.214  -0.515   5.580  0.00  0.00    +0.174 HD
ENDROOT
BRANCH   1  13
ATOM      7  C   UNL     1      -1.265   1.184   0.182  0.00  0.00    +0.045 C 
ATOM      8  C   UNL     1      -0.585  -0.158   0.085  0.00  0.00    -0.029 A 
ATOM      9  C   UNL     1      -0.570  -0.840  -1.116  0.00  0.00    +0.005 A 
ATOM     10  C   UNL     1       0.054  -2.070  -1.206  0.00  0.00    +0.000 A 
ATOM     11  C   UNL     1       0.665  -2.622  -0.095  0.00  0.00    +0.002 A 
ATOM     12  C   UNL     1       0.654  -1.945   1.108  0.00  0.00    +0.023 A 
ATOM     13  C   UNL     1       0.033  -0.706   1.200  0.00  0.00    +0.038 A 
ENDBRANCH   1  13
BRANCH   4  14
ATOM     14  N   UNL     1      -0.173   1.375   4.750  0.00  0.00    -0.229 N 
ATOM     15  C   UNL     1      -0.272   2.043   5.917  0.00  0.00    +0.267 C 
ATOM     16  O   UNL     1      -0.346   1.429   6.964  0.00  0.00    -0.268 OA
ATOM     17  H   UNL     1      -0.115   1.864   3.915  0.00  0.00    +0.173 HD
BRANCH  15  18
ATOM     18  C   UNL     1      -0.292   3.513   5.923  0.00  0.00    +0.076 A 
ATOM     19  C   UNL     1      -0.379   4.354   6.986  0.00  0.00    +0.029 A 
ATOM     20  C   UNL     1      -0.382   5.746   6.782  0.00  0.00    -0.010 A 
ATOM     21  C   UNL     1      -0.466   6.776   7.754  0.00  0.00    +0.009 A 
ATOM     22  C   UNL     1      -0.456   8.082   7.384  0.00  0.00    +0.001 A 
ATOM     23  C   UNL     1      -0.364   8.461   6.050  0.00  0.00    +0.001 A 
ATOM     24  C   UNL     1      -0.280   7.491   5.072  0.00  0.00    +0.015 A 
ATOM     25  C   UNL     1      -0.289   6.161   5.432  0.00  0.00    +0.020 A 
ATOM     26  S   UNL     1      -0.198   4.631   4.536  0.00  0.00    -0.084 S 
ENDBRANCH  15  18
ENDBRANCH   4  14
TORSDOF 3
