REMARK  Name = ZINC37613070
REMARK  9 active torsions:
REMARK  status: ('A' for Active; 'I' for Inactive)
REMARK    1  A    between atoms: C_1  and  C_2
REMARK    2  A    between atoms: C_6  and  C_20
REMARK    3  A    between atoms: C_8  and  N_11
REMARK    4  A    between atoms: C_12  and  C_14
REMARK    5  A    between atoms: C_14  and  N_15
REMARK    6  A    between atoms: N_15  and  C_16
REMARK    7  A    between atoms: C_16  and  C_17
REMARK    8  A    between atoms: C_20  and  C_21
REMARK    9  A    between atoms: C_20  and  C_22
REMARK                            x       y       z     vdW  Elec       q    Type
REMARK                         _______ _______ _______ _____ _____    ______ ____
ROOT
ATOM      1  N   UNL     1       1.537  -2.391   2.465  0.00  0.00    -0.314 N 
ATOM      2  C   UNL     1       2.884  -2.336   2.462  0.00  0.00    +0.196 C 
ATOM      3  O   UNL     1       3.473  -1.970   1.467  0.00  0.00    -0.278 OA
ATOM      4  H   UNL     1       1.065  -2.684   3.261  0.00  0.00    +0.149 HD
ENDROOT
BRANCH   1  10
ATOM      5  C   UNL     1      -0.301   1.434  -0.071  0.00  0.00    +0.007 C 
ATOM      6  C   UNL     1      -0.150  -0.088  -0.028  0.00  0.00    -0.012 C 
ATOM      7  C   UNL     1      -1.535  -0.737   0.011  0.00  0.00    +0.004 C 
ATOM      8  C   UNL     1      -1.385  -2.259   0.054  0.00  0.00    +0.006 C 
ATOM      9  C   UNL     1      -0.600  -2.658   1.305  0.00  0.00    +0.012 C 
ATOM     10  C   UNL     1       0.785  -2.009   1.267  0.00  0.00    +0.076 C 
ATOM     11  C   UNL     1       0.634  -0.487   1.224  0.00  0.00    +0.025 C 
BRANCH   9  12
ATOM     12  C   UNL     1      -0.449  -4.180   1.349  0.00  0.00    -0.012 C 
ATOM     13  C   UNL     1      -1.824  -4.824   1.536  0.00  0.00    +0.007 C 
ATOM     14  C   UNL     1       0.169  -4.669   0.037  0.00  0.00    +0.007 C 
ENDBRANCH   9  12
ENDBRANCH   1  10
BRANCH   2  15
ATOM     15  C   UNL     1       3.657  -2.729   3.694  0.00  0.00    +0.015 C 
BRANCH  15  16
ATOM     16  N   UNL     1       5.096  -2.583   3.437  0.00  0.00    +0.385 N 
ATOM     17  H   UNL     1       5.362  -3.180   2.668  0.00  0.00    -0.085 HD
ATOM     18  H   UNL     1       5.300  -1.623   3.204  0.00  0.00    -0.085 HD
BRANCH  16  19
ATOM     19  C   UNL     1       5.849  -2.967   4.638  0.00  0.00    -0.079 C 
BRANCH  19  20
ATOM     20  C   UNL     1       7.348  -2.814   4.371  0.00  0.00    -0.028 C 
ATOM     21  C   UNL     1       8.113  -1.783   5.203  0.00  0.00    +0.002 C 
ATOM     22  C   UNL     1       8.312  -3.278   5.465  0.00  0.00    +0.002 C 
ENDBRANCH  19  20
ENDBRANCH  16  19
ENDBRANCH  15  16
ENDBRANCH   2  15
TORSDOF 6
