REMARK  Name = ZINC57848546
REMARK  7 active torsions:
REMARK  status: ('A' for Active; 'I' for Inactive)
REMARK    1  A    between atoms: C_1  and  C_2
REMARK    2  A    between atoms: C_5  and  C_9
REMARK    3  A    between atoms: C_7  and  C_8
REMARK    4  A    between atoms: C_9  and  C_25
REMARK    5  A    between atoms: N_12  and  C_16
REMARK    6  A    between atoms: C_16  and  C_17
REMARK    7  A    between atoms: C_17  and  C_18
REMARK                            x       y       z     vdW  Elec       q    Type
REMARK                         _______ _______ _______ _____ _____    ______ ____
ROOT
ATOM      1  C   UNL     1       0.059  -4.275  -0.021  0.00  0.00    +0.135 C 
ATOM      2  C   UNL     1       0.861  -4.792  -1.200  0.00  0.00    +0.251 C 
ATOM      3  O   UNL     1       0.630  -4.614  -2.377  0.00  0.00    -0.272 OA
ATOM      4  N   UNL     1       1.883  -5.490  -0.667  0.00  0.00    -0.224 N 
ATOM      5  C   UNL     1       1.840  -5.486   0.670  0.00  0.00    +0.310 C 
ATOM      6  O   UNL     1       2.655  -6.049   1.374  0.00  0.00    -0.252 OA
ATOM      7  N   UNL     1       0.792  -4.791   1.148  0.00  0.00    -0.281 N 
ATOM      8  C   UNL     1      -1.366  -4.830  -0.051  0.00  0.00    +0.047 C 
ATOM      9  H   UNL     1       0.564  -4.655   2.081  0.00  0.00    +0.152 HD
ENDROOT
BRANCH   1  14
ATOM     10  C   UNL     1      -0.018   1.503   0.010  0.00  0.00    +0.044 C 
ATOM     11  C   UNL     1       0.002  -0.004   0.002  0.00  0.00    -0.048 A 
ATOM     12  C   UNL     1       0.006  -0.689  -1.199  0.00  0.00    +0.004 A 
ATOM     13  C   UNL     1       0.025  -2.071  -1.207  0.00  0.00    +0.006 A 
ATOM     14  C   UNL     1       0.040  -2.768  -0.013  0.00  0.00    -0.015 A 
ATOM     15  C   UNL     1       0.037  -2.084   1.188  0.00  0.00    +0.009 A 
ATOM     16  C   UNL     1       0.023  -0.702   1.195  0.00  0.00    -0.047 A 
ATOM     17  C   UNL     1       0.025   0.045   2.504  0.00  0.00    +0.044 C 
ENDBRANCH   1  14
BRANCH   4  18
ATOM     18  C   UNL     1       2.914  -6.170  -1.455  0.00  0.00    +0.116 C 
BRANCH  18  19
ATOM     19  C   UNL     1       4.079  -5.210  -1.707  0.00  0.00    +0.004 C 
BRANCH  19  20
ATOM     20  C   UNL     1       5.156  -5.919  -2.530  0.00  0.00    -0.070 C 
ATOM     21  C   UNL     1       6.373  -5.003  -2.675  0.00  0.00    -0.016 C 
ATOM     22  C   UNL     1       7.448  -5.718  -3.499  0.00  0.00    -0.003 C 
ATOM     23  C   UNL     1       6.857  -6.116  -4.854  0.00  0.00    -0.019 C 
ATOM     24  C   UNL     1       5.622  -6.991  -4.629  0.00  0.00    -0.082 C 
ATOM     25  N   UNL     1       4.622  -6.242  -3.859  0.00  0.00    +0.381 N 
ATOM     26  H   UNL     1       3.789  -6.802  -3.759  0.00  0.00    -0.086 HD
ATOM     27  H   UNL     1       4.395  -5.388  -4.346  0.00  0.00    -0.086 HD
ENDBRANCH  19  20
ENDBRANCH  18  19
ENDBRANCH   4  18
TORSDOF 4
