REMARK  Name = ZINC36257114
REMARK  7 active torsions:
REMARK  status: ('A' for Active; 'I' for Inactive)
REMARK    1  A    between atoms: C_1  and  C_2
REMARK    2  A    between atoms: C_11  and  C_17
REMARK    3  A    between atoms: C_12  and  C_14
REMARK    4  A    between atoms: C_14  and  C_15
REMARK    5  A    between atoms: C_14  and  C_16
REMARK    6  A    between atoms: C_17  and  C_18
REMARK    7  A    between atoms: C_18  and  N_19
REMARK                            x       y       z     vdW  Elec       q    Type
REMARK                         _______ _______ _______ _____ _____    ______ ____
ROOT
ATOM      1  C   UNL     1      -0.019   1.526   0.010  0.00  0.00    +0.008 C 
ATOM      2  C   UNL     1       0.002  -0.004   0.002  0.00  0.00    -0.009 C 
ATOM      3  C   UNL     1      -1.433  -0.538   0.022  0.00  0.00    +0.010 C 
ATOM      4  C   UNL     1      -1.431  -2.047  -0.224  0.00  0.00    +0.055 C 
ATOM      5  C   UNL     1      -0.473  -2.707   0.766  0.00  0.00    +0.036 A 
ATOM      6  C   UNL     1       0.463  -1.981   1.388  0.00  0.00    +0.013 A 
ATOM      7  S   UNL     1       1.307  -3.161   2.410  0.00  0.00    -0.054 S 
ATOM      8  C   UNL     1       0.350  -4.586   1.944  0.00  0.00    +0.178 A 
ATOM      9  N   UNL     1      -0.541  -4.068   1.047  0.00  0.00    -0.294 N 
ATOM     10  C   UNL     1      -1.319  -5.152   0.649  0.00  0.00    +0.046 A 
ATOM     11  C   UNL     1      -0.872  -6.236   1.305  0.00  0.00    +0.066 A 
ATOM     12  N   UNL     1       0.151  -5.864   2.091  0.00  0.00    -0.226 NA
ATOM     13  C   UNL     1       0.736  -0.517   1.250  0.00  0.00    +0.047 C 
ENDROOT
BRANCH  11  14
ATOM     14  C   UNL     1      -1.424  -7.633   1.179  0.00  0.00    +0.033 C 
ATOM     15  C   UNL     1      -0.324  -8.574   0.684  0.00  0.00    +0.014 C 
ATOM     16  C   UNL     1      -1.925  -8.108   2.545  0.00  0.00    +0.014 C 
ENDBRANCH  11  14
BRANCH  10  17
ATOM     17  C   UNL     1      -2.456  -5.117  -0.338  0.00  0.00    +0.036 C 
BRANCH  17  18
ATOM     18  C   UNL     1      -1.917  -5.373  -1.747  0.00  0.00    -0.080 C 
BRANCH  18  19
ATOM     19  N   UNL     1      -3.026  -5.339  -2.710  0.00  0.00    +0.378 N 
ATOM     20  H   UNL     1      -3.700  -6.051  -2.473  0.00  0.00    -0.090 HD
ATOM     21  H   UNL     1      -3.469  -4.433  -2.679  0.00  0.00    -0.090 HD
ATOM     22  H   UNL     1      -2.670  -5.508  -3.639  0.00  0.00    -0.090 HD
ENDBRANCH  18  19
ENDBRANCH  17  18
ENDBRANCH  10  17
TORSDOF 4
