REMARK  Name = ZINC61819419
REMARK  8 active torsions:
REMARK  status: ('A' for Active; 'I' for Inactive)
REMARK    1  A    between atoms: C_1  and  C_2
REMARK    2  A    between atoms: C_2  and  C_3
REMARK    3  A    between atoms: C_3  and  N_4
REMARK    4  A    between atoms: N_4  and  C_5
REMARK    5  A    between atoms: C_5  and  C_7
REMARK    6  A    between atoms: C_5  and  C_8
REMARK    7  A    between atoms: C_8  and  C_9
REMARK    8  A    between atoms: C_9  and  N_10
REMARK                            x       y       z     vdW  Elec       q    Type
REMARK                         _______ _______ _______ _____ _____    ______ ____
ROOT
ATOM      1  N   UNL     1      -2.163  -5.901   1.599  0.00  0.00    +0.380 N 
ATOM      2  C   UNL     1      -1.253  -6.455   0.591  0.00  0.00    -0.078 C 
ATOM      3  C   UNL     1      -1.291  -7.984   0.650  0.00  0.00    -0.012 C 
ATOM      4  C   UNL     1      -0.856  -8.446   2.043  0.00  0.00    -0.033 C 
ATOM      5  C   UNL     1       0.592  -8.020   2.293  0.00  0.00    +0.007 C 
ATOM      6  C   UNL     1       1.500  -8.661   1.241  0.00  0.00    +0.001 C 
ATOM      7  C   UNL     1       1.391 -10.184   1.333  0.00  0.00    +0.000 C 
ATOM      8  C   UNL     1      -0.057 -10.609   1.083  0.00  0.00    +0.001 C 
ATOM      9  C   UNL     1      -0.965  -9.968   2.134  0.00  0.00    +0.007 C 
ATOM     10  C   UNL     1      -1.765  -7.802   3.093  0.00  0.00    -0.012 C 
ATOM     11  C   UNL     1      -1.710  -6.280   2.943  0.00  0.00    -0.078 C 
ATOM     12  H   UNL     1      -3.093  -6.261   1.445  0.00  0.00    -0.082 HD
ENDROOT
BRANCH   1  13
ATOM     13  C   UNL     1      -2.182  -4.436   1.487  0.00  0.00    -0.080 C 
BRANCH  13  14
ATOM     14  C   UNL     1      -2.772  -4.036   0.133  0.00  0.00    -0.035 C 
BRANCH  14  15
ATOM     15  C   UNL     1      -2.792  -2.511   0.015  0.00  0.00    -0.077 C 
ATOM     16  C   UNL     1      -3.494  -2.108  -1.283  0.00  0.00    -0.014 C 
BRANCH  15  17
ATOM     17  N   UNL     1      -1.413  -2.002   0.005  0.00  0.00    +0.381 N 
ATOM     18  H   UNL     1      -0.941  -2.328  -0.825  0.00  0.00    -0.086 HD
ATOM     19  H   UNL     1      -0.925  -2.337   0.822  0.00  0.00    -0.086 HD
BRANCH  17  20
ATOM     20  C   UNL     1      -1.433  -0.534   0.013  0.00  0.00    -0.083 C 
BRANCH  20  22
ATOM     21  C   UNL     1      -0.019   1.526   0.010  0.00  0.00    +0.002 C 
ATOM     22  C   UNL     1       0.002  -0.004   0.002  0.00  0.00    -0.022 C 
ENDBRANCH  20  22
ENDBRANCH  17  20
ENDBRANCH  15  17
ENDBRANCH  14  15
ENDBRANCH  13  14
ENDBRANCH   1  13
TORSDOF 6
