REMARK  Name = ZINC28559789
REMARK  10 active torsions:
REMARK  status: ('A' for Active; 'I' for Inactive)
REMARK    1  A    between atoms: C_1  and  C_2
REMARK    2  A    between atoms: C_2  and  N_3
REMARK    3  A    between atoms: N_3  and  C_4
REMARK    4  A    between atoms: C_4  and  N_6
REMARK    5  A    between atoms: N_9  and  C_12
REMARK    6  A    between atoms: C_12  and  C_13
REMARK    7  A    between atoms: C_13  and  N_14
REMARK    8  A    between atoms: C_23  and  O_24
REMARK    9  A    between atoms: O_24  and  C_25
REMARK   10  A    between atoms: C_25  and  C_26
REMARK                            x       y       z     vdW  Elec       q    Type
REMARK                         _______ _______ _______ _____ _____    ______ ____
ROOT
ATOM      1  N   UNL     1      -0.029   1.095   2.457  0.00  0.00    -0.264 N 
ATOM      2  C   UNL     1       0.956   1.841   2.990  0.00  0.00    +0.265 A 
ATOM      3  O   UNL     1       1.260   2.910   2.492  0.00  0.00    -0.267 OA
ATOM      4  C   UNL     1       1.640   1.359   4.152  0.00  0.00    +0.076 A 
ATOM      5  C   UNL     1       2.730   1.996   4.892  0.00  0.00    -0.023 A 
ATOM      6  C   UNL     1       3.210   1.335   5.965  0.00  0.00    -0.004 A 
ATOM      7  S   UNL     1       2.254  -0.155   6.052  0.00  0.00    -0.073 S 
ATOM      8  C   UNL     1       1.208   0.116   4.644  0.00  0.00    +0.119 A 
ATOM      9  N   UNL     1       0.227  -0.569   4.067  0.00  0.00    -0.189 NA
ATOM     10  C   UNL     1      -0.387  -0.100   3.003  0.00  0.00    +0.302 A 
ATOM     11  C   UNL     1       4.314   1.769   6.880  0.00  0.00    +0.043 C 
ATOM     12  C   UNL     1       5.079   2.916   6.205  0.00  0.00    +0.005 C 
ATOM     13  C   UNL     1       4.068   3.937   5.676  0.00  0.00    +0.005 C 
ATOM     14  C   UNL     1       3.310   3.348   4.486  0.00  0.00    +0.037 C 
ENDROOT
BRANCH   1  15
ATOM     15  C   UNL     1      -0.735   1.581   1.268  0.00  0.00    +0.111 C 
BRANCH  15  16
ATOM     16  C   UNL     1      -0.019   1.083   0.011  0.00  0.00    -0.057 C 
BRANCH  16  20
ATOM     17  N   UNL     1      -2.025   1.549  -3.646  0.00  0.00    -0.316 N 
ATOM     18  C   UNL     1      -0.625   1.997  -3.590  0.00  0.00    +0.088 C 
ATOM     19  C   UNL     1       0.056   1.317  -2.397  0.00  0.00    -0.059 C 
ATOM     20  N   UNL     1      -0.726   1.571  -1.180  0.00  0.00    +0.383 N 
ATOM     21  C   UNL     1      -2.067   0.979  -1.276  0.00  0.00    -0.059 C 
ATOM     22  C   UNL     1      -2.836   1.644  -2.422  0.00  0.00    +0.088 C 
ATOM     23  H   UNL     1      -0.848   2.660  -1.082  0.00  0.00    -0.082 HD
BRANCH  17  24
ATOM     24  C   UNL     1      -2.551   1.064  -4.788  0.00  0.00    +0.133 C 
ATOM     25  S   UNL     1      -4.139   0.425  -4.795  0.00  0.00    -0.019 S 
BRANCH  24  26
ATOM     26  N   UNL     1      -1.827   1.082  -5.924  0.00  0.00    -0.327 N 
ATOM     27  H   UNL     1      -0.779   1.416  -5.903  0.00  0.00    +0.148 HD
BRANCH  26  29
ATOM     28  C   UNL     1      -1.406   0.772  -8.313  0.00  0.00    +0.024 C 
ATOM     29  C   UNL     1      -2.435   0.657  -7.187  0.00  0.00    +0.100 C 
ENDBRANCH  26  29
ENDBRANCH  24  26
ENDBRANCH  17  24
ENDBRANCH  16  20
ENDBRANCH  15  16
ENDBRANCH   1  15
BRANCH  10  30
ATOM     30  O   UNL     1      -1.384  -0.817   2.441  0.00  0.00    -0.464 OA
BRANCH  30  31
ATOM     31  C   UNL     1      -1.716  -2.062   3.058  0.00  0.00    +0.229 C 
ATOM     32  C   UNL     1      -2.859  -2.725   2.287  0.00  0.00    +0.048 C 
ENDBRANCH  30  31
ENDBRANCH  10  30
TORSDOF 8
