REMARK  Name = ZINC44902294
REMARK  13 active torsions:
REMARK  status: ('A' for Active; 'I' for Inactive)
REMARK    1  A    between atoms: C_1  and  C_2
REMARK    2  A    between atoms: C_2  and  C_3
REMARK    3  A    between atoms: C_3  and  C_5
REMARK    4  A    between atoms: C_3  and  N_21
REMARK    5  A    between atoms: N_7  and  C_8
REMARK    6  A    between atoms: C_8  and  C_9
REMARK    7  A    between atoms: C_14  and  N_15
REMARK    8  A    between atoms: C_19  and  C_20
REMARK    9  A    between atoms: N_21  and  C_22
REMARK   10  A    between atoms: N_21  and  S_30
REMARK   11  A    between atoms: C_25  and  C_29
REMARK   12  A    between atoms: C_26  and  C_28
REMARK   13  A    between atoms: S_30  and  C_33
REMARK                            x       y       z     vdW  Elec       q    Type
REMARK                         _______ _______ _______ _____ _____    ______ ____
ROOT
ATOM      1  C   UNL     1      -2.155  -2.510   0.166  0.00  0.00    +0.236 C 
ATOM      2  O   UNL     1      -2.532  -2.919   1.244  0.00  0.00    -0.274 OA
ATOM      3  N   UNL     1      -1.982  -3.369  -0.858  0.00  0.00    -0.310 N 
ATOM      4  H   UNL     1      -1.681  -3.042  -1.720  0.00  0.00    +0.149 HD
ENDROOT
BRANCH   1   5
ATOM      5  C   UNL     1      -1.882  -1.040  -0.029  0.00  0.00    +0.183 C 
BRANCH   5   7
ATOM      6  C   UNL     1      -0.089   0.696  -0.152  0.00  0.00    +0.006 C 
ATOM      7  C   UNL     1      -0.391  -0.767   0.178  0.00  0.00    +0.030 C 
ENDBRANCH   5   7
BRANCH   5   8
ATOM      8  N   UNL     1      -2.659  -0.266   0.942  0.00  0.00    -0.196 N 
BRANCH   8   9
ATOM      9  C   UNL     1      -2.478  -0.478   2.310  0.00  0.00    +0.052 A 
ATOM     10  C   UNL     1      -3.502  -1.026   3.072  0.00  0.00    +0.025 A 
ATOM     11  C   UNL     1      -3.319  -1.234   4.425  0.00  0.00    +0.005 A 
ATOM     12  C   UNL     1      -2.118  -0.897   5.021  0.00  0.00    -0.047 A 
ATOM     13  C   UNL     1      -1.096  -0.351   4.266  0.00  0.00    -0.046 A 
ATOM     14  C   UNL     1      -1.270  -0.146   2.912  0.00  0.00    +0.028 A 
ATOM     15  C   UNL     1       0.211   0.015   4.921  0.00  0.00    +0.044 C 
ATOM     16  C   UNL     1      -1.922  -1.126   6.498  0.00  0.00    +0.044 C 
ENDBRANCH   8   9
BRANCH   8  17
ATOM     17  S   UNL     1      -3.754   0.860   0.416  0.00  0.00    +0.043 S 
ATOM     18  O   UNL     1      -3.942   1.728   1.525  0.00  0.00    -0.155 OA
ATOM     19  O   UNL     1      -3.213   1.350  -0.803  0.00  0.00    -0.155 OA
ATOM     20  C   UNL     1      -5.271  -0.080   0.093  0.00  0.00    +0.218 C 
ENDBRANCH   8  17
ENDBRANCH   5   8
ENDBRANCH   1   5
BRANCH   3  21
ATOM     21  C   UNL     1      -2.248  -4.797  -0.669  0.00  0.00    +0.141 C 
BRANCH  21  22
ATOM     22  C   UNL     1      -1.979  -5.533  -1.956  0.00  0.00    -0.006 A 
ATOM     23  C   UNL     1      -3.027  -5.879  -2.787  0.00  0.00    +0.007 A 
ATOM     24  C   UNL     1      -2.780  -6.555  -3.967  0.00  0.00    +0.000 A 
ATOM     25  C   UNL     1      -1.485  -6.886  -4.321  0.00  0.00    +0.002 A 
ATOM     26  C   UNL     1      -0.433  -6.541  -3.495  0.00  0.00    +0.026 A 
ATOM     27  C   UNL     1      -0.677  -5.858  -2.311  0.00  0.00    +0.052 A 
BRANCH  27  28
ATOM     28  N   UNL     1       0.390  -5.502  -1.473  0.00  0.00    -0.305 N 
ATOM     29  C   UNL     1       1.393  -4.614  -1.763  0.00  0.00    +0.110 A 
ATOM     30  C   UNL     1       2.200  -4.572  -0.686  0.00  0.00    +0.102 A 
ATOM     31  N   UNL     1       1.708  -5.410   0.239  0.00  0.00    -0.350 N 
ATOM     32  C   UNL     1       0.621  -5.969  -0.218  0.00  0.00    +0.088 A 
ATOM     33  C   UNL     1      -0.233  -6.966   0.521  0.00  0.00    +0.084 C 
ATOM     34  H   UNL     1       2.098  -5.572   1.113  0.00  0.00    +0.166 HD
ENDBRANCH  27  28
ENDBRANCH  21  22
ENDBRANCH   3  21
TORSDOF 8
