REMARK  Name = ZINC61362418
REMARK  4 active torsions:
REMARK  status: ('A' for Active; 'I' for Inactive)
REMARK    1  A    between atoms: C_1  and  C_2
REMARK    2  A    between atoms: C_2  and  C_4
REMARK    3  A    between atoms: C_2  and  N_10
REMARK    4  A    between atoms: N_10  and  C_11
REMARK                            x       y       z     vdW  Elec       q    Type
REMARK                         _______ _______ _______ _____ _____    ______ ____
ROOT
ATOM      1  N   UNL     1       0.725  -0.493   1.072  0.00  0.00    +0.391 N 
ATOM      2  H   UNL     1       1.504   0.113   0.865  0.00  0.00    -0.084 HD
ATOM      3  H   UNL     1       0.085  -0.498   0.291  0.00  0.00    -0.084 HD
ENDROOT
BRANCH   1   4
ATOM      4  C   UNL     1       0.030  -0.006   2.271  0.00  0.00    -0.039 C 
ATOM      5  C   UNL     1       0.929  -0.191   3.494  0.00  0.00    -0.011 C 
ATOM      6  C   UNL     1       0.151   0.142   4.771  0.00  0.00    +0.004 C 
ATOM      7  C   UNL     1      -0.896  -0.957   5.011  0.00  0.00    +0.042 C 
ATOM      8  C   UNL     1      -1.618  -1.206   3.727  0.00  0.00    -0.009 A 
ATOM      9  C   UNL     1      -1.255  -0.803   2.477  0.00  0.00    -0.051 A 
ATOM     10  C   UNL     1      -2.108  -1.158   1.432  0.00  0.00    +0.010 A 
ATOM     11  C   UNL     1      -3.232  -1.867   1.686  0.00  0.00    +0.045 A 
ATOM     12  S   UNL     1      -3.138  -2.080   3.463  0.00  0.00    -0.101 S 
ENDBRANCH   1   4
BRANCH   1  14
ATOM     13  C   UNL     1       0.028  -2.812   1.441  0.00  0.00    -0.004 C 
ATOM     14  C   UNL     1       1.216  -1.857   1.311  0.00  0.00    +0.014 C 
BRANCH  14  15
ATOM     15  C   UNL     1       2.083  -2.288   0.156  0.00  0.00    +0.206 C 
ATOM     16  O   UNL     1       2.272  -1.534  -0.774  0.00  0.00    -0.277 OA
ATOM     17  N   UNL     1       2.647  -3.512   0.157  0.00  0.00    -0.242 N 
ATOM     18  C   UNL     1       3.422  -3.898  -0.876  0.00  0.00    +0.303 C 
ATOM     19  O   UNL     1       3.613  -3.142  -1.808  0.00  0.00    -0.253 OA
ATOM     20  N   UNL     1       3.987  -5.121  -0.875  0.00  0.00    -0.313 N 
ATOM     21  H   UNL     1       2.496  -4.115   0.901  0.00  0.00    +0.159 HD
ATOM     22  H   UNL     1       3.835  -5.725  -0.131  0.00  0.00    +0.146 HD
ATOM     23  H   UNL     1       4.545  -5.399  -1.618  0.00  0.00    +0.146 HD
ENDBRANCH  14  15
ENDBRANCH   1  14
TORSDOF 3
