REMARK  Name = ZINC66128180
REMARK  6 active torsions:
REMARK  status: ('A' for Active; 'I' for Inactive)
REMARK    1  A    between atoms: C_1  and  C_2
REMARK    2  A    between atoms: C_2  and  C_3
REMARK    3  A    between atoms: C_3  and  C_5
REMARK    4  A    between atoms: C_3  and  O_6
REMARK    5  A    between atoms: O_6  and  C_7
REMARK    6  A    between atoms: C_12  and  C_13
REMARK                            x       y       z     vdW  Elec       q    Type
REMARK                         _______ _______ _______ _____ _____    ______ ____
ROOT
ATOM      1  C   UNL     1      -3.287   0.757   3.614  0.00  0.00    +0.193 C 
ATOM      2  N   UNL     1      -3.968   1.756   4.447  0.00  0.00    -0.322 N 
ATOM      3  C   UNL     1      -3.833   3.100   4.117  0.00  0.00    +0.041 A 
ATOM      4  C   UNL     1      -4.824   4.025   4.393  0.00  0.00    +0.024 A 
ATOM      5  C   UNL     1      -4.641   5.349   4.040  0.00  0.00    +0.002 A 
ATOM      6  C   UNL     1      -3.474   5.756   3.413  0.00  0.00    +0.001 A 
ATOM      7  C   UNL     1      -2.475   4.846   3.132  0.00  0.00    +0.015 A 
ATOM      8  C   UNL     1      -2.646   3.510   3.484  0.00  0.00    +0.058 A 
ATOM      9  C   UNL     1      -1.608   2.497   3.215  0.00  0.00    +0.247 C 
ATOM     10  O   UNL     1      -0.483   2.838   2.904  0.00  0.00    -0.270 OA
ATOM     11  N   UNL     1      -1.922   1.193   3.319  0.00  0.00    -0.289 N 
ATOM     12  H   UNL     1      -4.500   1.484   5.211  0.00  0.00    +0.148 HD
ATOM     13  H   UNL     1      -1.227   0.528   3.195  0.00  0.00    +0.151 HD
ENDROOT
BRANCH   1  19
ATOM     14  C   UNL     1      -3.391   0.125   1.190  0.00  0.00    +0.127 A 
ATOM     15  C   UNL     1      -4.093  -0.039   0.004  0.00  0.00    +0.046 A 
ATOM     16  C   UNL     1      -5.440   0.262  -0.046  0.00  0.00    +0.004 A 
ATOM     17  C   UNL     1      -6.089   0.725   1.084  0.00  0.00    +0.001 A 
ATOM     18  C   UNL     1      -5.392   0.889   2.266  0.00  0.00    +0.011 A 
ATOM     19  C   UNL     1      -4.045   0.584   2.323  0.00  0.00    +0.032 A 
BRANCH  14  20
ATOM     20  O   UNL     1      -2.066  -0.171   1.242  0.00  0.00    -0.489 OA
BRANCH  20  21
ATOM     21  C   UNL     1      -1.440  -0.564   0.019  0.00  0.00    +0.170 C 
ATOM     22  C   UNL     1      -1.623  -2.069  -0.187  0.00  0.00    +0.052 C 
BRANCH  21  24
ATOM     23  C   UNL     1       0.239   1.280   0.162  0.00  0.00    +0.007 C 
ATOM     24  C   UNL     1       0.053  -0.236   0.081  0.00  0.00    +0.041 C 
ENDBRANCH  21  24
ENDBRANCH  20  21
ENDBRANCH  14  20
ENDBRANCH   1  19
TORSDOF 4
