REMARK  Name = ZINC63878215
REMARK  6 active torsions:
REMARK  status: ('A' for Active; 'I' for Inactive)
REMARK    1  A    between atoms: C_1  and  C_2
REMARK    2  A    between atoms: C_5  and  C_24
REMARK    3  A    between atoms: C_7  and  N_8
REMARK    4  A    between atoms: N_8  and  S_9
REMARK    5  A    between atoms: S_9  and  C_12
REMARK    6  A    between atoms: C_15  and  C_18
REMARK                            x       y       z     vdW  Elec       q    Type
REMARK                         _______ _______ _______ _____ _____    ______ ____
ROOT
ATOM      1  S   UNL     1       0.764  -0.665   3.744  0.00  0.00    +0.072 S 
ATOM      2  O   UNL     1       0.518   0.223   4.826  0.00  0.00    -0.150 OA
ATOM      3  O   UNL     1       0.387  -2.035   3.783  0.00  0.00    -0.150 OA
ENDROOT
BRANCH   1   4
ATOM      4  C   UNL     1       2.500  -0.629   3.446  0.00  0.00    +0.109 A 
ATOM      5  C   UNL     1       3.117  -1.698   2.823  0.00  0.00    +0.029 A 
ATOM      6  C   UNL     1       4.479  -1.669   2.590  0.00  0.00    +0.006 A 
ATOM      7  C   UNL     1       5.224  -0.572   2.978  0.00  0.00    -0.044 A 
ATOM      8  C   UNL     1       4.607   0.497   3.600  0.00  0.00    +0.006 A 
ATOM      9  C   UNL     1       3.244   0.471   3.830  0.00  0.00    +0.029 A 
BRANCH   7  10
ATOM     10  C   UNL     1       6.709  -0.541   2.724  0.00  0.00    +0.019 C 
ATOM     11  C   UNL     1       7.452  -0.409   4.056  0.00  0.00    +0.008 C 
ATOM     12  C   UNL     1       8.960  -0.378   3.798  0.00  0.00    +0.001 C 
ATOM     13  C   UNL     1       9.299   0.816   2.903  0.00  0.00    +0.000 C 
ATOM     14  C   UNL     1       8.557   0.684   1.572  0.00  0.00    +0.001 C 
ATOM     15  C   UNL     1       7.049   0.653   1.830  0.00  0.00    +0.008 C 
ENDBRANCH   7  10
ENDBRANCH   1   4
BRANCH   1  16
ATOM     16  N   UNL     1       0.025  -0.009   2.416  0.00  0.00    -0.216 N 
ATOM     17  H   UNL     1      -0.523   0.786   2.508  0.00  0.00    +0.174 HD
BRANCH  16  24
ATOM     18  C   UNL     1       0.153   1.692   0.143  0.00  0.00    +0.046 C 
ATOM     19  C   UNL     1       0.258   0.193   0.022  0.00  0.00    -0.028 A 
ATOM     20  C   UNL     1       0.428  -0.387  -1.222  0.00  0.00    +0.006 A 
ATOM     21  C   UNL     1       0.525  -1.758  -1.341  0.00  0.00    +0.013 A 
ATOM     22  C   UNL     1       0.453  -2.565  -0.203  0.00  0.00    +0.038 A 
ATOM     23  C   UNL     1       0.282  -1.980   1.051  0.00  0.00    +0.037 A 
ATOM     24  C   UNL     1       0.191  -0.600   1.161  0.00  0.00    +0.052 A 
BRANCH  22  25
ATOM     25  C   UNL     1       0.556  -4.035  -0.329  0.00  0.00    +0.242 C 
ATOM     26  O   UNL     1       0.493  -4.735   0.663  0.00  0.00    -0.270 OA
ATOM     27  N   UNL     1       0.721  -4.598  -1.542  0.00  0.00    -0.325 N 
ATOM     28  H   UNL     1       0.772  -4.039  -2.333  0.00  0.00    +0.145 HD
ATOM     29  H   UNL     1       0.789  -5.562  -1.624  0.00  0.00    +0.145 HD
ENDBRANCH  22  25
ENDBRANCH  16  24
ENDBRANCH   1  16
TORSDOF 5
