REMARK  Name = ZINC53385735
REMARK  6 active torsions:
REMARK  status: ('A' for Active; 'I' for Inactive)
REMARK    1  A    between atoms: N_12  and  C_13
REMARK    2  A    between atoms: C_13  and  C_14
REMARK    3  A    between atoms: C_14  and  N_15
REMARK    4  A    between atoms: N_15  and  C_16
REMARK    5  A    between atoms: C_16  and  C_17
REMARK    6  A    between atoms: C_16  and  C_20
REMARK                            x       y       z     vdW  Elec       q    Type
REMARK                         _______ _______ _______ _____ _____    ______ ____
ROOT
ATOM      1  C   UNL     1       4.474  -0.102   2.228  0.00  0.00    -0.098 C 
ENDROOT
BRANCH   1  11
ATOM      2  C   UNL     1       0.491   0.802  -0.843  0.00  0.00    +0.000 C 
ATOM      3  C   UNL     1       1.888   1.418  -0.735  0.00  0.00    -0.002 C 
ATOM      4  C   UNL     1       2.489   1.083   0.631  0.00  0.00    -0.015 C 
ATOM      5  C   UNL     1       2.588  -0.436   0.787  0.00  0.00    -0.066 C 
ATOM      6  C   UNL     1       1.190  -1.051   0.680  0.00  0.00    -0.025 C 
ATOM      7  C   UNL     1       0.590  -0.716  -0.687  0.00  0.00    +0.002 C 
ATOM      8  C   UNL     1       1.295  -2.571   0.832  0.00  0.00    +0.000 C 
ATOM      9  C   UNL     1       1.970  -2.895   2.167  0.00  0.00    -0.018 C 
ATOM     10  C   UNL     1       3.338  -2.211   2.220  0.00  0.00    -0.079 C 
ATOM     11  N   UNL     1       3.167  -0.759   2.096  0.00  0.00    +0.381 N 
ATOM     12  H   UNL     1       2.552  -0.429   2.825  0.00  0.00    -0.082 HD
ENDBRANCH   1  11
BRANCH   1  13
ATOM     13  C   UNL     1       5.022  -0.334   3.637  0.00  0.00    -0.101 C 
BRANCH  13  14
ATOM     14  N   UNL     1       6.329   0.323   3.768  0.00  0.00    +0.380 N 
ATOM     15  H   UNL     1       6.939   0.010   3.028  0.00  0.00    -0.086 HD
ATOM     16  H   UNL     1       6.211   1.323   3.707  0.00  0.00    -0.086 HD
BRANCH  14  17
ATOM     17  C   UNL     1       6.922  -0.021   5.068  0.00  0.00    -0.066 C 
BRANCH  17  18
ATOM     18  C   UNL     1       8.349   0.525   5.138  0.00  0.00    -0.025 C 
ATOM     19  C   UNL     1       8.806   1.455   4.012  0.00  0.00    +0.002 C 
ATOM     20  C   UNL     1       9.349   0.027   4.093  0.00  0.00    +0.002 C 
ENDBRANCH  17  18
BRANCH  17  21
ATOM     21  C   UNL     1       6.083   0.595   6.190  0.00  0.00    -0.025 C 
ATOM     22  C   UNL     1       5.781  -0.281   7.408  0.00  0.00    +0.002 C 
ATOM     23  C   UNL     1       4.673   0.041   6.403  0.00  0.00    +0.002 C 
ENDBRANCH  17  21
ENDBRANCH  14  17
ENDBRANCH  13  14
ENDBRANCH   1  13
TORSDOF 6
