REMARK  Name = ZINC37645880
REMARK  9 active torsions:
REMARK  status: ('A' for Active; 'I' for Inactive)
REMARK    1  A    between atoms: C_1  and  C_2
REMARK    2  A    between atoms: C_2  and  C_3
REMARK    3  A    between atoms: C_3  and  C_4
REMARK    4  A    between atoms: C_3  and  C_5
REMARK    5  A    between atoms: C_3  and  C_6
REMARK    6  A    between atoms: C_9  and  N_12
REMARK    7  A    between atoms: N_12  and  C_13
REMARK    8  A    between atoms: C_13  and  C_14
REMARK    9  A    between atoms: N_18  and  C_20
REMARK                            x       y       z     vdW  Elec       q    Type
REMARK                         _______ _______ _______ _____ _____    ______ ____
ROOT
ATOM      1  C   UNL     1      -1.413  -2.063   0.004  0.00  0.00    -0.005 C 
ATOM      2  C   UNL     1      -0.673  -2.570   1.244  0.00  0.00    +0.002 C 
ATOM      3  C   UNL     1      -0.652  -4.100   1.236  0.00  0.00    -0.015 C 
ATOM      4  C   UNL     1      -2.087  -4.630   1.246  0.00  0.00    -0.072 C 
ATOM      5  C   UNL     1      -2.827  -4.123   0.007  0.00  0.00    -0.015 C 
ATOM      6  C   UNL     1      -2.848  -2.593   0.015  0.00  0.00    +0.002 C 
ENDROOT
BRANCH   1   7
ATOM      7  C   UNL     1      -1.433  -0.534   0.013  0.00  0.00    -0.032 C 
ATOM      8  C   UNL     1      -2.149  -0.040   1.272  0.00  0.00    +0.011 C 
ATOM      9  C   UNL     1      -2.173  -0.027  -1.227  0.00  0.00    +0.011 C 
BRANCH   7  11
ATOM     10  C   UNL     1      -0.019   1.526   0.010  0.00  0.00    +0.004 C 
ATOM     11  C   UNL     1       0.002  -0.004   0.002  0.00  0.00    +0.003 C 
ENDBRANCH   7  11
ENDBRANCH   1   7
BRANCH   4  12
ATOM     12  N   UNL     1      -2.067  -6.099   1.238  0.00  0.00    +0.381 N 
ATOM     13  H   UNL     1      -1.669  -6.425   0.371  0.00  0.00    -0.086 HD
ATOM     14  H   UNL     1      -1.510  -6.432   2.010  0.00  0.00    -0.086 HD
BRANCH  12  15
ATOM     15  C   UNL     1      -3.439  -6.608   1.369  0.00  0.00    -0.081 C 
BRANCH  15  16
ATOM     16  C   UNL     1      -3.418  -8.137   1.361  0.00  0.00    -0.047 C 
ATOM     17  C   UNL     1      -2.995  -8.661  -0.031  0.00  0.00    -0.019 C 
ATOM     18  C   UNL     1      -3.915  -9.891  -0.233  0.00  0.00    -0.079 C 
ATOM     19  N   UNL     1      -5.200  -9.458   0.373  0.00  0.00    +0.378 N 
ATOM     20  C   UNL     1      -4.837  -8.693   1.588  0.00  0.00    -0.078 C 
ATOM     21  C   UNL     1      -6.010 -10.629   0.736  0.00  0.00    -0.096 C 
ATOM     22  H   UNL     1      -5.707  -8.869  -0.271  0.00  0.00    -0.082 HD
ENDBRANCH  15  16
ENDBRANCH  12  15
ENDBRANCH   4  12
TORSDOF 5
