REMARK  Name = ZINC32183793
REMARK  11 active torsions:
REMARK  status: ('A' for Active; 'I' for Inactive)
REMARK    1  A    between atoms: C_1  and  C_2
REMARK    2  A    between atoms: C_2  and  C_3
REMARK    3  A    between atoms: C_2  and  C_4
REMARK    4  A    between atoms: C_2  and  C_5
REMARK    5  A    between atoms: C_8  and  O_11
REMARK    6  A    between atoms: O_11  and  C_12
REMARK    7  A    between atoms: C_15  and  C_18
REMARK    8  A    between atoms: C_18  and  C_20
REMARK    9  A    between atoms: C_18  and  O_23
REMARK   10  A    between atoms: C_20  and  N_21
REMARK   11  A    between atoms: N_21  and  C_22
REMARK                            x       y       z     vdW  Elec       q    Type
REMARK                         _______ _______ _______ _____ _____    ______ ____
ROOT
ATOM      1  C   UNL     1       1.351   0.149   4.715  0.00  0.00    +0.128 A 
ATOM      2  C   UNL     1       1.957   0.032   3.472  0.00  0.00    +0.046 A 
ATOM      3  C   UNL     1       1.300   0.475   2.341  0.00  0.00    +0.010 A 
ATOM      4  C   UNL     1       0.040   1.035   2.446  0.00  0.00    -0.021 A 
ATOM      5  C   UNL     1      -0.563   1.158   3.684  0.00  0.00    +0.010 A 
ATOM      6  C   UNL     1       0.087   0.712   4.818  0.00  0.00    +0.046 A 
ENDROOT
BRANCH   1   7
ATOM      7  O   UNL     1       1.995  -0.287   5.830  0.00  0.00    -0.456 OA
BRANCH   7  11
ATOM      8  C   UNL     1       5.387   1.736   7.023  0.00  0.00    -0.042 A 
ATOM      9  C   UNL     1       5.009   0.577   7.675  0.00  0.00    +0.008 A 
ATOM     10  C   UNL     1       3.874  -0.102   7.278  0.00  0.00    +0.046 A 
ATOM     11  C   UNL     1       3.112   0.380   6.223  0.00  0.00    +0.128 A 
ATOM     12  C   UNL     1       3.496   1.541   5.567  0.00  0.00    +0.046 A 
ATOM     13  C   UNL     1       4.629   2.219   5.972  0.00  0.00    +0.008 A 
BRANCH   8  15
ATOM     14  C   UNL     1       7.842   1.558   7.319  0.00  0.00    +0.015 C 
ATOM     15  C   UNL     1       6.626   2.475   7.459  0.00  0.00    -0.013 C 
ATOM     16  C   UNL     1       6.816   3.714   6.580  0.00  0.00    +0.015 C 
ATOM     17  C   UNL     1       6.476   2.905   8.920  0.00  0.00    +0.015 C 
ENDBRANCH   8  15
ENDBRANCH   7  11
ENDBRANCH   1   7
BRANCH   4  18
ATOM     18  C   UNL     1      -0.674   1.518   1.210  0.00  0.00    +0.128 C 
BRANCH  18  19
ATOM     19  O   UNL     1      -2.077   1.284   1.349  0.00  0.00    -0.389 OA
ATOM     20  H   UNL     1      -2.765   1.573   0.540  0.00  0.00    +0.210 HD
ENDBRANCH  18  19
BRANCH  18  21
ATOM     21  C   UNL     1      -0.423   3.016   1.028  0.00  0.00    -0.046 C 
BRANCH  21  22
ATOM     22  N   UNL     1      -1.119   3.487  -0.176  0.00  0.00    +0.379 N 
ATOM     23  C   UNL     1      -0.899   4.925  -0.384  0.00  0.00    -0.100 C 
ATOM     24  H   UNL     1      -0.741   2.942  -1.054  0.00  0.00    -0.086 HD
ATOM     25  H   UNL     1      -2.199   3.307  -0.070  0.00  0.00    -0.086 HD
ENDBRANCH  21  22
ENDBRANCH  18  21
ENDBRANCH   4  18
TORSDOF 7
