REMARK  Name = ZINC40682335
REMARK  5 active torsions:
REMARK  status: ('A' for Active; 'I' for Inactive)
REMARK    1  A    between atoms: C_4  and  N_11
REMARK    2  A    between atoms: C_6  and  C_7
REMARK    3  A    between atoms: C_13  and  N_25
REMARK    4  A    between atoms: C_14  and  N_18
REMARK    5  A    between atoms: N_18  and  C_19
REMARK                            x       y       z     vdW  Elec       q    Type
REMARK                         _______ _______ _______ _____ _____    ______ ____
ROOT
ATOM      1  N   UNL     1       3.586  -0.655   0.252  0.00  0.00    -0.297 N 
ATOM      2  C   UNL     1       3.623  -2.042   0.354  0.00  0.00    +0.149 A 
ATOM      3  C   UNL     1       4.840  -2.724   0.294  0.00  0.00    +0.106 A 
ATOM      4  C   UNL     1       4.821  -4.116   0.402  0.00  0.00    +0.149 A 
ATOM      5  N   UNL     1       3.652  -4.734   0.557  0.00  0.00    -0.219 NA
ATOM      6  C   UNL     1       2.526  -4.052   0.609  0.00  0.00    +0.225 A 
ATOM      7  N   UNL     1       2.501  -2.738   0.517  0.00  0.00    -0.219 NA
ATOM      8  H   UNL     1       4.397  -0.162   0.054  0.00  0.00    +0.154 HD
ENDROOT
BRANCH   1  12
ATOM      9  C   UNL     1      -0.010   1.376   0.795  0.00  0.00    +0.014 A 
ATOM     10  C   UNL     1       1.034   1.989   0.126  0.00  0.00    +0.022 A 
ATOM     11  C   UNL     1       2.228   1.319  -0.056  0.00  0.00    +0.062 A 
ATOM     12  C   UNL     1       2.379   0.027   0.435  0.00  0.00    +0.052 A 
ATOM     13  C   UNL     1       1.329  -0.585   1.106  0.00  0.00    +0.037 A 
ATOM     14  C   UNL     1       0.137   0.091   1.284  0.00  0.00    +0.057 A 
ATOM     15 CL   UNL     1       3.537   2.088  -0.896  0.00  0.00    -0.082 Cl
BRANCH  14  16
ATOM     16  C   UNL     1      -1.003  -0.572   2.012  0.00  0.00    +0.417 C 
ATOM     17  F   UNL     1      -2.094   0.302   2.067  0.00  0.00    -0.166 F 
ATOM     18  F   UNL     1      -1.374  -1.738   1.334  0.00  0.00    -0.166 F 
ATOM     19  F   UNL     1      -0.601  -0.897   3.312  0.00  0.00    -0.166 F 
ENDBRANCH  14  16
ENDBRANCH   1  12
BRANCH   3  20
ATOM     20  N   UNL     1       6.049  -2.031   0.129  0.00  0.00    -0.353 N 
ATOM     21  H   UNL     1       6.047  -1.063   0.055  0.00  0.00    +0.143 HD
ATOM     22  H   UNL     1       6.886  -2.518   0.088  0.00  0.00    +0.143 HD
ENDBRANCH   3  20
BRANCH   4  23
ATOM     23  N   UNL     1       6.004  -4.845   0.347  0.00  0.00    -0.298 N 
ATOM     24  H   UNL     1       6.857  -4.384   0.317  0.00  0.00    +0.154 HD
BRANCH  23  25
ATOM     25  C   UNL     1       5.964  -6.237   0.337  0.00  0.00    +0.035 A 
ATOM     26  C   UNL     1       4.909  -6.918  -0.270  0.00  0.00    +0.041 A 
ATOM     27  C   UNL     1       4.907  -8.297  -0.258  0.00  0.00    +0.084 A 
ATOM     28  N   UNL     1       5.887  -8.971   0.316  0.00  0.00    -0.367 N 
ATOM     29  C   UNL     1       6.902  -8.363   0.900  0.00  0.00    +0.084 A 
ATOM     30  C   UNL     1       6.982  -6.987   0.927  0.00  0.00    +0.041 A 
ATOM     31  H   UNL     1       5.859  -9.940   0.309  0.00  0.00    +0.165 HD
ENDBRANCH  23  25
ENDBRANCH   4  23
TORSDOF 5
