REMARK  Name = ZINC41513922
REMARK  6 active torsions:
REMARK  status: ('A' for Active; 'I' for Inactive)
REMARK    1  A    between atoms: C_1  and  C_2
REMARK    2  A    between atoms: C_4  and  O_32
REMARK    3  A    between atoms: C_5  and  C_24
REMARK    4  A    between atoms: C_11  and  C_12
REMARK    5  A    between atoms: C_24  and  N_25
REMARK    6  A    between atoms: N_28  and  C_31
REMARK                            x       y       z     vdW  Elec       q    Type
REMARK                         _______ _______ _______ _____ _____    ______ ____
ROOT
ATOM      1  C   UNL     1      -0.663   1.599   0.134  0.00  0.00    +0.045 C 
ATOM      2  C   UNL     1      -0.763   0.096   0.112  0.00  0.00    -0.033 A 
ATOM      3  C   UNL     1      -1.038  -0.555  -1.057  0.00  0.00    +0.050 A 
ATOM      4  C   UNL     1      -1.130  -1.944  -1.080  0.00  0.00    +0.125 A 
ATOM      5  C   UNL     1      -0.946  -2.681   0.079  0.00  0.00    +0.051 A 
ATOM      6  C   UNL     1      -0.666  -2.035   1.276  0.00  0.00    +0.148 A 
ATOM      7  C   UNL     1      -0.569  -0.634   1.285  0.00  0.00    +0.071 A 
ATOM      8  C   UNL     1      -0.261  -0.248   2.674  0.00  0.00    +0.232 C 
ATOM      9  O   UNL     1      -0.099   0.876   3.118  0.00  0.00    -0.283 OA
ATOM     10  C   UNL     1      -0.192  -1.521   3.405  0.00  0.00    +0.176 C 
ATOM     11  C   UNL     1       0.068  -1.674   4.729  0.00  0.00    +0.061 C 
ATOM     12  O   UNL     1      -0.448  -2.514   2.520  0.00  0.00    -0.451 OA
ENDROOT
BRANCH  11  13
ATOM     13  C   UNL     1      -0.019  -3.002   5.345  0.00  0.00    +0.022 A 
ATOM     14  C   UNL     1      -0.011  -4.152   4.546  0.00  0.00    +0.031 A 
ATOM     15  C   UNL     1      -0.095  -5.396   5.133  0.00  0.00    +0.042 A 
ATOM     16  C   UNL     1      -0.189  -5.513   6.512  0.00  0.00    +0.029 A 
ATOM     17  C   UNL     1      -0.198  -4.387   7.313  0.00  0.00    +0.022 A 
ATOM     18  C   UNL     1      -0.105  -3.129   6.742  0.00  0.00    +0.136 A 
ATOM     19  O   UNL     1      -0.096  -2.015   7.519  0.00  0.00    -0.465 OA
ATOM     20  C   UNL     1      -0.543  -2.165   8.870  0.00  0.00    +0.395 C 
ATOM     21  O   UNL     1       0.098  -3.314   9.438  0.00  0.00    -0.339 OA
ATOM     22  C   UNL     1      -0.305  -4.539   8.810  0.00  0.00    +0.202 C 
ATOM     23 CL   UNL     1      -0.084  -6.822   4.143  0.00  0.00    -0.084 Cl
ENDBRANCH  11  13
BRANCH   4  24
ATOM     24  O   UNL     1      -1.404  -2.581  -2.246  0.00  0.00    -0.506 OA
ATOM     25  H   UNL     1      -0.619  -2.821  -2.757  0.00  0.00    +0.292 HD
ENDBRANCH   4  24
BRANCH   5  26
ATOM     26  C   UNL     1      -1.050  -4.184   0.040  0.00  0.00    +0.126 C 
BRANCH  26  27
ATOM     27  N   UNL     1       0.272  -4.759  -0.244  0.00  0.00    -0.301 NA
ATOM     28  C   UNL     1       0.719  -4.410  -1.599  0.00  0.00    +0.066 C 
ATOM     29  C   UNL     1       2.121  -4.976  -1.833  0.00  0.00    -0.064 C 
ATOM     30  N   UNL     1       2.094  -6.435  -1.669  0.00  0.00    +0.379 N 
ATOM     31  C   UNL     1       1.669  -6.768  -0.303  0.00  0.00    -0.064 C 
ATOM     32  C   UNL     1       0.263  -6.217  -0.057  0.00  0.00    +0.066 C 
ATOM     33  C   UNL     1       3.436  -6.980  -1.911  0.00  0.00    -0.096 C 
ATOM     34  H   UNL     1       1.444  -6.835  -2.330  0.00  0.00    -0.082 HD
ENDBRANCH  26  27
ENDBRANCH   5  26
TORSDOF 4
