REMARK  Name = ZINC38599004
REMARK  5 active torsions:
REMARK  status: ('A' for Active; 'I' for Inactive)
REMARK    1  A    between atoms: C_3  and  C_7
REMARK    2  A    between atoms: C_10  and  N_21
REMARK    3  A    between atoms: C_14  and  C_16
REMARK    4  A    between atoms: N_21  and  C_22
REMARK    5  A    between atoms: C_22  and  C_23
REMARK                            x       y       z     vdW  Elec       q    Type
REMARK                         _______ _______ _______ _____ _____    ______ ____
ROOT
ATOM      1  C   UNL     1       3.696   2.049  -0.023  0.00  0.00    +0.171 C 
ATOM      2  N   UNL     1       4.720   1.258   0.715  0.00  0.00    -0.292 NA
ATOM      3  C   UNL     1       5.672   2.303   1.165  0.00  0.00    +0.106 C 
ATOM      4  N   UNL     1       4.926   3.571   1.149  0.00  0.00    -0.231 N 
ATOM      5  N   UNL     1       3.631   3.308   0.762  0.00  0.00    -0.217 NA
ATOM      6  C   UNL     1       5.424   4.784   1.457  0.00  0.00    +0.266 C 
ATOM      7  O   UNL     1       6.591   4.897   1.785  0.00  0.00    -0.268 OA
ATOM      8  H   UNL     1       4.309   0.779   1.502  0.00  0.00    +0.124 HD
ATOM      9  H   UNL     1       3.030   3.203   1.565  0.00  0.00    +0.147 HD
ENDROOT
BRANCH   1  12
ATOM     10  C   UNL     1      -0.017   1.378   0.010  0.00  0.00    +0.020 A 
ATOM     11  C   UNL     1       1.185   2.070   0.002  0.00  0.00    +0.009 A 
ATOM     12  C   UNL     1       2.365   1.343  -0.013  0.00  0.00    +0.003 A 
ATOM     13  C   UNL     1       2.305  -0.038  -0.020  0.00  0.00    +0.117 A 
ATOM     14  N   UNL     1       1.144  -0.663  -0.013  0.00  0.00    -0.263 NA
ATOM     15  C   UNL     1       0.002  -0.004   0.002  0.00  0.00    +0.111 A 
ENDBRANCH   1  12
BRANCH   6  16
ATOM     16  C   UNL     1       4.562   5.968   1.398  0.00  0.00    +0.075 A 
ATOM     17  C   UNL     1       4.874   7.292   1.667  0.00  0.00    +0.021 A 
ATOM     18  C   UNL     1       3.844   8.190   1.523  0.00  0.00    +0.008 A 
ATOM     19  C   UNL     1       2.624   7.737   1.139  0.00  0.00    +0.046 A 
ATOM     20  S   UNL     1       2.839   6.081   0.954  0.00  0.00    -0.092 S 
ENDBRANCH   6  16
BRANCH   3  21
ATOM     21  N   UNL     1       6.815   2.375   0.245  0.00  0.00    +0.403 N 
ATOM     22  H   UNL     1       6.485   2.581  -0.686  0.00  0.00    -0.081 HD
ATOM     23  H   UNL     1       7.444   3.104   0.547  0.00  0.00    -0.081 HD
BRANCH  21  24
ATOM     24  C   UNL     1       7.523   1.088   0.241  0.00  0.00    -0.042 C 
BRANCH  24  25
ATOM     25  C   UNL     1       8.695   1.163  -0.703  0.00  0.00    -0.064 C 
ATOM     26  C   UNL     1       9.940   1.469  -0.225  0.00  0.00    +0.007 C 
ATOM     27  C   UNL     1      10.969   1.453  -1.183  0.00  0.00    -0.018 C 
ATOM     28  C   UNL     1      12.116   2.140  -1.304  0.00  0.00    +0.025 C 
ATOM     29  C   UNL     1      12.637   1.954  -2.605  0.00  0.00    +0.106 C 
ATOM     30  N   UNL     1      11.951   1.083  -3.288  0.00  0.00    -0.279 NA
ATOM     31  C   UNL     1      10.907   0.566  -2.416  0.00  0.00    +0.158 C 
ATOM     32  C   UNL     1       9.514   0.651  -2.964  0.00  0.00    +0.004 C 
ATOM     33  C   UNL     1       8.503   0.903  -2.127  0.00  0.00    -0.000 C 
ENDBRANCH  24  25
ENDBRANCH  21  24
ENDBRANCH   3  21
TORSDOF 5
