REMARK  Name = ZINC01760450
REMARK  6 active torsions:
REMARK  status: ('A' for Active; 'I' for Inactive)
REMARK    1  A    between atoms: C_1  and  N_34
REMARK    2  A    between atoms: C_2  and  C_3
REMARK    3  A    between atoms: C_2  and  N_34
REMARK    4  A    between atoms: C_8  and  O_9
REMARK    5  A    between atoms: C_12  and  N_13
REMARK    6  A    between atoms: C_12  and  N_34
REMARK                            x       y       z     vdW  Elec       q    Type
REMARK                         _______ _______ _______ _____ _____    ______ ____
ROOT
ATOM      1  C   UNL     1      -2.561   4.508   0.047  0.00  0.00    -0.037 C 
ENDROOT
BRANCH   1   2
ATOM      2  C   UNL     1      -1.400   3.549  -0.004  0.00  0.00    -0.020 A 
ATOM      3  C   UNL     1      -0.123   3.994   0.285  0.00  0.00    +0.025 A 
ATOM      4  C   UNL     1       0.945   3.116   0.232  0.00  0.00    +0.043 A 
ATOM      5  C   UNL     1       0.736   1.789  -0.100  0.00  0.00    +0.043 A 
ATOM      6  C   UNL     1      -0.539   1.339  -0.386  0.00  0.00    +0.084 A 
ATOM      7  C   UNL     1      -1.611   2.220  -0.338  0.00  0.00    +0.137 A 
ATOM      8 CL   UNL     1      -0.800  -0.325  -0.803  0.00  0.00    -0.080 Cl
ATOM      9 CL   UNL     1       2.547   3.679   0.591  0.00  0.00    -0.083 Cl
BRANCH   7  10
ATOM     10  O   UNL     1      -2.866   1.781  -0.619  0.00  0.00    -0.505 OA
ATOM     11  H   UNL     1      -3.325   1.390   0.138  0.00  0.00    +0.292 HD
ENDBRANCH   7  10
ENDBRANCH   1   2
BRANCH   1  13
ATOM     12  C   UNL     1      -1.958   5.759  -1.936  0.00  0.00    -0.093 C 
ATOM     13  N   UNL     1      -2.957   4.850  -1.335  0.00  0.00    +0.391 N 
ATOM     14  H   UNL     1      -3.001   3.988  -1.892  0.00  0.00    -0.079 HD
BRANCH  13  15
ATOM     15  C   UNL     1      -4.289   5.491  -1.336  0.00  0.00    +0.041 C 
BRANCH  15  16
ATOM     16  N   UNL     1      -4.898   5.302  -2.655  0.00  0.00    -0.259 N 
ATOM     17  C   UNL     1      -4.751   6.181  -3.653  0.00  0.00    +0.221 C 
ATOM     18  O   UNL     1      -4.115   7.212  -3.593  0.00  0.00    -0.275 OA
ATOM     19  C   UNL     1      -5.501   5.684  -4.870  0.00  0.00    +0.105 C 
ATOM     20  C   UNL     1      -6.122   4.355  -4.393  0.00  0.00    +0.105 C 
ATOM     21  C   UNL     1      -5.652   4.239  -2.959  0.00  0.00    +0.221 C 
ATOM     22  O   UNL     1      -5.917   3.327  -2.205  0.00  0.00    -0.275 OA
ENDBRANCH  15  16
ENDBRANCH  13  15
ENDBRANCH   1  13
TORSDOF 5
