REMARK  Name = ZINC05033886
REMARK  6 active torsions:
REMARK  status: ('A' for Active; 'I' for Inactive)
REMARK    1  A    between atoms: C_1  and  C_2
REMARK    2  A    between atoms: C_3  and  O_29
REMARK    3  A    between atoms: C_6  and  C_9
REMARK    4  A    between atoms: C_7  and  O_8
REMARK    5  A    between atoms: N_10  and  N_11
REMARK    6  A    between atoms: C_20  and  C_22
REMARK                            x       y       z     vdW  Elec       q    Type
REMARK                         _______ _______ _______ _____ _____    ______ ____
ROOT
ATOM      1  N   UNL     1      -3.601   7.282   0.077  0.00  0.00    -0.220 N 
ATOM      2  C   UNL     1      -3.632   5.905   0.070  0.00  0.00    +0.150 A 
ATOM      3  C   UNL     1      -4.866   5.205   0.078  0.00  0.00    +0.042 A 
ATOM      4  C   UNL     1      -6.096   5.871   0.093  0.00  0.00    +0.013 A 
ATOM      5  C   UNL     1      -7.252   5.147   0.101  0.00  0.00    +0.001 A 
ATOM      6  C   UNL     1      -7.225   3.756   0.093  0.00  0.00    +0.002 A 
ATOM      7  C   UNL     1      -6.043   3.076   0.078  0.00  0.00    +0.028 A 
ATOM      8  C   UNL     1      -4.835   3.789   0.070  0.00  0.00    +0.077 A 
ATOM      9  N   UNL     1      -3.648   3.169   0.050  0.00  0.00    -0.227 NA
ATOM     10  C   UNL     1      -2.528   3.868   0.048  0.00  0.00    +0.165 A 
ATOM     11  N   UNL     1      -2.510   5.200   0.055  0.00  0.00    -0.210 NA
ATOM     12  H   UNL     1      -4.430   7.786   0.088  0.00  0.00    +0.176 HD
ENDROOT
BRANCH  10  13
ATOM     13  C   UNL     1      -1.236   3.141   0.031  0.00  0.00    +0.054 A 
ATOM     14  C   UNL     1      -1.218   1.747   0.017  0.00  0.00    +0.014 A 
ATOM     15  C   UNL     1      -0.013   1.076   0.008  0.00  0.00    +0.001 A 
ATOM     16  C   UNL     1       1.178   1.782   0.000  0.00  0.00    +0.003 A 
ATOM     17  C   UNL     1       1.168   3.164   0.007  0.00  0.00    +0.039 A 
ATOM     18  C   UNL     1      -0.033   3.850   0.023  0.00  0.00    +0.134 A 
ATOM     19  F   UNL     1      -0.042   5.201   0.031  0.00  0.00    -0.205 F 
ENDBRANCH  10  13
BRANCH   1  21
ATOM     20  C   UNL     1      -2.343   9.253   0.076  0.00  0.00    +0.141 C 
ATOM     21  N   UNL     1      -2.373   7.955   0.069  0.00  0.00    -0.189 NA
BRANCH  20  27
ATOM     22  C   UNL     1       2.650   9.132   0.026  0.00  0.00    +0.051 C 
ATOM     23  C   UNL     1       1.358   9.907   0.043  0.00  0.00    +0.033 A 
ATOM     24  C   UNL     1       1.382  11.295   0.050  0.00  0.00    +0.123 A 
ATOM     25  C   UNL     1       0.195  12.016   0.066  0.00  0.00    +0.046 A 
ATOM     26  C   UNL     1      -1.016  11.357   0.069  0.00  0.00    +0.016 A 
ATOM     27  C   UNL     1      -1.051   9.961   0.068  0.00  0.00    +0.036 A 
ATOM     28  C   UNL     1       0.149   9.235   0.052  0.00  0.00    +0.132 A 
BRANCH  28  29
ATOM     29  O   UNL     1       0.124   7.878   0.044  0.00  0.00    -0.506 OA
ATOM     30  H   UNL     1       0.108   7.489  -0.841  0.00  0.00    +0.292 HD
ENDBRANCH  28  29
BRANCH  24  31
ATOM     31  O   UNL     1       2.572  11.951   0.042  0.00  0.00    -0.506 OA
ATOM     32  H   UNL     1       2.907  12.145  -0.844  0.00  0.00    +0.292 HD
ENDBRANCH  24  31
ENDBRANCH  20  27
ENDBRANCH   1  21
TORSDOF 5
