REMARK  Name = ZINC36288715
REMARK  6 active torsions:
REMARK  status: ('A' for Active; 'I' for Inactive)
REMARK    1  A    between atoms: C_1  and  O_2
REMARK    2  A    between atoms: O_2  and  C_3
REMARK    3  A    between atoms: C_6  and  N_10
REMARK    4  A    between atoms: C_8  and  N_9
REMARK    5  A    between atoms: N_10  and  S_11
REMARK    6  A    between atoms: S_11  and  C_14
REMARK                            x       y       z     vdW  Elec       q    Type
REMARK                         _______ _______ _______ _____ _____    ______ ____
ROOT
ATOM      1  N   UNL     1       2.447  -2.465   4.215  0.00  0.00    -0.216 N 
ATOM      2  H   UNL     1       3.063  -3.179   3.988  0.00  0.00    +0.174 HD
ENDROOT
BRANCH   1   6
ATOM      3  C   UNL     1       0.008  -0.791   1.272  0.00  0.00    +0.141 A 
ATOM      4  C   UNL     1       0.692   0.028   2.156  0.00  0.00    +0.049 A 
ATOM      5  C   UNL     1       1.500  -0.527   3.131  0.00  0.00    +0.028 A 
ATOM      6  C   UNL     1       1.628  -1.906   3.228  0.00  0.00    +0.050 A 
ATOM      7  C   UNL     1       0.945  -2.731   2.344  0.00  0.00    +0.051 A 
ATOM      8  C   UNL     1       0.130  -2.175   1.370  0.00  0.00    +0.069 A 
BRANCH   8   9
ATOM      9  N   UNL     1      -0.565  -3.004   0.481  0.00  0.00    -0.355 N 
ATOM     10  H   UNL     1      -1.132  -2.614  -0.203  0.00  0.00    +0.142 HD
ATOM     11  H   UNL     1      -0.480  -3.968   0.550  0.00  0.00    +0.142 HD
ENDBRANCH   8   9
BRANCH   3  13
ATOM     12  C   UNL     1      -0.865   1.183   0.271  0.00  0.00    +0.277 C 
ATOM     13  O   UNL     1      -0.787  -0.243   0.313  0.00  0.00    -0.493 OA
ENDBRANCH   3  13
ENDBRANCH   1   6
BRANCH   1  14
ATOM     14  S   UNL     1       2.363  -1.908   5.772  0.00  0.00    +0.073 S 
ATOM     15  O   UNL     1       0.983  -1.834   6.104  0.00  0.00    -0.150 OA
ATOM     16  O   UNL     1       3.288  -2.677   6.529  0.00  0.00    -0.150 OA
BRANCH  14  17
ATOM     17  C   UNL     1       2.969  -0.254   5.767  0.00  0.00    +0.122 A 
ATOM     18  C   UNL     1       2.130   0.791   6.108  0.00  0.00    +0.030 A 
ATOM     19  C   UNL     1       2.605   2.089   6.104  0.00  0.00    +0.002 A 
ATOM     20  C   UNL     1       3.920   2.343   5.760  0.00  0.00    +0.001 A 
ATOM     21  C   UNL     1       4.759   1.300   5.419  0.00  0.00    +0.017 A 
ATOM     22  C   UNL     1       4.285  -0.000   5.428  0.00  0.00    +0.044 A 
ATOM     23 BR   UNL     1       5.436  -1.429   4.968  0.00  0.00    -0.048 Br
ENDBRANCH  14  17
ENDBRANCH   1  14
TORSDOF 5
