REMARK  Name = ZINC63384650
REMARK  10 active torsions:
REMARK  status: ('A' for Active; 'I' for Inactive)
REMARK    1  A    between atoms: C_1  and  C_2
REMARK    2  A    between atoms: C_7  and  O_16
REMARK    3  A    between atoms: C_13  and  C_15
REMARK    4  A    between atoms: O_16  and  C_17
REMARK    5  A    between atoms: C_17  and  C_18
REMARK    6  A    between atoms: N_20  and  C_21
REMARK    7  A    between atoms: C_21  and  C_22
REMARK    8  A    between atoms: C_22  and  C_23
REMARK    9  A    between atoms: C_26  and  O_32
REMARK   10  A    between atoms: O_32  and  C_33
REMARK                            x       y       z     vdW  Elec       q    Type
REMARK                         _______ _______ _______ _____ _____    ______ ____
ROOT
ATOM      1  C   UNL     1       3.015  -1.591  -7.073  0.00  0.00    +0.251 C 
ATOM      2  O   UNL     1       3.730  -2.554  -6.900  0.00  0.00    -0.272 OA
ATOM      3  N   UNL     1       2.894  -1.053  -8.303  0.00  0.00    -0.312 N 
ATOM      4  H   UNL     1       2.322  -0.283  -8.442  0.00  0.00    +0.149 HD
ENDROOT
BRANCH   1   5
ATOM      5  C   UNL     1       2.260  -0.994  -5.913  0.00  0.00    +0.324 C 
BRANCH   5   6
ATOM      6  O   UNL     1       2.550  -1.734  -4.725  0.00  0.00    -0.483 OA
BRANCH   6  12
ATOM      7  C   UNL     1      -0.019   1.526   0.010  0.00  0.00    +0.013 C 
ATOM      8  C   UNL     1       0.002  -0.004   0.002  0.00  0.00    +0.033 C 
ATOM      9  C   UNL     1       0.705  -0.489  -1.241  0.00  0.00    -0.001 A 
ATOM     10  C   UNL     1       0.474   0.181  -2.433  0.00  0.00    +0.011 A 
ATOM     11  C   UNL     1       1.090  -0.230  -3.597  0.00  0.00    +0.046 A 
ATOM     12  C   UNL     1       1.945  -1.323  -3.580  0.00  0.00    +0.125 A 
ATOM     13  C   UNL     1       2.180  -1.994  -2.391  0.00  0.00    +0.092 A 
ATOM     14  C   UNL     1       1.562  -1.575  -1.218  0.00  0.00    +0.139 A 
ATOM     15  O   UNL     1       1.836  -2.249  -0.069  0.00  0.00    -0.425 OA
ATOM     16  C   UNL     1       1.083  -1.967   1.014  0.00  0.00    +0.316 C 
ATOM     17  O   UNL     1       0.701  -2.835   1.762  0.00  0.00    -0.250 OA
ATOM     18  C   UNL     1       0.740  -0.510   1.245  0.00  0.00    +0.102 C 
ATOM     19  C   UNL     1       2.021   0.300   1.454  0.00  0.00    +0.020 C 
ENDBRANCH   6  12
ENDBRANCH   5   6
ENDBRANCH   1   5
BRANCH   3  20
ATOM     20  C   UNL     1       3.628  -1.633  -9.431  0.00  0.00    +0.108 C 
BRANCH  20  21
ATOM     21  C   UNL     1       3.317  -0.841 -10.703  0.00  0.00    +0.052 C 
BRANCH  21  22
ATOM     22  C   UNL     1       4.072  -1.438 -11.863  0.00  0.00    -0.040 C 
ATOM     23  C   UNL     1       3.609  -2.344 -12.753  0.00  0.00    +0.002 A 
ATOM     24  C   UNL     1       2.317  -3.022 -12.904  0.00  0.00    +0.055 A 
ATOM     25  C   UNL     1       2.140  -3.904 -13.917  0.00  0.00    +0.121 A 
ATOM     26  C   UNL     1       3.158  -4.199 -14.841  0.00  0.00    +0.047 A 
ATOM     27  C   UNL     1       4.380  -3.628 -14.784  0.00  0.00    +0.029 A 
ATOM     28  C   UNL     1       4.681  -2.657 -13.727  0.00  0.00    +0.043 A 
ATOM     29  N   UNL     1       5.761  -1.971 -13.450  0.00  0.00    -0.380 N 
ATOM     30  C   UNL     1       5.497  -1.139 -12.271  0.00  0.00    +0.144 C 
ATOM     31  H   UNL     1       6.596  -2.004 -13.944  0.00  0.00    +0.160 HD
BRANCH  25  32
ATOM     32  O   UNL     1       0.938  -4.524 -14.045  0.00  0.00    -0.495 OA
ATOM     33  C   UNL     1       0.795  -5.446 -15.127  0.00  0.00    +0.277 C 
ENDBRANCH  25  32
ENDBRANCH  21  22
ENDBRANCH  20  21
ENDBRANCH   3  20
TORSDOF 7
