REMARK  Name = ZINC49128111
REMARK  9 active torsions:
REMARK  status: ('A' for Active; 'I' for Inactive)
REMARK    1  A    between atoms: C_1  and  C_2
REMARK    2  A    between atoms: C_2  and  C_3
REMARK    3  A    between atoms: C_3  and  C_5
REMARK    4  A    between atoms: C_3  and  N_8
REMARK    5  A    between atoms: C_5  and  C_6
REMARK    6  A    between atoms: C_5  and  C_7
REMARK    7  A    between atoms: N_8  and  C_9
REMARK    8  A    between atoms: C_12  and  C_21
REMARK    9  A    between atoms: C_15  and  C_20
REMARK                            x       y       z     vdW  Elec       q    Type
REMARK                         _______ _______ _______ _____ _____    ______ ____
ROOT
ATOM      1  C   UNL     1       2.771   0.069  -2.602  0.00  0.00    +0.050 C 
ATOM      2  C   UNL     1       4.162   0.658  -2.650  0.00  0.00    -0.028 A 
ATOM      3  C   UNL     1       5.345   0.317  -2.034  0.00  0.00    -0.047 A 
ATOM      4  C   UNL     1       6.488   1.059  -2.276  0.00  0.00    +0.004 A 
ATOM      5  C   UNL     1       6.436   2.143  -3.134  0.00  0.00    +0.005 A 
ATOM      6  C   UNL     1       5.251   2.487  -3.752  0.00  0.00    -0.029 A 
ATOM      7  C   UNL     1       4.096   1.744  -3.514  0.00  0.00    +0.039 A 
ATOM      8  N   UNL     1       2.800   1.889  -4.009  0.00  0.00    -0.286 N 
ATOM      9  C   UNL     1       1.962   0.950  -3.529  0.00  0.00    +0.208 C 
ATOM     10  O   UNL     1       0.783   0.833  -3.789  0.00  0.00    -0.277 OA
ATOM     11  C   UNL     1       5.206   3.669  -4.685  0.00  0.00    +0.045 C 
ATOM     12  C   UNL     1       5.396  -0.865  -1.100  0.00  0.00    +0.044 C 
ATOM     13  H   UNL     1       2.533   2.585  -4.630  0.00  0.00    +0.155 HD
ENDROOT
BRANCH   1  14
ATOM     14  N   UNL     1       2.233   0.129  -1.236  0.00  0.00    +0.391 N 
ATOM     15  H   UNL     1       2.172   1.091  -0.940  0.00  0.00    -0.084 HD
ATOM     16  H   UNL     1       2.844  -0.377  -0.611  0.00  0.00    -0.084 HD
BRANCH  14  17
ATOM     17  C   UNL     1       0.895  -0.477  -1.209  0.00  0.00    -0.068 C 
BRANCH  17  18
ATOM     18  C   UNL     1       1.002  -1.965  -1.550  0.00  0.00    -0.031 C 
ATOM     19  C   UNL     1       1.851  -2.671  -0.491  0.00  0.00    +0.005 C 
ATOM     20  C   UNL     1      -0.397  -2.584  -1.578  0.00  0.00    +0.005 C 
ENDBRANCH  17  18
BRANCH  17  22
ATOM     21  C   UNL     1       0.068   1.169   0.479  0.00  0.00    +0.002 C 
ATOM     22  C   UNL     1       0.291  -0.317   0.187  0.00  0.00    -0.019 C 
ENDBRANCH  17  22
ENDBRANCH  14  17
ENDBRANCH   1  14
TORSDOF 4
