REMARK  Name = ZINC35509739
REMARK  9 active torsions:
REMARK  status: ('A' for Active; 'I' for Inactive)
REMARK    1  A    between atoms: C_1  and  C_2
REMARK    2  A    between atoms: C_2  and  N_3
REMARK    3  A    between atoms: N_3  and  C_4
REMARK    4  A    between atoms: C_4  and  C_6
REMARK    5  A    between atoms: C_4  and  C_16
REMARK    6  A    between atoms: C_11  and  O_12
REMARK    7  A    between atoms: O_12  and  C_13
REMARK    8  A    between atoms: C_16  and  C_17
REMARK    9  A    between atoms: C_16  and  C_18
REMARK                            x       y       z     vdW  Elec       q    Type
REMARK                         _______ _______ _______ _____ _____    ______ ____
ROOT
ATOM      1  C   UNL     1      -2.584  -2.521  -0.055  0.00  0.00    -0.017 A 
ATOM      2  C   UNL     1      -3.396  -2.163   1.005  0.00  0.00    +0.025 A 
ATOM      3  C   UNL     1      -4.675  -2.679   1.103  0.00  0.00    +0.042 A 
ATOM      4  C   UNL     1      -5.146  -3.555   0.140  0.00  0.00    +0.039 A 
ATOM      5  C   UNL     1      -4.338  -3.916  -0.921  0.00  0.00    +0.061 A 
ATOM      6  C   UNL     1      -3.055  -3.394  -1.024  0.00  0.00    +0.136 A 
ATOM      7 BR   UNL     1      -4.981  -5.112  -2.237  0.00  0.00    -0.046 Br
ATOM      8 CL   UNL     1      -5.692  -2.228   2.436  0.00  0.00    -0.083 Cl
ENDROOT
BRANCH   6   9
ATOM      9  O   UNL     1      -2.261  -3.743  -2.071  0.00  0.00    -0.494 OA
ATOM     10  C   UNL     1      -1.579  -4.995  -1.978  0.00  0.00    +0.277 C 
ENDBRANCH   6   9
BRANCH   1  11
ATOM     11  C   UNL     1      -1.190  -1.958  -0.161  0.00  0.00    -0.035 C 
BRANCH  11  12
ATOM     12  N   UNL     1      -1.236  -0.501   0.022  0.00  0.00    +0.384 N 
ATOM     13  H   UNL     1      -1.530  -0.289   0.964  0.00  0.00    -0.085 HD
ATOM     14  H   UNL     1      -1.890  -0.100  -0.633  0.00  0.00    -0.085 HD
BRANCH  12  16
ATOM     15  C   UNL     1       0.026   1.591  -0.153  0.00  0.00    -0.017 C 
ATOM     16  C   UNL     1       0.100   0.064  -0.213  0.00  0.00    -0.085 C 
ENDBRANCH  12  16
ENDBRANCH  11  12
BRANCH  11  17
ATOM     17  C   UNL     1      -0.305  -2.581   0.920  0.00  0.00    -0.027 C 
ATOM     18  C   UNL     1      -0.896  -2.280   2.299  0.00  0.00    +0.006 C 
ATOM     19  C   UNL     1      -0.237  -4.095   0.714  0.00  0.00    +0.006 C 
ENDBRANCH  11  17
ENDBRANCH   1  11
TORSDOF 5
