REMARK  Name = ZINC41583516
REMARK  1 active torsions:
REMARK  status: ('A' for Active; 'I' for Inactive)
REMARK    1  A    between atoms: C_3  and  C_6
REMARK                            x       y       z     vdW  Elec       q    Type
REMARK                         _______ _______ _______ _____ _____    ______ ____
ROOT
ATOM      1  C   UNL     1       3.574   0.618  -0.029  0.00  0.00    +0.039 A 
ATOM      2  C   UNL     1       4.275   1.360  -0.923  0.00  0.00    +0.059 A 
ATOM      3  S   UNL     1       5.971   0.973  -0.534  0.00  0.00    -0.078 S 
ATOM      4  C   UNL     1       5.699  -0.162   0.801  0.00  0.00    +0.095 A 
ATOM      5  C   UNL     1       4.309  -0.212   0.921  0.00  0.00    +0.081 A 
ATOM      6  C   UNL     1       3.793  -1.098   1.985  0.00  0.00    +0.263 A 
ATOM      7  O   UNL     1       2.594  -1.211   2.164  0.00  0.00    -0.267 OA
ATOM      8  N   UNL     1       4.662  -1.778   2.754  0.00  0.00    -0.275 N 
ATOM      9  H   UNL     1       4.320  -2.359   3.451  0.00  0.00    +0.173 HD
ATOM     10  C   UNL     1       5.991  -1.677   2.583  0.00  0.00    +0.328 A 
ATOM     11  O   UNL     1       6.735  -2.313   3.304  0.00  0.00    -0.247 OA
ATOM     12  N   UNL     1       6.514  -0.891   1.622  0.00  0.00    -0.302 N 
ATOM     13  H   UNL     1       7.477  -0.833   1.518  0.00  0.00    +0.171 HD
ENDROOT
BRANCH   1  16
ATOM     14  C   UNL     1      -0.016   1.343   0.009  0.00  0.00    +0.042 A 
ATOM     15  C   UNL     1       1.326   1.774  -0.001  0.00  0.00    +0.050 A 
ATOM     16  C   UNL     1       2.098   0.654  -0.015  0.00  0.00    +0.136 A 
ATOM     17  O   UNL     1       1.281  -0.417  -0.012  0.00  0.00    -0.463 OA
ATOM     18  C   UNL     1       0.002  -0.004   0.002  0.00  0.00    +0.196 A 
ENDBRANCH   1  16
TORSDOF 1
