REMARK  Name = ZINC39856076
REMARK  11 active torsions:
REMARK  status: ('A' for Active; 'I' for Inactive)
REMARK    1  A    between atoms: C_1  and  C_2
REMARK    2  A    between atoms: C_2  and  C_3
REMARK    3  A    between atoms: C_3  and  C_5
REMARK    4  A    between atoms: C_3  and  N_6
REMARK    5  A    between atoms: C_7  and  C_9
REMARK    6  A    between atoms: C_10  and  C_25
REMARK    7  A    between atoms: C_15  and  C_23
REMARK    8  A    between atoms: C_15  and  C_24
REMARK    9  A    between atoms: N_18  and  N_19
REMARK   10  A    between atoms: N_19  and  C_20
REMARK   11  A    between atoms: C_20  and  N_22
REMARK                            x       y       z     vdW  Elec       q    Type
REMARK                         _______ _______ _______ _____ _____    ______ ____
ROOT
ATOM      1  C   UNL     1       4.233   0.459  -2.305  0.00  0.00    +0.193 A 
ATOM      2  C   UNL     1       5.048   0.643  -3.387  0.00  0.00    +0.009 A 
ATOM      3  C   UNL     1       6.295   1.025  -2.878  0.00  0.00    +0.042 A 
ATOM      4  C   UNL     1       6.189   1.056  -1.508  0.00  0.00    +0.116 A 
ATOM      5  O   UNL     1       4.942   0.720  -1.184  0.00  0.00    -0.454 OA
ATOM      6  C   UNL     1       7.339   1.421  -0.604  0.00  0.00    +0.081 C 
ATOM      7  C   UNL     1       8.658   1.232  -1.358  0.00  0.00    -0.023 C 
ATOM      8  C   UNL     1       8.631   1.986  -2.692  0.00  0.00    +0.064 C 
ATOM      9  C   UNL     1       7.559   1.360  -3.571  0.00  0.00    +0.070 C 
ATOM     10  N   UNL     1       7.739   1.137  -4.836  0.00  0.00    -0.185 NA
ATOM     11  C   UNL     1       9.809   1.764  -0.501  0.00  0.00    +0.011 C 
ATOM     12  C   UNL     1       8.877  -0.258  -1.626  0.00  0.00    +0.011 C 
ATOM     13  C   UNL     1       4.678   0.470  -4.838  0.00  0.00    +0.048 C 
ENDROOT
BRANCH   1  15
ATOM     14  N   UNL     1       2.125  -0.091  -1.209  0.00  0.00    -0.306 N 
ATOM     15  C   UNL     1       2.824   0.051  -2.353  0.00  0.00    +0.280 C 
ATOM     16  O   UNL     1       2.287  -0.157  -3.425  0.00  0.00    -0.267 OA
ATOM     17  H   UNL     1       2.553   0.075  -0.355  0.00  0.00    +0.149 HD
BRANCH  14  18
ATOM     18  C   UNL     1       0.718  -0.497  -1.257  0.00  0.00    +0.070 C 
ATOM     19  C   UNL     1       0.630  -2.023  -1.329  0.00  0.00    +0.028 C 
BRANCH  18  21
ATOM     20  C   UNL     1      -0.019   1.526   0.010  0.00  0.00    +0.005 C 
ATOM     21  C   UNL     1       0.002  -0.004   0.002  0.00  0.00    +0.018 C 
ENDBRANCH  18  21
ENDBRANCH  14  18
ENDBRANCH   1  15
BRANCH  10  22
ATOM     22  N   UNL     1       8.957   1.474  -5.441  0.00  0.00    -0.218 N 
ATOM     23  H   UNL     1       9.666   1.875  -4.913  0.00  0.00    +0.176 HD
BRANCH  22  24
ATOM     24  C   UNL     1       9.145   1.242  -6.755  0.00  0.00    +0.147 C 
ATOM     25  S   UNL     1      10.633   1.655  -7.493  0.00  0.00    -0.017 S 
BRANCH  24  26
ATOM     26  N   UNL     1       8.160   0.685  -7.488  0.00  0.00    -0.339 N 
ATOM     27  H   UNL     1       7.317   0.452  -7.069  0.00  0.00    +0.144 HD
ATOM     28  H   UNL     1       8.295   0.518  -8.434  0.00  0.00    +0.144 HD
ENDBRANCH  24  26
ENDBRANCH  22  24
ENDBRANCH  10  22
TORSDOF 6
