REMARK  Name = ZINC57430061
REMARK  8 active torsions:
REMARK  status: ('A' for Active; 'I' for Inactive)
REMARK    1  A    between atoms: C_1  and  C_2
REMARK    2  A    between atoms: C_2  and  C_3
REMARK    3  A    between atoms: C_3  and  C_4
REMARK    4  A    between atoms: C_4  and  N_5
REMARK    5  A    between atoms: N_8  and  C_9
REMARK    6  A    between atoms: C_9  and  C_15
REMARK    7  A    between atoms: N_17  and  C_18
REMARK    8  A    between atoms: N_21  and  C_24
REMARK                            x       y       z     vdW  Elec       q    Type
REMARK                         _______ _______ _______ _____ _____    ______ ____
ROOT
ATOM      1  C   UNL     1       2.442  -5.688  -3.989  0.00  0.00    +0.112 C 
ATOM      2  C   UNL     1       1.179  -6.520  -4.217  0.00  0.00    +0.035 C 
ATOM      3  C   UNL     1       0.418  -5.971  -5.426  0.00  0.00    +0.003 C 
ATOM      4  C   UNL     1       1.310  -6.047  -6.667  0.00  0.00    +0.000 C 
ATOM      5  C   UNL     1       2.573  -5.215  -6.439  0.00  0.00    +0.003 C 
ATOM      6  C   UNL     1       3.334  -5.764  -5.230  0.00  0.00    +0.035 C 
ENDROOT
BRANCH   1  10
ATOM      7  N   UNL     1       1.107  -2.679  -2.356  0.00  0.00    -0.299 N 
ATOM      8  C   UNL     1       1.362  -3.971  -2.639  0.00  0.00    +0.300 C 
ATOM      9  O   UNL     1       0.955  -4.847  -1.900  0.00  0.00    -0.253 OA
ATOM     10  N   UNL     1       2.070  -4.293  -3.739  0.00  0.00    -0.285 N 
ATOM     11  H   UNL     1       1.432  -1.980  -2.945  0.00  0.00    +0.150 HD
ATOM     12  H   UNL     1       2.333  -3.601  -4.366  0.00  0.00    +0.151 HD
BRANCH   7  13
ATOM     13  C   UNL     1       0.337  -2.329  -1.160  0.00  0.00    +0.106 C 
BRANCH  13  14
ATOM     14  C   UNL     1       0.190  -0.808  -1.074  0.00  0.00    +0.018 C 
BRANCH  14  16
ATOM     15  C   UNL     1      -0.760   1.078   0.261  0.00  0.00    +0.004 C 
ATOM     16  C   UNL     1      -0.613  -0.443   0.175  0.00  0.00    -0.002 C 
ENDBRANCH  14  16
ENDBRANCH  13  14
ENDBRANCH   7  13
ENDBRANCH   1  10
BRANCH   1  17
ATOM     17  C   UNL     1       3.192  -6.229  -2.799  0.00  0.00    +0.237 C 
ATOM     18  O   UNL     1       3.041  -7.384  -2.461  0.00  0.00    -0.273 OA
ATOM     19  N   UNL     1       4.029  -5.429  -2.109  0.00  0.00    -0.311 N 
ATOM     20  H   UNL     1       4.206  -4.527  -2.421  0.00  0.00    +0.149 HD
BRANCH  19  21
ATOM     21  C   UNL     1       4.673  -5.920  -0.889  0.00  0.00    +0.069 C 
ATOM     22  C   UNL     1       3.738  -5.707   0.305  0.00  0.00    +0.003 C 
ATOM     23  C   UNL     1       4.447  -6.149   1.587  0.00  0.00    -0.077 C 
ATOM     24  N   UNL     1       5.668  -5.357   1.773  0.00  0.00    +0.382 N 
ATOM     25  C   UNL     1       6.600  -5.611   0.668  0.00  0.00    -0.077 C 
ATOM     26  C   UNL     1       5.974  -5.148  -0.649  0.00  0.00    +0.003 C 
ATOM     27  H   UNL     1       5.432  -4.376   1.793  0.00  0.00    -0.081 HD
BRANCH  24  28
ATOM     28  C   UNL     1       6.304  -5.731   3.043  0.00  0.00    -0.069 C 
ATOM     29  C   UNL     1       6.302  -4.692   4.167  0.00  0.00    -0.017 C 
ATOM     30  C   UNL     1       7.600  -5.011   3.423  0.00  0.00    -0.017 C 
ENDBRANCH  24  28
ENDBRANCH  19  21
ENDBRANCH   1  17
TORSDOF 7
