REMARK  Name = ZINC42952010
REMARK  5 active torsions:
REMARK  status: ('A' for Active; 'I' for Inactive)
REMARK    1  A    between atoms: C_1  and  C_2
REMARK    2  A    between atoms: C_2  and  C_4
REMARK    3  A    between atoms: C_2  and  N_19
REMARK    4  A    between atoms: C_4  and  C_6
REMARK    5  A    between atoms: C_4  and  N_13
REMARK                            x       y       z     vdW  Elec       q    Type
REMARK                         _______ _______ _______ _____ _____    ______ ____
ROOT
ATOM      1  C   UNL     1       0.713  -0.402   1.297  0.00  0.00    -0.053 C 
ENDROOT
BRANCH   1   2
ATOM      2  C   UNL     1       0.850  -1.901   1.236  0.00  0.00    -0.062 A 
ATOM      3  C   UNL     1       1.835  -2.474   0.453  0.00  0.00    +0.003 A 
ATOM      4  C   UNL     1       1.962  -3.849   0.398  0.00  0.00    +0.015 A 
ATOM      5  C   UNL     1       1.103  -4.652   1.125  0.00  0.00    +0.018 A 
ATOM      6  C   UNL     1       0.117  -4.079   1.909  0.00  0.00    +0.015 A 
ATOM      7  C   UNL     1      -0.005  -2.704   1.968  0.00  0.00    +0.003 A 
ATOM      8 BR   UNL     1       1.275  -6.534   1.049  0.00  0.00    -0.050 Br
ENDBRANCH   1   2
BRANCH   1   9
ATOM      9  N   UNL     1       2.048   0.211   1.331  0.00  0.00    +0.383 N 
ATOM     10  C   UNL     1       2.777  -0.273   2.509  0.00  0.00    -0.078 C 
ATOM     11  C   UNL     1       4.196   0.299   2.506  0.00  0.00    -0.019 C 
ATOM     12  C   UNL     1       4.125   1.829   2.541  0.00  0.00    -0.004 C 
ATOM     13  C   UNL     1       3.299   2.318   1.348  0.00  0.00    -0.019 C 
ATOM     14  C   UNL     1       1.913   1.671   1.394  0.00  0.00    -0.078 C 
ATOM     15  H   UNL     1       2.555  -0.043   0.496  0.00  0.00    -0.081 HD
ENDBRANCH   1   9
BRANCH   1  17
ATOM     16  C   UNL     1      -1.437  -0.540   0.032  0.00  0.00    -0.016 C 
ATOM     17  C   UNL     1      -0.043   0.092   0.062  0.00  0.00    -0.088 C 
BRANCH  17  18
ATOM     18  N   UNL     1       0.694  -0.291  -1.149  0.00  0.00    +0.379 N 
ATOM     19  H   UNL     1       0.195   0.034  -1.964  0.00  0.00    -0.090 HD
ATOM     20  H   UNL     1       1.613   0.125  -1.129  0.00  0.00    -0.090 HD
ATOM     21  H   UNL     1       0.781  -1.296  -1.187  0.00  0.00    -0.090 HD
ENDBRANCH  17  18
ENDBRANCH   1  17
TORSDOF 4
