REMARK  Name = ZINC61270619
REMARK  9 active torsions:
REMARK  status: ('A' for Active; 'I' for Inactive)
REMARK    1  A    between atoms: C_1  and  C_2
REMARK    2  A    between atoms: C_2  and  N_3
REMARK    3  A    between atoms: N_3  and  C_4
REMARK    4  A    between atoms: C_4  and  C_6
REMARK    5  A    between atoms: C_4  and  C_7
REMARK    6  A    between atoms: C_7  and  C_8
REMARK    7  A    between atoms: N_10  and  C_11
REMARK    8  A    between atoms: C_11  and  C_13
REMARK    9  A    between atoms: C_11  and  C_14
REMARK                            x       y       z     vdW  Elec       q    Type
REMARK                         _______ _______ _______ _____ _____    ______ ____
ROOT
ATOM      1  C   UNL     1      -3.336  -2.128   1.490  0.00  0.00    +0.212 C 
ATOM      2  O   UNL     1      -2.654  -1.493   2.266  0.00  0.00    -0.276 OA
ATOM      3  N   UNL     1      -4.588  -2.490   1.834  0.00  0.00    -0.308 N 
ATOM      4  H   UNL     1      -5.134  -2.998   1.214  0.00  0.00    +0.149 HD
ENDROOT
BRANCH   3   5
ATOM      5  C   UNL     1      -5.124  -2.117   3.145  0.00  0.00    +0.107 C 
ATOM      6  C   UNL     1      -4.695  -3.154   4.186  0.00  0.00    +0.033 C 
BRANCH   5   7
ATOM      7  C   UNL     1      -6.629  -2.067   3.077  0.00  0.00    +0.011 A 
ATOM      8  C   UNL     1      -7.479  -1.173   3.639  0.00  0.00    +0.014 A 
ATOM      9  C   UNL     1      -8.839  -1.325   3.440  0.00  0.00    +0.028 A 
ATOM     10  C   UNL     1      -9.281  -2.365   2.689  0.00  0.00    +0.078 A 
ATOM     11  S   UNL     1      -7.753  -3.164   2.229  0.00  0.00    -0.080 S 
ATOM     12 CL   UNL     1     -10.910  -2.800   2.276  0.00  0.00    -0.076 Cl
ENDBRANCH   5   7
ENDBRANCH   3   5
BRANCH   1  13
ATOM     13  C   UNL     1      -2.785  -2.512   0.141  0.00  0.00    +0.080 C 
BRANCH  13  14
ATOM     14  C   UNL     1      -1.356  -1.981   0.004  0.00  0.00    -0.066 C 
ATOM     15  C   UNL     1      -0.752  -2.476  -1.312  0.00  0.00    -0.013 C 
BRANCH  14  16
ATOM     16  N   UNL     1      -1.376  -0.512   0.012  0.00  0.00    +0.381 N 
ATOM     17  H   UNL     1      -1.848  -0.187   0.843  0.00  0.00    -0.086 HD
ATOM     18  H   UNL     1      -1.864  -0.178  -0.805  0.00  0.00    -0.086 HD
BRANCH  16  20
ATOM     19  C   UNL     1      -0.019   1.526   0.010  0.00  0.00    -0.017 C 
ATOM     20  C   UNL     1       0.002  -0.004   0.002  0.00  0.00    -0.086 C 
ENDBRANCH  16  20
ENDBRANCH  14  16
ENDBRANCH  13  14
ENDBRANCH   1  13
TORSDOF 6
