REMARK  Name = ZINC06613958
REMARK  8 active torsions:
REMARK  status: ('A' for Active; 'I' for Inactive)
REMARK    1  A    between atoms: C_2  and  C_3
REMARK    2  A    between atoms: C_3  and  N_4
REMARK    3  A    between atoms: C_5  and  C_7
REMARK    4  A    between atoms: N_20  and  C_23
REMARK    5  A    between atoms: C_21  and  N_22
REMARK    6  A    between atoms: C_23  and  C_24
REMARK    7  A    between atoms: C_24  and  C_25
REMARK    8  A    between atoms: C_25  and  O_26
REMARK                            x       y       z     vdW  Elec       q    Type
REMARK                         _______ _______ _______ _____ _____    ______ ____
ROOT
ATOM      1  C   UNL     1       0.050  -2.048   1.249  0.00  0.00    +0.075 A 
ATOM      2  C   UNL     1       0.029  -2.823   0.098  0.00  0.00    +0.033 A 
ATOM      3  C   UNL     1       0.001  -2.194  -1.155  0.00  0.00    +0.083 A 
ATOM      4  C   UNL     1      -0.012  -0.784  -1.256  0.00  0.00    +0.150 A 
ATOM      5  N   UNL     1      -0.044  -0.220  -2.457  0.00  0.00    -0.211 NA
ATOM      6  C   UNL     1      -0.069  -0.949  -3.573  0.00  0.00    +0.143 A 
ATOM      7  C   UNL     1      -0.103  -0.292  -4.816  0.00  0.00    +0.047 A 
ATOM      8  C   UNL     1      -0.128  -1.026  -5.965  0.00  0.00    +0.005 A 
ATOM      9  C   UNL     1      -0.119  -2.426  -5.891  0.00  0.00    +0.018 A 
ATOM     10  C   UNL     1      -0.087  -3.041  -4.688  0.00  0.00    +0.096 A 
ATOM     11  N   UNL     1      -0.062  -2.315  -3.534  0.00  0.00    -0.268 N 
ATOM     12  C   UNL     1      -0.021  -2.962  -2.348  0.00  0.00    +0.268 A 
ATOM     13  O   UNL     1      -0.015  -4.180  -2.304  0.00  0.00    -0.267 OA
ATOM     14  N   UNL     1       0.013  -0.004  -0.127  0.00  0.00    -0.313 N 
ATOM     15  C   UNL     1       0.041  -0.582   1.124  0.00  0.00    +0.110 A 
ENDROOT
BRANCH   1  17
ATOM     16  N   UNL     1       0.203  -4.019   2.676  0.00  0.00    -0.308 N 
ATOM     17  C   UNL     1       0.080  -2.681   2.572  0.00  0.00    +0.248 C 
ATOM     18  O   UNL     1      -0.008  -1.999   3.576  0.00  0.00    -0.270 OA
ATOM     19  H   UNL     1       0.283  -4.636   1.769  0.00  0.00    +0.149 HD
BRANCH  16  20
ATOM     20  C   UNL     1       0.233  -4.652   3.997  0.00  0.00    +0.131 C 
BRANCH  20  22
ATOM     21  C   UNL     1       1.357  -6.775   4.435  0.00  0.00    +0.005 C 
ATOM     22  C   UNL     1       0.378  -6.144   3.837  0.00  0.00    -0.016 C 
ENDBRANCH  20  22
ENDBRANCH  16  20
ENDBRANCH   1  17
BRANCH  15  23
ATOM     23  N   UNL     1       0.060   0.170   2.196  0.00  0.00    -0.344 N 
ATOM     24  H   UNL     1       0.053   1.265   2.099  0.00  0.00    +0.144 HD
ATOM     25  H   UNL     1       0.082  -0.294   3.193  0.00  0.00    +0.144 HD
ENDBRANCH  15  23
BRANCH  14  26
ATOM     26  C   UNL     1       0.004   1.456  -0.252  0.00  0.00    +0.127 C 
BRANCH  26  27
ATOM     27  C   UNL     1       1.443   1.971  -0.325  0.00  0.00    +0.049 C 
BRANCH  27  28
ATOM     28  C   UNL     1       1.433   3.495  -0.456  0.00  0.00    +0.157 C 
BRANCH  28  29
ATOM     29  O   UNL     1       2.777   3.976  -0.524  0.00  0.00    -0.395 OA
ATOM     30  H   UNL     1       2.971   5.054  -0.621  0.00  0.00    +0.209 HD
ENDBRANCH  28  29
ENDBRANCH  27  28
ENDBRANCH  26  27
ENDBRANCH  14  26
TORSDOF 8
