REMARK  Name = ZINC65375382
REMARK  8 active torsions:
REMARK  status: ('A' for Active; 'I' for Inactive)
REMARK    1  A    between atoms: C_1  and  C_2
REMARK    2  A    between atoms: C_5  and  N_9
REMARK    3  A    between atoms: C_7  and  C_8
REMARK    4  A    between atoms: C_10  and  C_19
REMARK    5  A    between atoms: C_13  and  C_15
REMARK    6  A    between atoms: C_15  and  C_16
REMARK    7  A    between atoms: C_16  and  C_17
REMARK    8  A    between atoms: C_16  and  C_18
REMARK                            x       y       z     vdW  Elec       q    Type
REMARK                         _______ _______ _______ _____ _____    ______ ____
ROOT
ATOM      1  N   UNL     1       0.059  -4.167  -0.021  0.00  0.00    -0.225 N 
ATOM      2  C   UNL     1       0.070  -5.059  -1.194  0.00  0.00    +0.225 C 
ATOM      3  N   UNL     1       0.088  -6.415  -0.627  0.00  0.00    -0.352 N 
ATOM      4  C   UNL     1       0.087  -6.323   0.656  0.00  0.00    +0.086 C 
ATOM      5  N   UNL     1       0.076  -5.029   1.087  0.00  0.00    -0.251 N 
ATOM      6  H   UNL     1       0.078  -4.748   2.016  0.00  0.00    +0.171 HD
ATOM      7  H   UNL     1       0.099  -7.241  -1.136  0.00  0.00    +0.163 HD
ENDROOT
BRANCH   1  12
ATOM      8  C   UNL     1      -0.018   1.503   0.010  0.00  0.00    +0.044 C 
ATOM      9  C   UNL     1       0.002  -0.004   0.002  0.00  0.00    -0.047 A 
ATOM     10  C   UNL     1       0.006  -0.688  -1.200  0.00  0.00    +0.005 A 
ATOM     11  C   UNL     1       0.025  -2.068  -1.212  0.00  0.00    +0.025 A 
ATOM     12  C   UNL     1       0.040  -2.771  -0.013  0.00  0.00    +0.050 A 
ATOM     13  C   UNL     1       0.037  -2.081   1.192  0.00  0.00    +0.028 A 
ATOM     14  C   UNL     1       0.023  -0.700   1.196  0.00  0.00    -0.046 A 
ATOM     15  C   UNL     1       0.025   0.049   2.504  0.00  0.00    +0.044 C 
ENDBRANCH   1  12
BRANCH   2  16
ATOM     16  C   UNL     1      -1.169  -4.851  -2.025  0.00  0.00    +0.077 A 
ATOM     17  C   UNL     1      -2.107  -3.934  -1.658  0.00  0.00    +0.125 A 
ATOM     18  N   UNL     1      -3.199  -3.762  -2.406  0.00  0.00    -0.245 NA
ATOM     19  C   UNL     1      -3.397  -4.457  -3.494  0.00  0.00    +0.199 A 
ATOM     20  N   UNL     1      -2.509  -5.379  -3.912  0.00  0.00    -0.313 N 
ATOM     21  H   UNL     1      -2.677  -5.883  -4.724  0.00  0.00    +0.170 HD
ATOM     22  C   UNL     1      -1.380  -5.596  -3.203  0.00  0.00    +0.258 A 
ATOM     23  O   UNL     1      -0.563  -6.424  -3.571  0.00  0.00    -0.267 OA
ENDBRANCH   2  16
BRANCH   4  24
ATOM     24  C   UNL     1       0.102  -7.513   1.581  0.00  0.00    +0.073 C 
BRANCH  24  25
ATOM     25  C   UNL     1      -1.335  -7.934   1.894  0.00  0.00    -0.010 C 
ATOM     26  C   UNL     1      -1.321  -9.215   2.730  0.00  0.00    +0.007 C 
ATOM     27  C   UNL     1      -2.033  -6.821   2.678  0.00  0.00    +0.007 C 
ENDBRANCH  24  25
ENDBRANCH   4  24
TORSDOF 4
