REMARK  Name = ZINC64021392
REMARK  7 active torsions:
REMARK  status: ('A' for Active; 'I' for Inactive)
REMARK    1  A    between atoms: C_1  and  C_2
REMARK    2  A    between atoms: C_7  and  N_8
REMARK    3  A    between atoms: C_9  and  C_11
REMARK    4  A    between atoms: C_11  and  N_12
REMARK    5  A    between atoms: N_12  and  C_13
REMARK    6  A    between atoms: N_12  and  C_14
REMARK    7  A    between atoms: C_14  and  C_15
REMARK                            x       y       z     vdW  Elec       q    Type
REMARK                         _______ _______ _______ _____ _____    ______ ____
ROOT
ATOM      1  N   UNL     1       1.756   0.426   1.571  0.00  0.00    -0.314 N 
ATOM      2  C   UNL     1       2.532   0.429   2.673  0.00  0.00    +0.197 C 
ATOM      3  O   UNL     1       2.057   0.134   3.750  0.00  0.00    -0.278 OA
ATOM      4  H   UNL     1       2.135   0.662   0.710  0.00  0.00    +0.149 HD
ENDROOT
BRANCH   1  11
ATOM      5  C   UNL     1      -0.288   2.230   0.592  0.00  0.00    +0.009 C 
ATOM      6  C   UNL     1      -0.435   0.709   0.521  0.00  0.00    +0.006 C 
ATOM      7  C   UNL     1      -1.914   0.334   0.628  0.00  0.00    +0.005 C 
ATOM      8  C   UNL     1      -2.062  -1.187   0.556  0.00  0.00    +0.000 C 
ATOM      9  C   UNL     1      -1.288  -1.829   1.710  0.00  0.00    +0.002 C 
ATOM     10  C   UNL     1       0.192  -1.454   1.603  0.00  0.00    +0.022 C 
ATOM     11  C   UNL     1       0.339   0.067   1.674  0.00  0.00    +0.076 C 
ENDBRANCH   1  11
BRANCH   2  12
ATOM     12  C   UNL     1       3.989   0.798   2.567  0.00  0.00    +0.018 C 
BRANCH  12  13
ATOM     13  N   UNL     1       4.610   0.725   3.897  0.00  0.00    +0.384 N 
ATOM     14  C   UNL     1       4.595  -0.666   4.369  0.00  0.00    -0.096 C 
ATOM     15  H   UNL     1       4.094   1.305   4.541  0.00  0.00    -0.082 HD
BRANCH  13  16
ATOM     16  C   UNL     1       5.998   1.199   3.815  0.00  0.00    -0.075 C 
BRANCH  16  17
ATOM     17  C   UNL     1       6.008   2.692   3.480  0.00  0.00    -0.028 C 
ATOM     18  C   UNL     1       5.479   3.520   4.678  0.00  0.00    +0.002 C 
ATOM     19  C   UNL     1       6.106   4.915   4.433  0.00  0.00    +0.000 C 
ATOM     20  C   UNL     1       7.517   4.605   3.890  0.00  0.00    +0.000 C 
ATOM     21  C   UNL     1       7.454   3.192   3.285  0.00  0.00    +0.002 C 
ENDBRANCH  16  17
ENDBRANCH  13  16
ENDBRANCH  12  13
ENDBRANCH   2  12
TORSDOF 5
