REMARK  Name = ZINC41141461
REMARK  7 active torsions:
REMARK  status: ('A' for Active; 'I' for Inactive)
REMARK    1  A    between atoms: C_1  and  C_2
REMARK    2  A    between atoms: C_2  and  O_3
REMARK    3  A    between atoms: O_3  and  C_4
REMARK    4  A    between atoms: C_7  and  N_10
REMARK    5  A    between atoms: C_11  and  C_17
REMARK    6  A    between atoms: C_13  and  C_15
REMARK    7  A    between atoms: C_15  and  N_16
REMARK                            x       y       z     vdW  Elec       q    Type
REMARK                         _______ _______ _______ _____ _____    ______ ____
ROOT
ATOM      1  N   UNL     1      -2.107  -5.989  -0.146  0.00  0.00    -0.232 N 
ATOM      2  C   UNL     1      -2.922  -6.694   0.693  0.00  0.00    +0.075 A 
ATOM      3  C   UNL     1      -2.620  -8.018   0.535  0.00  0.00    +0.051 A 
ATOM      4  C   UNL     1      -1.604  -8.114  -0.416  0.00  0.00    +0.047 A 
ATOM      5  N   UNL     1      -1.300  -6.909  -0.828  0.00  0.00    -0.173 NA
ENDROOT
BRANCH   2   6
ATOM      6  C   UNL     1      -3.942  -6.130   1.604  0.00  0.00    +0.001 A 
ATOM      7  C   UNL     1      -4.535  -4.901   1.315  0.00  0.00    +0.011 A 
ATOM      8  C   UNL     1      -5.486  -4.380   2.168  0.00  0.00    +0.020 A 
ATOM      9  C   UNL     1      -5.852  -5.075   3.308  0.00  0.00    +0.041 A 
ATOM     10  C   UNL     1      -5.267  -6.296   3.599  0.00  0.00    +0.020 A 
ATOM     11  C   UNL     1      -4.319  -6.829   2.751  0.00  0.00    +0.011 A 
ATOM     12 CL   UNL     1      -7.049  -4.413   4.378  0.00  0.00    -0.084 Cl
ENDBRANCH   2   6
BRANCH   1  16
ATOM     13  C   UNL     1      -2.043  -1.845  -0.606  0.00  0.00    +0.121 A 
ATOM     14  C   UNL     1      -2.085  -2.401   0.664  0.00  0.00    +0.048 A 
ATOM     15  C   UNL     1      -2.106  -3.773   0.817  0.00  0.00    +0.031 A 
ATOM     16  C   UNL     1      -2.086  -4.596  -0.300  0.00  0.00    +0.066 A 
ATOM     17  C   UNL     1      -2.045  -4.039  -1.572  0.00  0.00    +0.031 A 
ATOM     18  C   UNL     1      -2.029  -2.667  -1.724  0.00  0.00    +0.048 A 
BRANCH  13  19
ATOM     19  O   UNL     1      -2.022  -0.494  -0.756  0.00  0.00    -0.492 OA
BRANCH  19  21
ATOM     20  C   UNL     1      -2.010   1.777   0.070  0.00  0.00    +0.048 C 
ATOM     21  C   UNL     1      -2.038   0.292   0.437  0.00  0.00    +0.225 C 
ENDBRANCH  19  21
ENDBRANCH  13  19
ENDBRANCH   1  16
BRANCH   4  22
ATOM     22  C   UNL     1      -0.966  -9.393  -0.895  0.00  0.00    -0.028 C 
BRANCH  22  23
ATOM     23  N   UNL     1      -1.633  -9.842  -2.124  0.00  0.00    +0.382 N 
ATOM     24  H   UNL     1      -1.206 -10.698  -2.445  0.00  0.00    -0.090 HD
ATOM     25  H   UNL     1      -2.611 -10.004  -1.937  0.00  0.00    -0.090 HD
ATOM     26  H   UNL     1      -1.540  -9.133  -2.836  0.00  0.00    -0.090 HD
ENDBRANCH  22  23
ENDBRANCH   4  22
TORSDOF 6
