REMARK  Name = ZINC33291323
REMARK  6 active torsions:
REMARK  status: ('A' for Active; 'I' for Inactive)
REMARK    1  A    between atoms: C_1  and  C_2
REMARK    2  A    between atoms: C_2  and  C_3
REMARK    3  A    between atoms: C_9  and  C_11
REMARK    4  A    between atoms: N_16  and  C_18
REMARK    5  A    between atoms: C_21  and  S_24
REMARK    6  A    between atoms: S_24  and  C_25
REMARK                            x       y       z     vdW  Elec       q    Type
REMARK                         _______ _______ _______ _____ _____    ______ ____
ROOT
ATOM      1  C   UNL     1      -0.798   1.617  -1.212  0.00  0.00    +0.103 C 
ATOM      2  C   UNL     1      -2.216   1.792  -0.622  0.00  0.00    +0.110 C 
ATOM      3  C   UNL     1      -1.981   1.975   0.862  0.00  0.00    +0.221 C 
ATOM      4  O   UNL     1      -2.795   2.417   1.645  0.00  0.00    -0.275 OA
ATOM      5  N   UNL     1      -0.737   1.577   1.186  0.00  0.00    -0.271 N 
ATOM      6  C   UNL     1      -0.013   1.086   0.008  0.00  0.00    +0.127 C 
ENDROOT
BRANCH   1  13
ATOM      7  C   UNL     1      -0.444  -1.821  -6.098  0.00  0.00    +0.220 C 
ATOM      8  O   UNL     1      -0.995  -2.674  -5.434  0.00  0.00    -0.275 OA
ATOM      9  N   UNL     1      -0.171  -0.618  -5.555  0.00  0.00    -0.238 N 
ATOM     10  C   UNL     1      -0.519  -0.356  -4.238  0.00  0.00    +0.314 A 
ATOM     11  N   UNL     1      -1.114  -1.181  -3.413  0.00  0.00    -0.092 NA
ATOM     12  N   UNL     1      -1.280  -0.601  -2.277  0.00  0.00    -0.111 NA
ATOM     13  C   UNL     1      -0.801   0.608  -2.332  0.00  0.00    +0.224 A 
ATOM     14  O   UNL     1      -0.313   0.796  -3.573  0.00  0.00    -0.409 OA
ATOM     15  H   UNL     1       0.329   0.156  -6.156  0.00  0.00    +0.159 HD
BRANCH   7  17
ATOM     16  C   UNL     1      -0.485  -3.532  -7.892  0.00  0.00    +0.013 C 
ATOM     17  C   UNL     1      -0.066  -2.106  -7.528  0.00  0.00    +0.093 C 
ENDBRANCH   7  17
ENDBRANCH   1  13
BRANCH   5  18
ATOM     18  C   UNL     1      -0.201   1.626   2.480  0.00  0.00    +0.036 A 
ATOM     19  C   UNL     1       1.096   1.185   2.712  0.00  0.00    +0.024 A 
ATOM     20  C   UNL     1       1.626   1.238   3.985  0.00  0.00    +0.016 A 
ATOM     21  C   UNL     1       0.859   1.722   5.037  0.00  0.00    +0.008 A 
ATOM     22  C   UNL     1      -0.440   2.158   4.806  0.00  0.00    +0.016 A 
ATOM     23  C   UNL     1      -0.968   2.110   3.532  0.00  0.00    +0.024 A 
BRANCH  21  24
ATOM     24  S   UNL     1       1.533   1.784   6.664  0.00  0.00    -0.129 S 
ATOM     25  C   UNL     1       3.212   1.126   6.469  0.00  0.00    +0.090 C 
ENDBRANCH  21  24
ENDBRANCH   5  18
TORSDOF 4
