REMARK  Name = ZINC19796149
REMARK  7 active torsions:
REMARK  status: ('A' for Active; 'I' for Inactive)
REMARK    1  A    between atoms: C_1  and  N_2
REMARK    2  A    between atoms: C_8  and  O_9
REMARK    3  A    between atoms: O_9  and  C_10
REMARK    4  A    between atoms: C_10  and  C_12
REMARK    5  A    between atoms: C_12  and  C_13
REMARK    6  A    between atoms: C_12  and  C_19
REMARK    7  A    between atoms: C_12  and  O_25
REMARK                            x       y       z     vdW  Elec       q    Type
REMARK                         _______ _______ _______ _____ _____    ______ ____
ROOT
ATOM      1  C   UNL     1       2.775   0.281   5.383  0.00  0.00    +0.191 C 
ENDROOT
BRANCH   1   2
ATOM      2  C   UNL     1       3.568   1.420   5.970  0.00  0.00    -0.005 A 
ATOM      3  C   UNL     1       2.995   2.245   6.919  0.00  0.00    +0.007 A 
ATOM      4  C   UNL     1       3.723   3.289   7.458  0.00  0.00    +0.000 A 
ATOM      5  C   UNL     1       5.024   3.509   7.047  0.00  0.00    +0.000 A 
ATOM      6  C   UNL     1       5.598   2.683   6.098  0.00  0.00    +0.000 A 
ATOM      7  C   UNL     1       4.872   1.636   5.563  0.00  0.00    +0.007 A 
ENDBRANCH   1   2
BRANCH   1   8
ATOM      8  C   UNL     1       1.762  -0.220   6.414  0.00  0.00    +0.036 C 
ATOM      9  C   UNL     1       2.502  -0.704   7.662  0.00  0.00    +0.007 C 
ATOM     10  C   UNL     1       1.489  -1.205   8.694  0.00  0.00    +0.000 C 
ATOM     11  C   UNL     1       0.684  -2.361   8.098  0.00  0.00    +0.000 C 
ATOM     12  C   UNL     1      -0.057  -1.877   6.849  0.00  0.00    +0.000 C 
ATOM     13  C   UNL     1       0.956  -1.376   5.818  0.00  0.00    +0.007 C 
ENDBRANCH   1   8
BRANCH   1  14
ATOM     14  C   UNL     1       2.046   0.758   4.153  0.00  0.00    +0.349 C 
ATOM     15  O   UNL     1       1.773   1.933   4.028  0.00  0.00    -0.247 OA
BRANCH  14  16
ATOM     16  O   UNL     1       1.698  -0.117   3.197  0.00  0.00    -0.428 OA
BRANCH  16  24
ATOM     17  C   UNL     1      -0.018   1.465   0.010  0.00  0.00    +0.108 C 
ATOM     18  N   UNL     1       0.002  -0.004   0.002  0.00  0.00    -0.383 NA
ATOM     19  C   UNL     1       0.697  -0.479  -1.203  0.00  0.00    +0.087 C 
ATOM     20  C   UNL     1       0.745  -2.010  -1.200  0.00  0.00    +0.036 C 
ATOM     21  C   UNL     1       1.542  -2.484   0.022  0.00  0.00    +0.104 C 
ATOM     22  N   UNL     1       0.965  -1.845   1.217  0.00  0.00    -0.331 N 
ATOM     23  C   UNL     1       0.680  -0.470   1.138  0.00  0.00    +0.106 C 
ATOM     24  C   UNL     1       1.042   0.358   2.105  0.00  0.00    +0.236 C 
ATOM     25  H   UNL     1       0.788  -2.352   2.025  0.00  0.00    +0.147 HD
ATOM     26  H   UNL     1      -0.944  -0.354   0.007  0.00  0.00    +0.127 HD
ENDBRANCH  16  24
ENDBRANCH  14  16
ENDBRANCH   1  14
BRANCH   1  27
ATOM     27  O   UNL     1       3.660  -0.783   5.028  0.00  0.00    -0.373 OA
ATOM     28  H   UNL     1       4.330  -0.537   4.377  0.00  0.00    +0.211 HD
ENDBRANCH   1  27
TORSDOF 6
