REMARK  Name = ZINC61721632
REMARK  9 active torsions:
REMARK  status: ('A' for Active; 'I' for Inactive)
REMARK    1  A    between atoms: C_1  and  C_2
REMARK    2  A    between atoms: C_2  and  C_28
REMARK    3  A    between atoms: N_5  and  C_9
REMARK    4  A    between atoms: C_9  and  C_10
REMARK    5  A    between atoms: C_10  and  C_12
REMARK    6  A    between atoms: C_10  and  O_27
REMARK    7  A    between atoms: C_12  and  N_13
REMARK    8  A    between atoms: C_16  and  C_19
REMARK    9  A    between atoms: C_16  and  O_26
REMARK                            x       y       z     vdW  Elec       q    Type
REMARK                         _______ _______ _______ _____ _____    ______ ____
ROOT
ATOM      1  N   UNL     1      -3.897  -5.488   1.113  0.00  0.00    +0.382 N 
ATOM      2  C   UNL     1      -3.939  -5.441  -0.353  0.00  0.00    -0.076 C 
ATOM      3  C   UNL     1      -3.866  -6.863  -0.915  0.00  0.00    +0.021 C 
ATOM      4  C   UNL     1      -5.056  -7.674  -0.394  0.00  0.00    +0.088 C 
ATOM      5  C   UNL     1      -5.043  -7.654   1.137  0.00  0.00    +0.021 C 
ATOM      6  C   UNL     1      -5.073  -6.203   1.623  0.00  0.00    -0.076 C 
ATOM      7  H   UNL     1      -3.059  -5.968   1.408  0.00  0.00    -0.082 HD
ENDROOT
BRANCH   4   8
ATOM      8  C   UNL     1      -4.948  -9.096  -0.880  0.00  0.00    -0.016 A 
ATOM      9  C   UNL     1      -3.704  -9.658  -1.101  0.00  0.00    +0.008 A 
ATOM     10  C   UNL     1      -3.605 -10.963  -1.547  0.00  0.00    +0.020 A 
ATOM     11  C   UNL     1      -4.750 -11.706  -1.772  0.00  0.00    +0.041 A 
ATOM     12  C   UNL     1      -5.994 -11.143  -1.552  0.00  0.00    +0.020 A 
ATOM     13  C   UNL     1      -6.092  -9.840  -1.100  0.00  0.00    +0.008 A 
ATOM     14 CL   UNL     1      -4.625 -13.344  -2.333  0.00  0.00    -0.084 Cl
ENDBRANCH   4   8
BRANCH   4  15
ATOM     15  O   UNL     1      -6.273  -7.096  -0.870  0.00  0.00    -0.384 OA
ATOM     16  H   UNL     1      -7.069  -7.560  -0.577  0.00  0.00    +0.211 HD
ENDBRANCH   4  15
BRANCH   1  17
ATOM     17  C   UNL     1      -3.889  -4.119   1.645  0.00  0.00    -0.046 C 
BRANCH  17  18
ATOM     18  C   UNL     1      -2.601  -3.413   1.217  0.00  0.00    +0.116 C 
BRANCH  18  19
ATOM     19  O   UNL     1      -1.474  -4.128   1.725  0.00  0.00    -0.392 OA
ATOM     20  H   UNL     1      -1.454  -4.197   2.690  0.00  0.00    +0.210 HD
ENDBRANCH  18  19
BRANCH  18  21
ATOM     21  C   UNL     1      -2.593  -1.987   1.771  0.00  0.00    +0.147 C 
BRANCH  21  26
ATOM     22  C   UNL     1      -0.019   1.526   0.010  0.00  0.00    +0.041 C 
ATOM     23  C   UNL     1       0.002  -0.004   0.002  0.00  0.00    +0.107 C 
ATOM     24  C   UNL     1      -1.404  -0.557   0.121  0.00  0.00    +0.246 C 
ATOM     25  O   UNL     1      -2.324  -0.392  -0.652  0.00  0.00    -0.273 OA
ATOM     26  N   UNL     1      -1.419  -1.272   1.263  0.00  0.00    -0.222 N 
ATOM     27  C   UNL     1      -0.231  -1.248   1.876  0.00  0.00    +0.309 C 
ATOM     28  O   UNL     1       0.001  -1.819   2.923  0.00  0.00    -0.252 OA
ATOM     29  N   UNL     1       0.679  -0.520   1.204  0.00  0.00    -0.285 N 
ATOM     30  C   UNL     1       0.684  -0.525  -1.265  0.00  0.00    +0.041 C 
ATOM     31  H   UNL     1       1.602  -0.365   1.461  0.00  0.00    +0.151 HD
ENDBRANCH  21  26
ENDBRANCH  18  21
ENDBRANCH  17  18
ENDBRANCH   1  17
TORSDOF 7
