REMARK  Name = ZINC07590415
REMARK  8 active torsions:
REMARK  status: ('A' for Active; 'I' for Inactive)
REMARK    1  A    between atoms: C_1  and  C_2
REMARK    2  A    between atoms: C_4  and  C_25
REMARK    3  A    between atoms: C_5  and  N_9
REMARK    4  A    between atoms: C_6  and  C_8
REMARK    5  A    between atoms: C_10  and  C_12
REMARK    6  A    between atoms: C_12  and  N_53
REMARK    7  A    between atoms: N_15  and  C_18
REMARK    8  A    between atoms: C_21  and  O_24
REMARK                            x       y       z     vdW  Elec       q    Type
REMARK                         _______ _______ _______ _____ _____    ______ ____
ROOT
ATOM      1  C   UNL     1       1.855   0.853   1.137  0.00  0.00    -0.059 C 
ATOM      2  C   UNL     1       0.746   1.834   0.749  0.00  0.00    +0.086 C 
ATOM      3  N   UNL     1      -0.562   1.200   0.963  0.00  0.00    -0.333 N 
ATOM      4  C   UNL     1      -0.729   0.806   2.369  0.00  0.00    +0.086 C 
ATOM      5  C   UNL     1       0.380  -0.174   2.757  0.00  0.00    -0.059 C 
ATOM      6  N   UNL     1       1.689   0.483   2.558  0.00  0.00    +0.387 N 
ATOM      7  H   UNL     1       1.725   1.334   3.131  0.00  0.00    -0.081 HD
ENDROOT
BRANCH   3   8
ATOM      8  C   UNL     1      -1.601   2.042   0.551  0.00  0.00    +0.030 A 
ATOM      9  C   UNL     1      -1.313   3.296   0.028  0.00  0.00    +0.026 A 
ATOM     10  C   UNL     1      -2.339   4.124  -0.384  0.00  0.00    +0.047 A 
ATOM     11  C   UNL     1      -3.657   3.708  -0.264  0.00  0.00    +0.117 A 
ATOM     12  C   UNL     1      -3.945   2.458   0.263  0.00  0.00    +0.047 A 
ATOM     13  C   UNL     1      -2.921   1.626   0.670  0.00  0.00    +0.026 A 
BRANCH  11  14
ATOM     14  O   UNL     1      -4.667   4.526  -0.664  0.00  0.00    -0.507 OA
ATOM     15  H   UNL     1      -4.996   5.113   0.030  0.00  0.00    +0.292 HD
ENDBRANCH  11  14
ENDBRANCH   3   8
BRANCH   6  16
ATOM     16  C   UNL     1       2.779  -0.424   2.975  0.00  0.00    +0.019 C 
BRANCH  16  18
ATOM     17  N   UNL     1       5.236  -0.293   3.231  0.00  0.00    -0.287 N 
ATOM     18  C   UNL     1       4.074   0.346   2.989  0.00  0.00    +0.201 C 
ATOM     19  O   UNL     1       4.071   1.541   2.782  0.00  0.00    -0.278 OA
ATOM     20  H   UNL     1       5.248  -1.258   3.324  0.00  0.00    +0.155 HD
BRANCH  17  25
ATOM     21  C   UNL     1      10.055   2.662   3.708  0.00  0.00    +0.044 C 
ATOM     22  C   UNL     1       8.775   1.877   3.581  0.00  0.00    -0.050 A 
ATOM     23  C   UNL     1       8.370   1.047   4.611  0.00  0.00    +0.008 A 
ATOM     24  C   UNL     1       7.197   0.326   4.497  0.00  0.00    -0.029 A 
ATOM     25  C   UNL     1       6.424   0.436   3.349  0.00  0.00    +0.039 A 
ATOM     26  C   UNL     1       6.836   1.267   2.316  0.00  0.00    -0.029 A 
ATOM     27  C   UNL     1       8.007   1.989   2.437  0.00  0.00    +0.008 A 
ATOM     28  C   UNL     1       6.003   1.385   1.065  0.00  0.00    +0.045 C 
ATOM     29  C   UNL     1       6.757  -0.579   5.620  0.00  0.00    +0.045 C 
ENDBRANCH  17  25
ENDBRANCH  16  18
ENDBRANCH   6  16
TORSDOF 5
