REMARK  Name = ZINC44592952
REMARK  3 active torsions:
REMARK  status: ('A' for Active; 'I' for Inactive)
REMARK    1  A    between atoms: C_3  and  O_22
REMARK    2  A    between atoms: C_6  and  C_7
REMARK    3  A    between atoms: C_9  and  C_12
REMARK                            x       y       z     vdW  Elec       q    Type
REMARK                         _______ _______ _______ _____ _____    ______ ____
ROOT
ATOM      1  C   UNL     1      -1.272  -0.765   0.011  0.00  0.00    +0.202 A 
ATOM      2  N   UNL     1      -1.385  -2.105   0.010  0.00  0.00    -0.192 NA
ATOM      3  C   UNL     1      -2.642  -2.446   0.019  0.00  0.00    +0.218 A 
ATOM      4  O   UNL     1      -3.385  -1.332   0.026  0.00  0.00    -0.339 OA
ATOM      5  N   UNL     1      -2.474  -0.243   0.026  0.00  0.00    -0.056 NA
ENDROOT
BRANCH   3   6
ATOM      6  C   UNL     1      -3.172  -3.857   0.021  0.00  0.00    +0.050 C 
ATOM      7  C   UNL     1      -3.717  -4.201  -1.361  0.00  0.00    -0.042 A 
ATOM      8  C   UNL     1      -3.103  -3.832  -2.555  0.00  0.00    +0.010 A 
ATOM      9  C   UNL     1      -3.661  -4.178  -3.739  0.00  0.00    +0.045 A 
ATOM     10  S   UNL     1      -5.120  -5.067  -3.213  0.00  0.00    -0.101 S 
ATOM     11  C   UNL     1      -4.876  -4.911  -1.467  0.00  0.00    -0.010 A 
ATOM     12  C   UNL     1      -5.710  -5.421  -0.337  0.00  0.00    +0.023 C 
ATOM     13  C   UNL     1      -4.869  -5.309   0.947  0.00  0.00    -0.076 C 
ATOM     14  N   UNL     1      -4.257  -3.974   1.002  0.00  0.00    +0.390 N 
ATOM     15  H   UNL     1      -3.887  -3.814   1.927  0.00  0.00    -0.084 HD
ATOM     16  H   UNL     1      -4.961  -3.279   0.803  0.00  0.00    -0.084 HD
ENDBRANCH   3   6
BRANCH   1  22
ATOM     17  C   UNL     1      -0.017   1.390   0.010  0.00  0.00    +0.015 A 
ATOM     18  C   UNL     1       1.169   2.094   0.002  0.00  0.00    +0.046 A 
ATOM     19  C   UNL     1       2.380   1.416  -0.013  0.00  0.00    +0.117 A 
ATOM     20  C   UNL     1       2.402   0.028  -0.021  0.00  0.00    +0.046 A 
ATOM     21  C   UNL     1       1.220  -0.682  -0.013  0.00  0.00    +0.015 A 
ATOM     22  C   UNL     1       0.002  -0.004   0.002  0.00  0.00    +0.023 A 
BRANCH  19  23
ATOM     23  O   UNL     1       3.546   2.112  -0.021  0.00  0.00    -0.507 OA
ATOM     24  H   UNL     1       3.893   2.310   0.860  0.00  0.00    +0.292 HD
ENDBRANCH  19  23
ENDBRANCH   1  22
TORSDOF 3
