REMARK  Name = ZINC16334102
REMARK  5 active torsions:
REMARK  status: ('A' for Active; 'I' for Inactive)
REMARK    1  A    between atoms: C_1  and  C_2
REMARK    2  A    between atoms: C_2  and  C_3
REMARK    3  A    between atoms: N_9  and  C_10
REMARK    4  A    between atoms: C_10  and  C_11
REMARK    5  A    between atoms: N_16  and  C_17
REMARK                            x       y       z     vdW  Elec       q    Type
REMARK                         _______ _______ _______ _____ _____    ______ ____
ROOT
ATOM      1  C   UNL     1      -1.093   2.037  -3.394  0.00  0.00    +0.204 C 
ATOM      2  O   UNL     1      -1.563   1.244  -4.181  0.00  0.00    -0.277 OA
ATOM      3  N   UNL     1      -1.417   3.343  -3.479  0.00  0.00    -0.242 N 
ATOM      4  C   UNL     1      -2.265   3.765  -4.438  0.00  0.00    +0.306 C 
ATOM      5  O   UNL     1      -2.736   2.970  -5.226  0.00  0.00    -0.252 OA
ATOM      6  N   UNL     1      -2.590   5.071  -4.522  0.00  0.00    -0.295 N 
ATOM      7  H   UNL     1      -1.041   3.978  -2.850  0.00  0.00    +0.159 HD
ATOM      8  H   UNL     1      -2.213   5.706  -3.893  0.00  0.00    +0.151 HD
ENDROOT
BRANCH   6   9
ATOM      9  C   UNL     1      -3.511   5.530  -5.565  0.00  0.00    +0.097 C 
ATOM     10  C   UNL     1      -2.729   5.827  -6.855  0.00  0.00    +0.046 C 
ATOM     11  C   UNL     1      -3.624   6.608  -7.847  0.00  0.00    +0.168 C 
ATOM     12  S   UNL     1      -4.778   7.505  -6.730  0.00  0.00    -0.029 S 
ATOM     13  O   UNL     1      -6.103   7.053  -6.974  0.00  0.00    -0.174 OA
ATOM     14  O   UNL     1      -4.491   8.896  -6.790  0.00  0.00    -0.174 OA
ATOM     15  C   UNL     1      -4.207   6.844  -5.108  0.00  0.00    +0.188 C 
ENDBRANCH   6   9
BRANCH   1  16
ATOM     16  C   UNL     1      -0.145   1.565  -2.322  0.00  0.00    +0.019 C 
BRANCH  16  22
ATOM     17  C   UNL     1       0.834  -0.372  -1.303  0.00  0.00    -0.068 C 
ATOM     18  C   UNL     1       0.966  -1.894  -1.381  0.00  0.00    -0.015 C 
ATOM     19  C   UNL     1       1.668  -2.274  -2.688  0.00  0.00    -0.003 C 
ATOM     20  C   UNL     1       0.876  -1.700  -3.866  0.00  0.00    -0.019 C 
ATOM     21  C   UNL     1       0.748  -0.184  -3.697  0.00  0.00    -0.078 C 
ATOM     22  N   UNL     1       0.045   0.113  -2.442  0.00  0.00    +0.387 N 
ATOM     23  H   UNL     1      -0.855  -0.343  -2.445  0.00  0.00    -0.081 HD
BRANCH  17  25
ATOM     24  C   UNL     1       1.008  -0.394   1.189  0.00  0.00    +0.002 C 
ATOM     25  C   UNL     1       0.134   0.013   0.002  0.00  0.00    -0.019 C 
ENDBRANCH  17  25
ENDBRANCH  16  22
ENDBRANCH   1  16
TORSDOF 4
