REMARK  Name = ZINC13720641
REMARK  7 active torsions:
REMARK  status: ('A' for Active; 'I' for Inactive)
REMARK    1  A    between atoms: C_1  and  O_2
REMARK    2  A    between atoms: O_2  and  C_3
REMARK    3  A    between atoms: C_8  and  C_9
REMARK    4  A    between atoms: C_9  and  N_40
REMARK    5  A    between atoms: C_10  and  C_11
REMARK    6  A    between atoms: C_10  and  N_40
REMARK    7  A    between atoms: C_14  and  C_16
REMARK                            x       y       z     vdW  Elec       q    Type
REMARK                         _______ _______ _______ _____ _____    ______ ____
ROOT
ATOM      1  C   UNL     1      -3.114  -1.559  -1.380  0.00  0.00    -0.006 C 
ENDROOT
BRANCH   1   2
ATOM      2  C   UNL     1      -3.653  -1.575  -2.788  0.00  0.00    +0.089 A 
ATOM      3  C   UNL     1      -3.379  -2.506  -3.723  0.00  0.00    +0.043 A 
ATOM      4  C   UNL     1      -4.088  -2.143  -4.886  0.00  0.00    +0.050 A 
ATOM      5  C   UNL     1      -4.755  -0.994  -4.596  0.00  0.00    +0.138 A 
ATOM      6  O   UNL     1      -4.481  -0.661  -3.320  0.00  0.00    -0.462 OA
BRANCH   5   7
ATOM      7  C   UNL     1      -5.628  -0.241  -5.520  0.00  0.00    +0.052 A 
ATOM      8  C   UNL     1      -6.907   0.145  -5.117  0.00  0.00    +0.014 A 
ATOM      9  C   UNL     1      -7.717   0.849  -5.985  0.00  0.00    +0.001 A 
ATOM     10  C   UNL     1      -7.265   1.172  -7.252  0.00  0.00    +0.003 A 
ATOM     11  C   UNL     1      -5.999   0.793  -7.659  0.00  0.00    +0.039 A 
ATOM     12  C   UNL     1      -5.174   0.093  -6.799  0.00  0.00    +0.134 A 
ATOM     13  F   UNL     1      -3.935  -0.272  -7.196  0.00  0.00    -0.205 F 
ENDBRANCH   5   7
ENDBRANCH   1   2
BRANCH   1  14
ATOM     14  N   UNL     1      -1.844  -0.808  -1.358  0.00  0.00    +0.386 N 
ATOM     15  H   UNL     1      -1.170  -1.264  -1.984  0.00  0.00    -0.085 HD
ATOM     16  H   UNL     1      -2.013   0.153  -1.678  0.00  0.00    -0.085 HD
BRANCH  14  17
ATOM     17  C   UNL     1      -1.292  -0.776   0.010  0.00  0.00    -0.043 C 
BRANCH  17  23
ATOM     18  C   UNL     1      -0.017   1.383   0.010  0.00  0.00    +0.121 A 
ATOM     19  C   UNL     1       1.177   2.091   0.002  0.00  0.00    +0.046 A 
ATOM     20  C   UNL     1       2.380   1.413  -0.013  0.00  0.00    +0.004 A 
ATOM     21  C   UNL     1       2.396   0.030  -0.021  0.00  0.00    +0.000 A 
ATOM     22  C   UNL     1       1.208  -0.677  -0.013  0.00  0.00    +0.005 A 
ATOM     23  C   UNL     1       0.002  -0.004   0.002  0.00  0.00    -0.023 A 
BRANCH  18  25
ATOM     24  C   UNL     1      -1.145   3.475   0.026  0.00  0.00    +0.277 C 
ATOM     25  O   UNL     1      -1.202   2.047   0.019  0.00  0.00    -0.495 OA
ENDBRANCH  18  25
ENDBRANCH  17  23
ENDBRANCH  14  17
ENDBRANCH   1  14
TORSDOF 6
