REMARK  Name = ZINC45891350
REMARK  1 active torsions:
REMARK  status: ('A' for Active; 'I' for Inactive)
REMARK    1  A    between atoms: C_2  and  N_13
REMARK                            x       y       z     vdW  Elec       q    Type
REMARK                         _______ _______ _______ _____ _____    ______ ____
ROOT
ATOM      1  C   UNL     1      -0.017   1.367   0.010  0.00  0.00    +0.056 A 
ATOM      2  C   UNL     1       1.157   2.108   0.002  0.00  0.00    +0.147 A 
ATOM      3  C   UNL     1       2.373   1.449  -0.013  0.00  0.00    +0.087 A 
ATOM      4  C   UNL     1       2.401   0.076  -0.021  0.00  0.00    +0.063 A 
ATOM      5  C   UNL     1       1.228  -0.711  -0.013  0.00  0.00    +0.100 A 
ATOM      6  C   UNL     1       0.002  -0.004   0.002  0.00  0.00    +0.070 A 
ATOM      7 CL   UNL     1      -1.495  -0.883   0.012  0.00  0.00    -0.081 Cl
ATOM      8  N   UNL     1       1.420  -2.048  -0.023  0.00  0.00    -0.224 NA
ATOM      9  C   UNL     1       2.616  -2.589  -0.038  0.00  0.00    +0.157 A 
ATOM     10  S   UNL     1       3.683  -1.155  -0.040  0.00  0.00    -0.051 S 
ATOM     11  N   UNL     1       2.963  -3.925  -0.048  0.00  0.00    -0.337 N 
ATOM     12 CL   UNL     1       3.856   2.353  -0.023  0.00  0.00    -0.080 Cl
ATOM     13  H   UNL     1       2.271  -4.606  -0.045  0.00  0.00    +0.144 HD
ATOM     14  H   UNL     1       3.898  -4.184  -0.058  0.00  0.00    +0.144 HD
ENDROOT
BRANCH   2  15
ATOM     15  N   UNL     1       1.107   3.587   0.010  0.00  0.00    +0.058 N 
ATOM     16  O   UNL     1       0.040   4.156   0.023  0.00  0.00    -0.126 OA
ATOM     17  O   UNL     1       2.133   4.227   0.004  0.00  0.00    -0.126 OA
ENDBRANCH   2  15
TORSDOF 1
