REMARK  Name = ZINC00034488
REMARK  8 active torsions:
REMARK  status: ('A' for Active; 'I' for Inactive)
REMARK    1  A    between atoms: C_1  and  O_2
REMARK    2  A    between atoms: O_2  and  C_3
REMARK    3  A    between atoms: C_6  and  C_10
REMARK    4  A    between atoms: C_7  and  O_9
REMARK    5  A    between atoms: C_14  and  O_22
REMARK    6  A    between atoms: C_15  and  O_20
REMARK    7  A    between atoms: O_20  and  C_21
REMARK    8  A    between atoms: O_22  and  C_23
REMARK                            x       y       z     vdW  Elec       q    Type
REMARK                         _______ _______ _______ _____ _____    ______ ____
ROOT
ATOM      1  C   UNL     1       0.002  -0.004   0.002  0.00  0.00    -0.006 C 
ATOM      2  C   UNL     1      -0.154  -0.496  -1.413  0.00  0.00    -0.050 A 
ATOM      3  C   UNL     1      -1.085   0.132  -2.230  0.00  0.00    +0.052 A 
ATOM      4  C   UNL     1      -1.265  -0.286  -3.535  0.00  0.00    +0.162 A 
ATOM      5  C   UNL     1      -0.508  -1.343  -4.033  0.00  0.00    +0.162 A 
ATOM      6  C   UNL     1       0.419  -1.965  -3.216  0.00  0.00    +0.053 A 
ATOM      7  C   UNL     1       0.598  -1.541  -1.907  0.00  0.00    -0.044 A 
ATOM      8  C   UNL     1       1.623  -2.248  -1.058  0.00  0.00    +0.016 C 
ATOM      9  C   UNL     1       1.385  -1.933   0.419  0.00  0.00    -0.077 C 
ATOM     10  N   UNL     1       1.272  -0.471   0.575  0.00  0.00    +0.387 N 
ATOM     11  H   UNL     1       1.304  -0.231   1.573  0.00  0.00    -0.085 HD
ATOM     12  H   UNL     1       2.053  -0.015   0.088  0.00  0.00    -0.085 HD
ENDROOT
BRANCH   1  16
ATOM     13  C   UNL     1      -0.055   4.272   0.025  0.00  0.00    +0.124 A 
ATOM     14  C   UNL     1       1.154   3.591   0.010  0.00  0.00    +0.046 A 
ATOM     15  C   UNL     1       1.169   2.209   0.003  0.00  0.00    +0.009 A 
ATOM     16  C   UNL     1      -0.018   1.503   0.010  0.00  0.00    -0.015 A 
ATOM     17  C   UNL     1      -1.230   2.179   0.020  0.00  0.00    +0.122 A 
ATOM     18  C   UNL     1      -1.248   3.566   0.033  0.00  0.00    +0.091 A 
BRANCH  13  20
ATOM     19  C   UNL     1       1.196   6.294   0.023  0.00  0.00    +0.277 C 
ATOM     20  O   UNL     1      -0.070   5.631   0.032  0.00  0.00    -0.495 OA
ENDBRANCH  13  20
BRANCH  17  21
ATOM     21  O   UNL     1      -2.397   1.484   0.021  0.00  0.00    -0.506 OA
ATOM     22  H   UNL     1      -2.731   1.278   0.905  0.00  0.00    +0.292 HD
ENDBRANCH  17  21
ENDBRANCH   1  16
BRANCH   5  23
ATOM     23  O   UNL     1      -0.679  -1.763  -5.315  0.00  0.00    -0.491 OA
ATOM     24  C   UNL     1       0.133  -2.853  -5.755  0.00  0.00    +0.277 C 
ENDBRANCH   5  23
BRANCH   4  25
ATOM     25  O   UNL     1      -2.179   0.333  -4.331  0.00  0.00    -0.491 OA
ATOM     26  C   UNL     1      -2.919   1.409  -3.752  0.00  0.00    +0.277 C 
ENDBRANCH   4  25
TORSDOF 5
