REMARK  Name = ZINC42441024
REMARK  7 active torsions:
REMARK  status: ('A' for Active; 'I' for Inactive)
REMARK    1  A    between atoms: C_1  and  C_2
REMARK    2  A    between atoms: C_6  and  C_21
REMARK    3  A    between atoms: N_9  and  C_10
REMARK    4  A    between atoms: C_13  and  N_20
REMARK    5  A    between atoms: C_15  and  C_16
REMARK    6  A    between atoms: C_16  and  O_18
REMARK    7  A    between atoms: O_18  and  C_19
REMARK                            x       y       z     vdW  Elec       q    Type
REMARK                         _______ _______ _______ _____ _____    ______ ____
ROOT
ATOM      1  C   UNL     1       1.134   0.391   2.178  0.00  0.00    +0.044 A 
ATOM      2  C   UNL     1       2.426   0.900   2.159  0.00  0.00    +0.026 A 
ATOM      3  C   UNL     1       2.841   1.774   3.143  0.00  0.00    +0.024 A 
ATOM      4  C   UNL     1       1.970   2.153   4.160  0.00  0.00    +0.025 A 
ATOM      5  C   UNL     1       0.679   1.655   4.193  0.00  0.00    +0.039 A 
ATOM      6  C   UNL     1       0.248   0.773   3.197  0.00  0.00    +0.082 A 
ENDROOT
BRANCH   1  13
ATOM      7  C   UNL     1       0.136   1.538  -0.061  0.00  0.00    +0.028 C 
ATOM      8  C   UNL     1       0.079   0.009  -0.040  0.00  0.00    +0.070 C 
ATOM      9  C   UNL     1       0.830  -0.549  -1.253  0.00  0.00    +0.023 C 
ATOM     10  C   UNL     1       0.890  -2.075  -1.153  0.00  0.00    +0.016 C 
ATOM     11  C   UNL     1       1.651  -2.476   0.113  0.00  0.00    +0.092 C 
ATOM     12  C   UNL     1       0.909  -1.939   1.342  0.00  0.00    +0.118 C 
ATOM     13  N   UNL     1       0.717  -0.491   1.186  0.00  0.00    -0.326 N 
BRANCH  11  14
ATOM     14  C   UNL     1       1.738  -3.978   0.194  0.00  0.00    +0.215 C 
ATOM     15  O   UNL     1       1.257  -4.564   1.141  0.00  0.00    -0.276 OA
ATOM     16  N   UNL     1       2.350  -4.672  -0.787  0.00  0.00    -0.329 N 
ATOM     17  H   UNL     1       2.734  -4.204  -1.544  0.00  0.00    +0.145 HD
ATOM     18  H   UNL     1       2.405  -5.639  -0.735  0.00  0.00    +0.145 HD
ENDBRANCH  11  14
ENDBRANCH   1  13
BRANCH   4  19
ATOM     19  N   UNL     1       2.401   3.040   5.154  0.00  0.00    -0.358 N 
ATOM     20  H   UNL     1       3.306   3.389   5.133  0.00  0.00    +0.142 HD
ATOM     21  H   UNL     1       1.795   3.305   5.864  0.00  0.00    +0.142 HD
ENDBRANCH   4  19
BRANCH   6  22
ATOM     22  C   UNL     1      -1.126   0.243   3.222  0.00  0.00    +0.341 C 
ATOM     23  O   UNL     1      -1.468  -0.597   2.413  0.00  0.00    -0.245 OA
BRANCH  22  24
ATOM     24  O   UNL     1      -2.004   0.690   4.141  0.00  0.00    -0.464 OA
ATOM     25  C   UNL     1      -3.319   0.133   4.107  0.00  0.00    +0.280 C 
ENDBRANCH  22  24
ENDBRANCH   6  22
TORSDOF 5
