REMARK  Name = ZINC06632405
REMARK  7 active torsions:
REMARK  status: ('A' for Active; 'I' for Inactive)
REMARK    1  A    between atoms: C_1  and  C_2
REMARK    2  A    between atoms: C_6  and  N_9
REMARK    3  A    between atoms: C_7  and  C_8
REMARK    4  A    between atoms: N_9  and  C_10
REMARK    5  A    between atoms: C_10  and  N_12
REMARK    6  A    between atoms: N_12  and  N_13
REMARK    7  A    between atoms: C_14  and  C_16
REMARK                            x       y       z     vdW  Elec       q    Type
REMARK                         _______ _______ _______ _____ _____    ______ ____
ROOT
ATOM      1  C   UNL     1      -0.009   4.146  -0.078  0.00  0.00    +0.151 C 
ATOM      2  S   UNL     1      -1.485   3.279  -0.069  0.00  0.00    -0.017 S 
ENDROOT
BRANCH   1   3
ATOM      3  N   UNL     1       1.162   3.485   0.009  0.00  0.00    -0.296 N 
ATOM      4  H   UNL     1       1.993   3.979   0.084  0.00  0.00    +0.154 HD
BRANCH   3  10
ATOM      5  C   UNL     1       2.852  -0.750   1.846  0.00  0.00    +0.044 C 
ATOM      6  C   UNL     1       1.988   0.008   0.871  0.00  0.00    -0.046 A 
ATOM      7  C   UNL     1       1.211  -0.680  -0.043  0.00  0.00    +0.004 A 
ATOM      8  C   UNL     1       0.418   0.012  -0.940  0.00  0.00    +0.002 A 
ATOM      9  C   UNL     1       0.399   1.393  -0.925  0.00  0.00    +0.023 A 
ATOM     10  C   UNL     1       1.178   2.086  -0.008  0.00  0.00    +0.036 A 
ATOM     11  C   UNL     1       1.974   1.388   0.891  0.00  0.00    -0.026 A 
ATOM     12  C   UNL     1       2.821   2.137   1.888  0.00  0.00    +0.046 C 
ENDBRANCH   3  10
ENDBRANCH   1   3
BRANCH   1  13
ATOM     13  N   UNL     1      -0.018   5.491  -0.173  0.00  0.00    -0.245 N 
ATOM     14  H   UNL     1      -0.861   5.967  -0.236  0.00  0.00    +0.172 HD
BRANCH  13  15
ATOM     15  N   UNL     1       1.189   6.201  -0.180  0.00  0.00    -0.229 N 
ATOM     16  C   UNL     1       1.180   7.545  -0.275  0.00  0.00    +0.295 C 
ATOM     17  O   UNL     1       0.123   8.143  -0.354  0.00  0.00    -0.265 OA
ATOM     18  H   UNL     1       2.032   5.725  -0.117  0.00  0.00    +0.173 HD
BRANCH  16  19
ATOM     19  C   UNL     1       2.444   8.288  -0.283  0.00  0.00    +0.192 A 
ATOM     20  C   UNL     1       2.577   9.644  -0.379  0.00  0.00    +0.056 A 
ATOM     21  C   UNL     1       3.952   9.918  -0.344  0.00  0.00    +0.058 A 
ATOM     22  C   UNL     1       4.592   8.731  -0.239  0.00  0.00    +0.171 A 
ATOM     23  O   UNL     1       3.679   7.751  -0.203  0.00  0.00    -0.444 OA
ATOM     24 BR   UNL     1       6.466   8.493  -0.157  0.00  0.00    -0.008 Br
ENDBRANCH  16  19
ENDBRANCH  13  15
ENDBRANCH   1  13
TORSDOF 5
