REMARK  Name = ZINC28974256
REMARK  13 active torsions:
REMARK  status: ('A' for Active; 'I' for Inactive)
REMARK    1  A    between atoms: C_1  and  C_2
REMARK    2  A    between atoms: C_2  and  C_3
REMARK    3  A    between atoms: C_2  and  C_4
REMARK    4  A    between atoms: C_2  and  N_5
REMARK    5  A    between atoms: C_9  and  C_11
REMARK    6  A    between atoms: C_11  and  N_12
REMARK    7  A    between atoms: N_12  and  C_13
REMARK    8  A    between atoms: N_12  and  C_24
REMARK    9  A    between atoms: C_13  and  C_14
REMARK   10  A    between atoms: N_19  and  C_20
REMARK   11  A    between atoms: C_20  and  C_21
REMARK   12  A    between atoms: C_20  and  C_22
REMARK   13  A    between atoms: C_20  and  C_23
REMARK                            x       y       z     vdW  Elec       q    Type
REMARK                         _______ _______ _______ _____ _____    ______ ____
ROOT
ATOM      1  N   UNL     1      -2.434   0.978  -0.099  0.00  0.00    +0.393 N 
ATOM      2  H   UNL     1      -1.839   0.373  -0.800  0.00  0.00    -0.080 HD
ENDROOT
BRANCH   1   3
ATOM      3  C   UNL     1      -2.601   0.203   1.137  0.00  0.00    -0.067 C 
ATOM      4  C   UNL     1      -2.210   1.063   2.357  0.00  0.00    -0.015 C 
ATOM      5  C   UNL     1      -1.514   0.066   3.317  0.00  0.00    -0.002 C 
ATOM      6  C   UNL     1      -0.718  -0.843   2.349  0.00  0.00    -0.002 C 
ATOM      7  C   UNL     1      -1.652  -1.009   1.132  0.00  0.00    -0.015 C 
ENDBRANCH   1   3
BRANCH   1   8
ATOM      8  C   UNL     1      -1.700   2.225   0.156  0.00  0.00    +0.020 C 
BRANCH   8  13
ATOM      9  N   UNL     1       2.818   3.636   0.997  0.00  0.00    -0.294 N 
ATOM     10  C   UNL     1       1.941   2.636   0.780  0.00  0.00    +0.306 C 
ATOM     11  O   UNL     1       2.326   1.484   0.756  0.00  0.00    -0.252 OA
ATOM     12  N   UNL     1       0.636   2.914   0.591  0.00  0.00    -0.242 N 
ATOM     13  C   UNL     1      -0.242   1.914   0.374  0.00  0.00    +0.204 C 
ATOM     14  O   UNL     1       0.143   0.764   0.350  0.00  0.00    -0.277 OA
ATOM     15  H   UNL     1       2.469   4.679   1.018  0.00  0.00    +0.151 HD
ATOM     16  H   UNL     1       0.286   3.957   0.612  0.00  0.00    +0.159 HD
BRANCH   9  18
ATOM     17  C   UNL     1       4.790   2.617  -0.030  0.00  0.00    +0.031 C 
ATOM     18  C   UNL     1       4.237   3.334   1.203  0.00  0.00    +0.028 C 
ATOM     19  C   UNL     1       5.008   4.637   1.425  0.00  0.00    +0.031 C 
ATOM     20  C   UNL     1       4.393   2.433   2.430  0.00  0.00    +0.031 C 
ENDBRANCH   9  18
ENDBRANCH   8  13
ENDBRANCH   1   8
BRANCH   1  21
ATOM     21  C   UNL     1      -3.732   1.251  -0.729  0.00  0.00    +0.020 C 
BRANCH  21  22
ATOM     22  C   UNL     1      -4.283  -0.023  -1.318  0.00  0.00    +0.204 C 
ATOM     23  O   UNL     1      -3.699  -1.071  -1.147  0.00  0.00    -0.277 OA
ATOM     24  N   UNL     1      -5.424   0.004  -2.035  0.00  0.00    -0.242 N 
ATOM     25  C   UNL     1      -5.916  -1.134  -2.562  0.00  0.00    +0.306 C 
ATOM     26  O   UNL     1      -5.330  -2.186  -2.390  0.00  0.00    -0.252 OA
ATOM     27  N   UNL     1      -7.057  -1.107  -3.278  0.00  0.00    -0.294 N 
ATOM     28  H   UNL     1      -5.953   0.956  -2.190  0.00  0.00    +0.159 HD
ATOM     29  H   UNL     1      -7.587  -0.156  -3.433  0.00  0.00    +0.151 HD
BRANCH  27  30
ATOM     30  C   UNL     1      -7.592  -2.345  -3.851  0.00  0.00    +0.028 C 
ATOM     31  C   UNL     1      -7.884  -3.342  -2.728  0.00  0.00    +0.031 C 
ATOM     32  C   UNL     1      -8.884  -2.039  -4.611  0.00  0.00    +0.031 C 
ATOM     33  C   UNL     1      -6.565  -2.947  -4.812  0.00  0.00    +0.031 C 
ENDBRANCH  27  30
ENDBRANCH  21  22
ENDBRANCH   1  21
TORSDOF 7
