REMARK  Name = ZINC49529677
REMARK  5 active torsions:
REMARK  status: ('A' for Active; 'I' for Inactive)
REMARK    1  A    between atoms: C_1  and  C_2
REMARK    2  A    between atoms: C_2  and  C_3
REMARK    3  A    between atoms: C_3  and  C_5
REMARK    4  A    between atoms: C_3  and  N_10
REMARK    5  A    between atoms: N_10  and  C_11
REMARK                            x       y       z     vdW  Elec       q    Type
REMARK                         _______ _______ _______ _____ _____    ______ ____
ROOT
ATOM      1  C   UNL     1       2.365   1.152  -1.083  0.00  0.00    +0.050 C 
ATOM      2  C   UNL     1       3.806   1.492  -0.780  0.00  0.00    -0.030 A 
ATOM      3  C   UNL     1       4.617   1.248   0.305  0.00  0.00    +0.004 A 
ATOM      4  C   UNL     1       5.929   1.691   0.300  0.00  0.00    +0.002 A 
ATOM      5  C   UNL     1       6.420   2.376  -0.796  0.00  0.00    +0.022 A 
ATOM      6  C   UNL     1       5.609   2.622  -1.885  0.00  0.00    +0.062 A 
ATOM      7  C   UNL     1       4.286   2.179  -1.888  0.00  0.00    +0.054 A 
ATOM      8  N   UNL     1       3.285   2.300  -2.852  0.00  0.00    -0.285 N 
ATOM      9  C   UNL     1       2.129   1.730  -2.462  0.00  0.00    +0.208 C 
ATOM     10  O   UNL     1       1.095   1.684  -3.095  0.00  0.00    -0.277 OA
ATOM     11 CL   UNL     1       6.236   3.483  -3.256  0.00  0.00    -0.082 Cl
ATOM     12  H   UNL     1       3.406   2.746  -3.705  0.00  0.00    +0.155 HD
ENDROOT
BRANCH   1  13
ATOM     13  N   UNL     1       2.171  -0.304  -1.095  0.00  0.00    +0.394 N 
ATOM     14  H   UNL     1       2.438  -0.686  -0.200  0.00  0.00    -0.083 HD
ATOM     15  H   UNL     1       2.742  -0.714  -1.819  0.00  0.00    -0.083 HD
BRANCH  13  16
ATOM     16  C   UNL     1       0.757  -0.608  -1.355  0.00  0.00    -0.033 C 
BRANCH  16  17
ATOM     17  C   UNL     1       0.585  -2.097  -1.516  0.00  0.00    -0.024 A 
ATOM     18  C   UNL     1      -0.189  -2.776  -2.397  0.00  0.00    +0.009 A 
ATOM     19  C   UNL     1      -0.190  -4.158  -2.361  0.00  0.00    +0.008 A 
ATOM     20  C   UNL     1       0.583  -4.793  -1.446  0.00  0.00    +0.045 A 
ATOM     21  S   UNL     1       1.353  -3.422  -0.599  0.00  0.00    -0.103 S 
ENDBRANCH  16  17
BRANCH  16  23
ATOM     22  C   UNL     1      -1.573  -0.364  -0.488  0.00  0.00    +0.002 C 
ATOM     23  C   UNL     1      -0.094  -0.119  -0.182  0.00  0.00    -0.014 C 
ENDBRANCH  16  23
ENDBRANCH  13  16
ENDBRANCH   1  13
TORSDOF 4
