REMARK  Name = ZINC04575588
REMARK  7 active torsions:
REMARK  status: ('A' for Active; 'I' for Inactive)
REMARK    1  A    between atoms: C_1  and  C_2
REMARK    2  A    between atoms: C_2  and  N_55
REMARK    3  A    between atoms: C_6  and  C_8
REMARK    4  A    between atoms: C_8  and  N_9
REMARK    5  A    between atoms: C_10  and  C_12
REMARK    6  A    between atoms: C_12  and  O_29
REMARK    7  A    between atoms: N_22  and  C_23
REMARK                            x       y       z     vdW  Elec       q    Type
REMARK                         _______ _______ _______ _____ _____    ______ ____
ROOT
ATOM      1  C   UNL     1       1.903   1.495   3.834  0.00  0.00    +0.247 C 
ATOM      2  C   UNL     1       2.429   1.719   2.435  0.00  0.00    +0.033 A 
ATOM      3  C   UNL     1       2.473   2.977   1.881  0.00  0.00    +0.010 A 
ATOM      4  C   UNL     1       2.961   3.144   0.596  0.00  0.00    +0.001 A 
ATOM      5  C   UNL     1       3.401   2.050  -0.125  0.00  0.00    +0.002 A 
ATOM      6  C   UNL     1       3.357   0.785   0.429  0.00  0.00    +0.024 A 
ATOM      7  C   UNL     1       2.869   0.612   1.717  0.00  0.00    +0.043 A 
ATOM      8  N   UNL     1       2.817  -0.657   2.295  0.00  0.00    -0.269 N 
ATOM      9  C   UNL     1       2.356  -0.875   3.533  0.00  0.00    +0.314 C 
ATOM     10  O   UNL     1       2.347  -2.015   3.956  0.00  0.00    -0.252 OA
ATOM     11  N   UNL     1       1.900   0.108   4.331  0.00  0.00    -0.214 N 
ATOM     12  H   UNL     1       3.130  -1.415   1.777  0.00  0.00    +0.156 HD
ENDROOT
BRANCH  11  13
ATOM     13  C   UNL     1       1.429  -0.183   5.616  0.00  0.00    +0.041 A 
ATOM     14  C   UNL     1       2.151   0.225   6.730  0.00  0.00    +0.024 A 
ATOM     15  C   UNL     1       1.682  -0.060   7.997  0.00  0.00    +0.002 A 
ATOM     16  C   UNL     1       0.500  -0.760   8.158  0.00  0.00    +0.000 A 
ATOM     17  C   UNL     1      -0.218  -1.172   7.050  0.00  0.00    +0.002 A 
ATOM     18  C   UNL     1       0.243  -0.886   5.780  0.00  0.00    +0.024 A 
ENDBRANCH  11  13
BRANCH   1  20
ATOM     19  N   UNL     1      -0.473   1.421   3.150  0.00  0.00    -0.313 N 
ATOM     20  C   UNL     1       0.488   2.011   3.888  0.00  0.00    +0.269 C 
ATOM     21  O   UNL     1       0.214   2.958   4.595  0.00  0.00    -0.270 OA
ATOM     22  H   UNL     1      -0.254   0.663   2.585  0.00  0.00    +0.149 HD
BRANCH  19  23
ATOM     23  C   UNL     1      -1.848   1.923   3.202  0.00  0.00    +0.089 C 
BRANCH  23  27
ATOM     24  C   UNL     1      -5.030   0.555   2.982  0.00  0.00    -0.078 C 
ATOM     25  C   UNL     1      -4.303  -0.802   2.811  0.00  0.00    -0.020 C 
ATOM     26  C   UNL     1      -2.821  -0.392   3.017  0.00  0.00    -0.016 C 
ATOM     27  C   UNL     1      -2.756   1.010   2.375  0.00  0.00    -0.051 C 
ATOM     28  N   UNL     1      -4.132   1.536   2.345  0.00  0.00    +0.382 N 
ATOM     29  H   UNL     1      -4.421   1.677   1.370  0.00  0.00    -0.081 HD
BRANCH  28  31
ATOM     30  C   UNL     1      -5.606   3.417   2.926  0.00  0.00    -0.017 C 
ATOM     31  C   UNL     1      -4.197   2.835   3.063  0.00  0.00    -0.082 C 
ENDBRANCH  28  31
ENDBRANCH  23  27
ENDBRANCH  19  23
ENDBRANCH   1  20
BRANCH   1  32
ATOM     32  O   UNL     1       2.689   2.281   4.732  0.00  0.00    -0.360 OA
ATOM     33  H   UNL     1       2.705   3.224   4.518  0.00  0.00    +0.213 HD
ENDBRANCH   1  32
TORSDOF 6
