REMARK  Name = ZINC52010559
REMARK  5 active torsions:
REMARK  status: ('A' for Active; 'I' for Inactive)
REMARK    1  A    between atoms: C_7  and  N_14
REMARK    2  A    between atoms: C_8  and  C_11
REMARK    3  A    between atoms: C_11  and  N_13
REMARK    4  A    between atoms: N_14  and  C_15
REMARK    5  A    between atoms: C_21  and  O_23
REMARK                            x       y       z     vdW  Elec       q    Type
REMARK                         _______ _______ _______ _____ _____    ______ ____
ROOT
ATOM      1  C   UNL     1       0.322   0.775   0.362  0.00  0.00    +0.001 A 
ATOM      2  C   UNL     1       0.790   1.327  -0.827  0.00  0.00    +0.002 A 
ATOM      3  C   UNL     1       1.377   0.549  -1.778  0.00  0.00    +0.026 A 
ATOM      4  C   UNL     1       1.517  -0.832  -1.563  0.00  0.00    +0.048 A 
ATOM      5  C   UNL     1       1.040  -1.389  -0.353  0.00  0.00    +0.020 A 
ATOM      6  C   UNL     1       0.440  -0.561   0.605  0.00  0.00    +0.012 A 
ATOM      7  C   UNL     1       1.179  -2.780  -0.135  0.00  0.00    +0.048 A 
ATOM      8  C   UNL     1       1.791  -3.542  -1.143  0.00  0.00    +0.040 A 
ATOM      9  C   UNL     1       2.234  -2.903  -2.312  0.00  0.00    +0.095 A 
ATOM     10  N   UNL     1       2.092  -1.614  -2.486  0.00  0.00    -0.360 N 
ATOM     11  H   UNL     1       2.413  -1.213  -3.309  0.00  0.00    +0.165 HD
ENDROOT
BRANCH   8  12
ATOM     12  C   UNL     1       1.966  -4.992  -0.976  0.00  0.00    +0.080 C 
ATOM     13  S   UNL     1       0.809  -5.899  -0.097  0.00  0.00    -0.035 S 
BRANCH  12  14
ATOM     14  N   UNL     1       3.036  -5.609  -1.515  0.00  0.00    -0.352 N 
ATOM     15  H   UNL     1       3.692  -5.095  -2.013  0.00  0.00    +0.143 HD
ATOM     16  H   UNL     1       3.151  -6.566  -1.405  0.00  0.00    +0.143 HD
ENDBRANCH  12  14
ENDBRANCH   8  12
BRANCH   7  17
ATOM     17  N   UNL     1       0.730  -3.368   1.028  0.00  0.00    -0.337 N 
ATOM     18  H   UNL     1       1.269  -4.043   1.470  0.00  0.00    +0.146 HD
BRANCH  17  19
ATOM     19  C   UNL     1      -0.561  -2.973   1.597  0.00  0.00    +0.099 C 
ATOM     20  C   UNL     1      -0.367  -2.544   3.053  0.00  0.00    +0.025 C 
ATOM     21  C   UNL     1       0.208  -3.712   3.856  0.00  0.00    +0.002 C 
ATOM     22  C   UNL     1      -0.758  -4.897   3.798  0.00  0.00    +0.003 C 
ATOM     23  C   UNL     1      -0.952  -5.325   2.342  0.00  0.00    +0.033 C 
ATOM     24  C   UNL     1      -1.528  -4.157   1.538  0.00  0.00    +0.135 C 
BRANCH  24  25
ATOM     25  O   UNL     1      -1.709  -4.558   0.179  0.00  0.00    -0.390 OA
ATOM     26  H   UNL     1      -2.311  -5.306   0.066  0.00  0.00    +0.210 HD
ENDBRANCH  24  25
ENDBRANCH  17  19
ENDBRANCH   7  17
TORSDOF 5
