REMARK  Name = ZINC07286448
REMARK  6 active torsions:
REMARK  status: ('A' for Active; 'I' for Inactive)
REMARK    1  A    between atoms: C_1  and  C_2
REMARK    2  A    between atoms: C_5  and  C_25
REMARK    3  A    between atoms: C_6  and  N_8
REMARK    4  A    between atoms: C_9  and  S_11
REMARK    5  A    between atoms: S_11  and  C_12
REMARK    6  A    between atoms: C_12  and  C_13
REMARK                            x       y       z     vdW  Elec       q    Type
REMARK                         _______ _______ _______ _____ _____    ______ ____
ROOT
ATOM      1  S   UNL     1       0.646  -3.040   4.940  0.00  0.00    -0.083 S 
ENDROOT
BRANCH   1   3
ATOM      2  N   UNL     1      -0.207  -2.795   2.418  0.00  0.00    -0.226 NA
ATOM      3  C   UNL     1       0.148  -2.147   3.505  0.00  0.00    +0.152 C 
ATOM      4  N   UNL     1       0.129  -0.774   3.522  0.00  0.00    -0.338 N 
ATOM      5  H   UNL     1      -0.027  -0.280   2.702  0.00  0.00    +0.144 HD
ATOM      6  H   UNL     1       0.273  -0.297   4.355  0.00  0.00    +0.144 HD
BRANCH   2  12
ATOM      7  C   UNL     1      -3.400   0.459   0.632  0.00  0.00    +0.044 C 
ATOM      8  C   UNL     1      -2.269  -0.518   0.442  0.00  0.00    -0.048 A 
ATOM      9  C   UNL     1      -1.739  -0.723  -0.820  0.00  0.00    +0.004 A 
ATOM     10  C   UNL     1      -0.700  -1.617  -1.005  0.00  0.00    +0.006 A 
ATOM     11  C   UNL     1      -0.184  -2.311   0.070  0.00  0.00    -0.025 A 
ATOM     12  C   UNL     1      -0.714  -2.109   1.347  0.00  0.00    +0.070 A 
ATOM     13  C   UNL     1      -1.759  -1.201   1.526  0.00  0.00    +0.031 A 
ATOM     14  C   UNL     1       0.948  -3.285  -0.132  0.00  0.00    +0.046 C 
ENDBRANCH   2  12
ENDBRANCH   1   3
BRANCH   1  15
ATOM     15  C   UNL     1       0.510  -4.779   4.444  0.00  0.00    +0.151 C 
BRANCH  15  16
ATOM     16  C   UNL     1       0.913  -5.663   5.596  0.00  0.00    +0.121 A 
ATOM     17  N   UNL     1       0.883  -7.010   5.416  0.00  0.00    -0.310 N 
ATOM     18  H   UNL     1       0.606  -7.374   4.561  0.00  0.00    +0.170 HD
ATOM     19  C   UNL     1       1.236  -7.846   6.419  0.00  0.00    +0.259 A 
ATOM     20  O   UNL     1       1.214  -9.055   6.272  0.00  0.00    -0.267 OA
ATOM     21  C   UNL     1       1.648  -7.239   7.694  0.00  0.00    +0.065 A 
ATOM     22  C   UNL     1       2.030  -8.012   8.789  0.00  0.00    +0.015 A 
ATOM     23  C   UNL     1       2.406  -7.391   9.960  0.00  0.00    +0.001 A 
ATOM     24  C   UNL     1       2.408  -6.005  10.055  0.00  0.00    +0.002 A 
ATOM     25  C   UNL     1       2.033  -5.224   8.985  0.00  0.00    +0.028 A 
ATOM     26  C   UNL     1       1.648  -5.830   7.787  0.00  0.00    +0.078 A 
ATOM     27  N   UNL     1       1.277  -5.099   6.707  0.00  0.00    -0.233 NA
ENDBRANCH  15  16
ENDBRANCH   1  15
TORSDOF 4
