REMARK  Name = ZINC14151975
REMARK  7 active torsions:
REMARK  status: ('A' for Active; 'I' for Inactive)
REMARK    1  A    between atoms: C_3  and  C_30
REMARK    2  A    between atoms: C_6  and  C_7
REMARK    3  A    between atoms: C_10  and  C_12
REMARK    4  A    between atoms: C_13  and  C_14
REMARK    5  A    between atoms: C_13  and  C_16
REMARK    6  A    between atoms: N_18  and  C_19
REMARK    7  A    between atoms: C_20  and  C_28
REMARK                            x       y       z     vdW  Elec       q    Type
REMARK                         _______ _______ _______ _____ _____    ______ ____
ROOT
ATOM      1  C   UNL     1      -1.636   4.640   0.041  0.00  0.00    +0.070 C 
ATOM      2  C   UNL     1      -3.007   4.433   0.053  0.00  0.00    +0.117 C 
ENDROOT
BRANCH   1   6
ATOM      3  C   UNL     1      -0.018   1.470   0.010  0.00  0.00    +0.136 A 
ATOM      4  C   UNL     1       1.091   2.290   0.004  0.00  0.00    +0.050 A 
ATOM      5  C   UNL     1       0.626   3.605   0.015  0.00  0.00    +0.050 A 
ATOM      6  C   UNL     1      -0.759   3.541   0.028  0.00  0.00    +0.130 A 
ATOM      7  O   UNL     1      -1.120   2.240   0.019  0.00  0.00    -0.455 OA
BRANCH   3  13
ATOM      8  C   UNL     1       1.223  -0.687  -0.019  0.00  0.00    +0.012 A 
ATOM      9  C   UNL     1       1.241  -2.058  -0.022  0.00  0.00    +0.016 A 
ATOM     10  C   UNL     1       0.040  -2.773  -0.014  0.00  0.00    +0.063 A 
ATOM     11  C   UNL     1      -1.181  -2.091   0.002  0.00  0.00    +0.016 A 
ATOM     12  C   UNL     1      -1.200  -0.720   0.010  0.00  0.00    +0.012 A 
ATOM     13  C   UNL     1       0.002  -0.004   0.002  0.00  0.00    +0.017 A 
BRANCH  10  14
ATOM     14  C   UNL     1       0.060  -4.249  -0.023  0.00  0.00    +0.387 C 
ATOM     15  O   UNL     1      -0.984  -4.871  -0.017  0.00  0.00    -0.241 OA
ATOM     16  O   UNL     1       1.236  -4.907  -0.038  0.00  0.00    -0.241 OA
ENDBRANCH  10  14
ENDBRANCH   3  13
ENDBRANCH   1   6
BRANCH   2  17
ATOM     17  C   UNL     1      -3.922   5.580   0.067  0.00  0.00    +0.259 C 
ATOM     18  O   UNL     1      -3.478   6.713   0.068  0.00  0.00    -0.269 OA
ATOM     19  N   UNL     1      -5.255   5.380   0.078  0.00  0.00    -0.274 N 
ATOM     20  H   UNL     1      -5.609   4.476   0.077  0.00  0.00    +0.156 HD
BRANCH  19  21
ATOM     21  C   UNL     1      -6.120   6.463   0.091  0.00  0.00    +0.090 A 
ATOM     22  C   UNL     1      -7.507   6.459   0.098  0.00  0.00    +0.084 A 
ATOM     23  C   UNL     1      -8.182   7.745   0.115  0.00  0.00    -0.018 A 
ATOM     24  C   UNL     1      -7.367   8.823   0.112  0.00  0.00    -0.004 A 
ATOM     25  S   UNL     1      -5.729   8.152   0.095  0.00  0.00    -0.077 S 
ATOM     26  C   UNL     1      -7.776  10.264   0.121  0.00  0.00    +0.043 C 
ATOM     27  C   UNL     1      -9.265  10.347  -0.243  0.00  0.00    +0.005 C 
ATOM     28  C   UNL     1     -10.036   9.324   0.597  0.00  0.00    +0.005 C 
ATOM     29  C   UNL     1      -9.697   7.907   0.131  0.00  0.00    +0.037 C 
BRANCH  22  30
ATOM     30  C   UNL     1      -8.246   5.233   0.093  0.00  0.00    +0.102 C 
ATOM     31  N   UNL     1      -8.832   4.260   0.088  0.00  0.00    -0.191 NA
ENDBRANCH  22  30
ENDBRANCH  19  21
ENDBRANCH   2  17
BRANCH   2  32
ATOM     32  C   UNL     1      -3.530   3.100   0.051  0.00  0.00    +0.104 C 
ATOM     33  N   UNL     1      -3.945   2.042   0.050  0.00  0.00    -0.191 NA
ENDBRANCH   2  32
TORSDOF 7
