REMARK  Name = ZINC59992932
REMARK  12 active torsions:
REMARK  status: ('A' for Active; 'I' for Inactive)
REMARK    1  A    between atoms: C_1  and  C_2
REMARK    2  A    between atoms: C_5  and  C_24
REMARK    3  A    between atoms: N_8  and  C_10
REMARK    4  A    between atoms: C_10  and  C_11
REMARK    5  A    between atoms: C_10  and  C_12
REMARK    6  A    between atoms: C_10  and  C_13
REMARK    7  A    between atoms: C_13  and  N_14
REMARK    8  A    between atoms: N_17  and  C_18
REMARK    9  A    between atoms: C_18  and  C_20
REMARK   10  A    between atoms: C_18  and  C_21
REMARK   11  A    between atoms: C_21  and  C_22
REMARK   12  A    between atoms: C_21  and  C_23
REMARK                            x       y       z     vdW  Elec       q    Type
REMARK                         _______ _______ _______ _____ _____    ______ ____
ROOT
ATOM      1  C   UNL     1       1.478  -2.227   2.306  0.00  0.00    -0.055 C 
ATOM      2  C   UNL     1       0.963  -1.768   3.672  0.00  0.00    -0.008 C 
ATOM      3  C   UNL     1       1.148  -3.707   2.108  0.00  0.00    -0.008 C 
ENDROOT
BRANCH   1   9
ATOM      4  C   UNL     1       0.932   2.275   0.461  0.00  0.00    +0.005 C 
ATOM      5  C   UNL     1       0.574   0.799   0.277  0.00  0.00    -0.031 C 
ATOM      6  C   UNL     1      -0.949   0.636   0.288  0.00  0.00    +0.003 C 
ATOM      7  C   UNL     1      -1.294  -0.852   0.182  0.00  0.00    -0.031 C 
ATOM      8  C   UNL     1      -0.623  -1.609   1.330  0.00  0.00    -0.075 C 
ATOM      9  N   UNL     1       0.833  -1.436   1.250  0.00  0.00    +0.384 N 
ATOM     10  C   UNL     1       1.177  -0.019   1.421  0.00  0.00    -0.075 C 
ATOM     11  C   UNL     1      -0.791  -1.399  -1.155  0.00  0.00    +0.005 C 
ATOM     12  H   UNL     1       1.159  -1.753   0.349  0.00  0.00    -0.081 HD
ENDBRANCH   1   9
BRANCH   1  13
ATOM     13  C   UNL     1       2.993  -2.028   2.239  0.00  0.00    +0.093 C 
BRANCH  13  14
ATOM     14  N   UNL     1       3.474  -2.390   0.904  0.00  0.00    -0.301 N 
ATOM     15  C   UNL     1       4.768  -2.196   0.578  0.00  0.00    +0.300 C 
ATOM     16  O   UNL     1       5.535  -1.721   1.393  0.00  0.00    -0.253 OA
ATOM     17  N   UNL     1       5.210  -2.529  -0.651  0.00  0.00    -0.297 N 
ATOM     18  H   UNL     1       2.862  -2.769   0.254  0.00  0.00    +0.150 HD
ATOM     19  H   UNL     1       4.598  -2.908  -1.301  0.00  0.00    +0.151 HD
BRANCH  17  20
ATOM     20  C   UNL     1       6.616  -2.318  -1.005  0.00  0.00    +0.074 C 
ATOM     21  C   UNL     1       7.444  -3.518  -0.542  0.00  0.00    +0.028 C 
BRANCH  20  22
ATOM     22  C   UNL     1       6.743  -2.166  -2.522  0.00  0.00    +0.003 C 
ATOM     23  C   UNL     1       5.915  -0.965  -2.985  0.00  0.00    +0.009 C 
ATOM     24  C   UNL     1       8.211  -1.946  -2.892  0.00  0.00    +0.009 C 
ENDBRANCH  20  22
ENDBRANCH  17  20
ENDBRANCH  13  14
ENDBRANCH   1  13
TORSDOF 5
