REMARK  Name = ZINC63511407
REMARK  7 active torsions:
REMARK  status: ('A' for Active; 'I' for Inactive)
REMARK    1  A    between atoms: C_1  and  C_2
REMARK    2  A    between atoms: C_4  and  C_7
REMARK    3  A    between atoms: C_7  and  N_12
REMARK    4  A    between atoms: N_12  and  C_13
REMARK    5  A    between atoms: C_13  and  C_14
REMARK    6  A    between atoms: N_16  and  C_17
REMARK    7  A    between atoms: C_18  and  C_22
REMARK                            x       y       z     vdW  Elec       q    Type
REMARK                         _______ _______ _______ _____ _____    ______ ____
ROOT
ATOM      1  C   UNL     1      -3.256  -1.963  -1.150  0.00  0.00    +0.017 C 
ENDROOT
BRANCH   1   2
ATOM      2  C   UNL     1      -4.161  -1.911  -2.354  0.00  0.00    +0.201 C 
ATOM      3  O   UNL     1      -4.152  -2.818  -3.159  0.00  0.00    -0.278 OA
ATOM      4  N   UNL     1      -4.980  -0.856  -2.536  0.00  0.00    -0.281 N 
ATOM      5  H   UNL     1      -4.987  -0.131  -1.892  0.00  0.00    +0.155 HD
BRANCH   4   6
ATOM      6  C   UNL     1      -5.812  -0.809  -3.644  0.00  0.00    +0.084 A 
ATOM      7  C   UNL     1      -6.709   0.190  -3.994  0.00  0.00    +0.065 A 
ATOM      8  C   UNL     1      -7.460  -0.013  -5.212  0.00  0.00    +0.022 A 
ATOM      9  C   UNL     1      -7.203  -1.156  -5.875  0.00  0.00    +0.048 A 
ATOM     10  S   UNL     1      -5.961  -1.942  -4.872  0.00  0.00    -0.081 S 
BRANCH   7  11
ATOM     11  C   UNL     1      -6.887   1.390  -3.171  0.00  0.00    +0.244 C 
ATOM     12  O   UNL     1      -6.238   1.530  -2.150  0.00  0.00    -0.270 OA
ATOM     13  N   UNL     1      -7.768   2.339  -3.544  0.00  0.00    -0.325 N 
ATOM     14  H   UNL     1      -8.285   2.228  -4.358  0.00  0.00    +0.145 HD
ATOM     15  H   UNL     1      -7.885   3.133  -2.999  0.00  0.00    +0.145 HD
ENDBRANCH   7  11
ENDBRANCH   4   6
ENDBRANCH   1   2
BRANCH   1  16
ATOM     16  N   UNL     1      -2.470  -3.204  -1.181  0.00  0.00    +0.393 N 
ATOM     17  H   UNL     1      -1.913  -3.228  -2.022  0.00  0.00    -0.084 HD
ATOM     18  H   UNL     1      -3.093  -3.997  -1.168  0.00  0.00    -0.084 HD
BRANCH  16  19
ATOM     19  C   UNL     1      -1.588  -3.254  -0.008  0.00  0.00    -0.003 C 
ATOM     20  C   UNL     1      -2.428  -3.272   1.286  0.00  0.00    -0.005 C 
ATOM     21  C   UNL     1      -2.542  -4.775   1.644  0.00  0.00    -0.001 C 
ATOM     22  C   UNL     1      -1.142  -5.322   1.268  0.00  0.00    -0.001 C 
ATOM     23  C   UNL     1      -0.770  -4.558  -0.019  0.00  0.00    -0.005 C 
BRANCH  19  27
ATOM     24  C   UNL     1      -0.018   1.503   0.010  0.00  0.00    +0.112 C 
ATOM     25  C   UNL     1       0.002  -0.004   0.002  0.00  0.00    +0.224 A 
ATOM     26  N   UNL     1      -1.044  -0.783   0.003  0.00  0.00    -0.198 NA
ATOM     27  C   UNL     1      -0.663  -2.065  -0.006  0.00  0.00    +0.161 A 
ATOM     28  N   UNL     1       0.638  -2.118  -0.012  0.00  0.00    -0.063 NA
ATOM     29  O   UNL     1       1.097  -0.774  -0.013  0.00  0.00    -0.338 OA
ENDBRANCH  19  27
ENDBRANCH  16  19
ENDBRANCH   1  16
TORSDOF 6
