REMARK  Name = ZINC38777177
REMARK  7 active torsions:
REMARK  status: ('A' for Active; 'I' for Inactive)
REMARK    1  A    between atoms: C_1  and  C_2
REMARK    2  A    between atoms: C_4  and  C_8
REMARK    3  A    between atoms: C_12  and  C_15
REMARK    4  A    between atoms: C_18  and  C_21
REMARK    5  A    between atoms: C_21  and  C_22
REMARK    6  A    between atoms: C_21  and  C_23
REMARK    7  A    between atoms: C_21  and  C_24
REMARK                            x       y       z     vdW  Elec       q    Type
REMARK                         _______ _______ _______ _____ _____    ______ ____
ROOT
ATOM      1  C   UNL     1      -0.976  -2.937  -1.266  0.00  0.00    +0.232 C 
ATOM      2  N   UNL     1      -0.461  -4.331  -1.251  0.00  0.00    -0.225 NA
ATOM      3  N   UNL     1      -1.417  -5.028  -2.128  0.00  0.00    -0.223 NA
ATOM      4  C   UNL     1      -2.710  -4.372  -1.829  0.00  0.00    +0.233 C 
ATOM      5  O   UNL     1      -2.408  -3.075  -1.288  0.00  0.00    -0.335 OA
ATOM      6  H   UNL     1      -0.482  -4.714  -0.317  0.00  0.00    +0.143 HD
ATOM      7  H   UNL     1      -1.453  -6.014  -1.913  0.00  0.00    +0.144 HD
ENDROOT
BRANCH   1  11
ATOM      8  C   UNL     1      -0.018   1.503   0.010  0.00  0.00    +0.067 C 
ATOM      9  C   UNL     1       0.002  -0.004   0.002  0.00  0.00    +0.058 C 
ATOM     10  C   UNL     1      -1.086  -0.777   0.003  0.00  0.00    +0.030 C 
ATOM     11  C   UNL     1      -0.531  -2.190  -0.007  0.00  0.00    +0.197 C 
ATOM     12  N   UNL     1       0.926  -1.973  -0.013  0.00  0.00    -0.176 NA
ATOM     13  N   UNL     1       1.125  -0.756  -0.013  0.00  0.00    -0.159 NA
ENDBRANCH   1  11
BRANCH   4  14
ATOM     14  C   UNL     1      -3.518  -4.228  -3.094  0.00  0.00    -0.003 A 
ATOM     15  C   UNL     1      -4.213  -3.059  -3.340  0.00  0.00    +0.008 A 
ATOM     16  C   UNL     1      -4.953  -2.926  -4.500  0.00  0.00    +0.004 A 
ATOM     17  C   UNL     1      -4.999  -3.963  -5.413  0.00  0.00    -0.042 A 
ATOM     18  C   UNL     1      -4.303  -5.132  -5.167  0.00  0.00    +0.004 A 
ATOM     19  C   UNL     1      -3.559  -5.263  -4.009  0.00  0.00    +0.008 A 
BRANCH  17  20
ATOM     20  C   UNL     1      -5.807  -3.819  -6.677  0.00  0.00    -0.013 C 
ATOM     21  C   UNL     1      -5.278  -2.635  -7.488  0.00  0.00    +0.015 C 
ATOM     22  C   UNL     1      -5.688  -5.099  -7.507  0.00  0.00    +0.015 C 
ATOM     23  C   UNL     1      -7.275  -3.578  -6.319  0.00  0.00    +0.015 C 
ENDBRANCH  17  20
ENDBRANCH   4  14
TORSDOF 3
