REMARK  Name = ZINC58309217
REMARK  9 active torsions:
REMARK  status: ('A' for Active; 'I' for Inactive)
REMARK    1  A    between atoms: C_1  and  C_2
REMARK    2  A    between atoms: C_2  and  C_4
REMARK    3  A    between atoms: C_2  and  N_18
REMARK    4  A    between atoms: C_7  and  N_11
REMARK    5  A    between atoms: N_14  and  C_17
REMARK    6  A    between atoms: N_18  and  C_19
REMARK    7  A    between atoms: C_19  and  C_21
REMARK    8  A    between atoms: C_19  and  C_22
REMARK    9  A    between atoms: N_27  and  C_28
REMARK                            x       y       z     vdW  Elec       q    Type
REMARK                         _______ _______ _______ _____ _____    ______ ____
ROOT
ATOM      1  C   UNL     1      -0.019   1.526   0.010  0.00  0.00    +0.029 C 
ATOM      2  C   UNL     1       0.002  -0.004   0.002  0.00  0.00    +0.082 C 
ENDROOT
BRANCH   2   3
ATOM      3  C   UNL     1       0.731  -0.503   1.223  0.00  0.00    -0.028 A 
ATOM      4  C   UNL     1       2.114  -0.513   1.245  0.00  0.00    +0.007 A 
ATOM      5  C   UNL     1       2.786  -0.970   2.362  0.00  0.00    +0.026 A 
ATOM      6  C   UNL     1       2.072  -1.420   3.464  0.00  0.00    +0.065 A 
ATOM      7  C   UNL     1       0.681  -1.409   3.440  0.00  0.00    +0.145 A 
ATOM      8  C   UNL     1       0.015  -0.945   2.321  0.00  0.00    +0.045 A 
ATOM      9  F   UNL     1      -0.017  -1.847   4.511  0.00  0.00    -0.204 F 
BRANCH   6  10
ATOM     10  N   UNL     1       2.750  -1.884   4.596  0.00  0.00    -0.331 N 
ATOM     11  C   UNL     1       3.120  -3.302   4.728  0.00  0.00    +0.086 C 
ATOM     12  C   UNL     1       4.606  -3.383   5.095  0.00  0.00    -0.060 C 
ATOM     13  N   UNL     1       4.858  -2.577   6.295  0.00  0.00    +0.380 N 
ATOM     14  C   UNL     1       4.599  -1.160   6.010  0.00  0.00    -0.060 C 
ATOM     15  C   UNL     1       3.118  -0.967   5.686  0.00  0.00    +0.086 C 
ATOM     16  C   UNL     1       6.257  -2.743   6.710  0.00  0.00    -0.096 C 
ATOM     17  H   UNL     1       4.250  -2.885   7.040  0.00  0.00    -0.082 HD
ENDBRANCH   6  10
ENDBRANCH   2   3
BRANCH   2  18
ATOM     18  N   UNL     1       0.690  -0.478  -1.207  0.00  0.00    -0.299 NA
ATOM     19  H   UNL     1       1.485   0.104  -1.422  0.00  0.00    +0.123 HD
BRANCH  18  20
ATOM     20  C   UNL     1      -0.235  -0.547  -2.346  0.00  0.00    +0.138 C 
ATOM     21  C   UNL     1      -0.975  -1.886  -2.321  0.00  0.00    +0.034 C 
BRANCH  20  22
ATOM     22  C   UNL     1       0.541  -0.425  -3.631  0.00  0.00    +0.237 C 
ATOM     23  O   UNL     1       1.746  -0.294  -3.602  0.00  0.00    -0.274 OA
ATOM     24  N   UNL     1      -0.104  -0.463  -4.814  0.00  0.00    -0.239 N 
ATOM     25  C   UNL     1       0.591  -0.354  -5.964  0.00  0.00    +0.306 C 
ATOM     26  O   UNL     1       1.798  -0.223  -5.935  0.00  0.00    -0.252 OA
ATOM     27  N   UNL     1      -0.054  -0.391  -7.147  0.00  0.00    -0.302 N 
ATOM     28  C   UNL     1       0.700  -0.273  -8.397  0.00  0.00    +0.129 C 
ATOM     29  H   UNL     1      -1.068  -0.568  -4.838  0.00  0.00    +0.159 HD
ATOM     30  H   UNL     1      -1.018  -0.496  -7.171  0.00  0.00    +0.150 HD
ENDBRANCH  20  22
ENDBRANCH  18  20
ENDBRANCH   2  18
TORSDOF 5
