REMARK  Name = ZINC63529312
REMARK  5 active torsions:
REMARK  status: ('A' for Active; 'I' for Inactive)
REMARK    1  A    between atoms: C_4  and  C_29
REMARK    2  A    between atoms: C_5  and  C_7
REMARK    3  A    between atoms: C_16  and  C_18
REMARK    4  A    between atoms: C_18  and  S_19
REMARK    5  A    between atoms: S_19  and  C_20
REMARK                            x       y       z     vdW  Elec       q    Type
REMARK                         _______ _______ _______ _____ _____    ______ ____
ROOT
ATOM      1  C   UNL     1       1.737  -2.106   0.165  0.00  0.00    +0.250 C 
ATOM      2  O   UNL     1       2.885  -2.505   0.167  0.00  0.00    -0.270 OA
ATOM      3  N   UNL     1       0.718  -2.986   0.242  0.00  0.00    -0.261 N 
ATOM      4  C   UNL     1       0.982  -4.351   0.324  0.00  0.00    +0.211 A 
ATOM      5  C   UNL     1      -0.023  -5.416   0.407  0.00  0.00    +0.211 A 
ATOM      6  N   UNL     1       0.596  -6.561   0.470  0.00  0.00    -0.032 NA
ATOM      7  O   UNL     1       1.989  -6.304   0.432  0.00  0.00    -0.239 OA
ATOM      8  N   UNL     1       2.164  -4.902   0.335  0.00  0.00    -0.032 NA
ATOM      9  N   UNL     1      -1.406  -5.234   0.416  0.00  0.00    -0.264 N 
ATOM     10  C   UNL     1      -2.225  -6.301   0.497  0.00  0.00    +0.228 C 
ATOM     11  O   UNL     1      -1.760  -7.420   0.560  0.00  0.00    -0.275 OA
ATOM     12  H   UNL     1      -0.198  -2.668   0.240  0.00  0.00    +0.157 HD
ATOM     13  H   UNL     1      -1.778  -4.340   0.366  0.00  0.00    +0.156 HD
ENDROOT
BRANCH   1  18
ATOM     14  C   UNL     1       0.404   1.318   0.952  0.00  0.00    +0.001 A 
ATOM     15  C   UNL     1       0.930   2.068  -0.085  0.00  0.00    +0.001 A 
ATOM     16  C   UNL     1       1.722   1.471  -1.048  0.00  0.00    +0.016 A 
ATOM     17  C   UNL     1       1.993   0.106  -0.978  0.00  0.00    +0.075 A 
ATOM     18  C   UNL     1       1.457  -0.656   0.077  0.00  0.00    +0.051 A 
ATOM     19  C   UNL     1       0.663  -0.037   1.038  0.00  0.00    +0.014 A 
BRANCH  17  20
ATOM     20  C   UNL     1       2.838  -0.537  -2.005  0.00  0.00    +0.387 C 
ATOM     21  O   UNL     1       3.401   0.146  -2.849  0.00  0.00    -0.241 OA
ATOM     22  O   UNL     1       2.974  -1.752  -2.011  0.00  0.00    -0.241 OA
ENDBRANCH  17  20
ENDBRANCH   1  18
BRANCH  10  23
ATOM     23  C   UNL     1      -3.719  -6.105   0.507  0.00  0.00    +0.169 C 
BRANCH  23  24
ATOM     24  S   UNL     1      -4.540  -7.718   0.622  0.00  0.00    -0.106 S 
BRANCH  24  25
ATOM     25  C   UNL     1      -6.308  -7.312   0.623  0.00  0.00    +0.236 C 
ATOM     26  N   UNL     1      -6.649  -6.541  -0.579  0.00  0.00    -0.355 N 
ATOM     27  C   UNL     1      -7.105  -5.387  -0.186  0.00  0.00    +0.061 A 
ATOM     28  C   UNL     1      -7.599  -4.208  -0.911  0.00  0.00    +0.027 A 
ATOM     29  C   UNL     1      -8.018  -3.129  -0.220  0.00  0.00    +0.002 A 
ATOM     30  C   UNL     1      -8.005  -3.077   1.185  0.00  0.00    +0.002 A 
ATOM     31  C   UNL     1      -7.573  -4.102   1.947  0.00  0.00    +0.027 A 
ATOM     32  C   UNL     1      -7.091  -5.331   1.302  0.00  0.00    +0.061 A 
ATOM     33  N   UNL     1      -6.627  -6.453   1.771  0.00  0.00    -0.355 N 
ATOM     34  H   UNL     1      -6.552  -6.837  -1.497  0.00  0.00    +0.162 HD
ATOM     35  H   UNL     1      -6.513  -6.681   2.707  0.00  0.00    +0.162 HD
ENDBRANCH  24  25
ENDBRANCH  23  24
ENDBRANCH  10  23
TORSDOF 5
