REMARK  Name = ZINC00034496
REMARK  8 active torsions:
REMARK  status: ('A' for Active; 'I' for Inactive)
REMARK    1  A    between atoms: C_1  and  C_2
REMARK    2  A    between atoms: C_2  and  O_3
REMARK    3  A    between atoms: O_3  and  C_4
REMARK    4  A    between atoms: C_9  and  O_10
REMARK    5  A    between atoms: O_10  and  C_11
REMARK    6  A    between atoms: C_11  and  C_12
REMARK    7  A    between atoms: C_13  and  C_17
REMARK    8  A    between atoms: C_20  and  O_23
REMARK                            x       y       z     vdW  Elec       q    Type
REMARK                         _______ _______ _______ _____ _____    ______ ____
ROOT
ATOM      1  C   UNL     1      -1.192  -0.719   0.010  0.00  0.00    +0.162 A 
ATOM      2  C   UNL     1      -1.162  -2.103   0.000  0.00  0.00    +0.053 A 
ATOM      3  C   UNL     1       0.050  -2.778  -0.017  0.00  0.00    -0.044 A 
ATOM      4  C   UNL     1       1.233  -2.070  -0.021  0.00  0.00    -0.050 A 
ATOM      5  C   UNL     1       1.208  -0.682  -0.019  0.00  0.00    +0.052 A 
ATOM      6  C   UNL     1       0.002  -0.004   0.002  0.00  0.00    +0.162 A 
ATOM      7  C   UNL     1       2.572  -2.760  -0.032  0.00  0.00    -0.010 C 
ATOM      8  C   UNL     1       1.402  -4.830   0.359  0.00  0.00    -0.077 C 
ATOM      9  C   UNL     1       0.030  -4.285  -0.037  0.00  0.00    +0.016 C 
ATOM     10  N   UNL     1       2.429  -4.159  -0.459  0.00  0.00    +0.386 N 
ATOM     11  H   UNL     1       3.327  -4.643  -0.344  0.00  0.00    -0.085 HD
ATOM     12  H   UNL     1       2.149  -4.186  -1.446  0.00  0.00    -0.085 HD
ENDROOT
BRANCH   7  13
ATOM     13  C   UNL     1       3.492  -2.045  -0.988  0.00  0.00    -0.057 A 
ATOM     14  C   UNL     1       3.398  -2.286  -2.346  0.00  0.00    +0.006 A 
ATOM     15  C   UNL     1       4.237  -1.627  -3.225  0.00  0.00    +0.045 A 
ATOM     16  C   UNL     1       5.182  -0.734  -2.742  0.00  0.00    +0.117 A 
ATOM     17  C   UNL     1       5.278  -0.498  -1.378  0.00  0.00    +0.045 A 
ATOM     18  C   UNL     1       4.433  -1.155  -0.504  0.00  0.00    +0.006 A 
BRANCH  16  19
ATOM     19  O   UNL     1       6.013  -0.090  -3.604  0.00  0.00    -0.507 OA
ATOM     20  H   UNL     1       6.838  -0.561  -3.781  0.00  0.00    +0.292 HD
ENDBRANCH  16  19
ENDBRANCH   7  13
BRANCH   1  21
ATOM     21  O   UNL     1      -2.382  -0.062   0.026  0.00  0.00    -0.489 OA
BRANCH  21  23
ATOM     22  C   UNL     1      -4.796   0.046   0.051  0.00  0.00    +0.048 C 
ATOM     23  C   UNL     1      -3.566  -0.863   0.033  0.00  0.00    +0.226 C 
ENDBRANCH  21  23
ENDBRANCH   1  21
BRANCH   6  24
ATOM     24  O   UNL     1      -0.016   1.356   0.009  0.00  0.00    -0.489 OA
BRANCH  24  25
ATOM     25  C   UNL     1       1.248   2.022   0.001  0.00  0.00    +0.226 C 
ATOM     26  C   UNL     1       1.027   3.536   0.011  0.00  0.00    +0.048 C 
ENDBRANCH  24  25
ENDBRANCH   6  24
TORSDOF 6
