REMARK  Name = ZINC47144382
REMARK  5 active torsions:
REMARK  status: ('A' for Active; 'I' for Inactive)
REMARK    1  A    between atoms: C_3  and  C_6
REMARK    2  A    between atoms: N_8  and  N_9
REMARK    3  A    between atoms: N_12  and  C_13
REMARK    4  A    between atoms: C_13  and  C_14
REMARK    5  A    between atoms: C_14  and  C_15
REMARK                            x       y       z     vdW  Elec       q    Type
REMARK                         _______ _______ _______ _____ _____    ______ ____
ROOT
ATOM      1  N   UNL     1       6.046   1.141  -0.050  0.00  0.00    -0.218 N 
ATOM      2  C   UNL     1       7.024   0.214  -0.064  0.00  0.00    +0.316 C 
ATOM      3  O   UNL     1       8.190   0.560  -0.073  0.00  0.00    -0.251 OA
ATOM      4  N   UNL     1       6.710  -1.096  -0.068  0.00  0.00    -0.298 N 
ATOM      5  H   UNL     1       6.272   2.085  -0.047  0.00  0.00    +0.174 HD
ATOM      6  H   UNL     1       5.780  -1.372  -0.060  0.00  0.00    +0.150 HD
ENDROOT
BRANCH   1   9
ATOM      7  C   UNL     1       3.725   1.670  -0.025  0.00  0.00    +0.267 C 
ATOM      8  O   UNL     1       4.008   2.853  -0.021  0.00  0.00    -0.268 OA
ATOM      9  N   UNL     1       4.703   0.743  -0.039  0.00  0.00    -0.229 N 
ATOM     10  H   UNL     1       4.477  -0.201  -0.042  0.00  0.00    +0.173 HD
BRANCH   7  13
ATOM     11  C   UNL     1      -0.016   1.352   0.009  0.00  0.00    +0.008 A 
ATOM     12  C   UNL     1       1.175   2.036   0.002  0.00  0.00    +0.021 A 
ATOM     13  C   UNL     1       2.320   1.253  -0.013  0.00  0.00    +0.075 A 
ATOM     14  S   UNL     1       1.636  -0.394  -0.016  0.00  0.00    -0.092 S 
ATOM     15  C   UNL     1       0.002  -0.004   0.002  0.00  0.00    +0.046 A 
ENDBRANCH   7  13
ENDBRANCH   1   9
BRANCH   4  16
ATOM     16  C   UNL     1       7.773  -2.104  -0.084  0.00  0.00    +0.111 C 
BRANCH  16  17
ATOM     17  C   UNL     1       7.151  -3.502  -0.085  0.00  0.00    +0.061 C 
BRANCH  17  18
ATOM     18  C   UNL     1       8.245  -4.539  -0.101  0.00  0.00    -0.007 A 
ATOM     19  C   UNL     1       8.870  -5.135   0.943  0.00  0.00    +0.013 A 
ATOM     20  C   UNL     1       9.857  -6.070   0.688  0.00  0.00    +0.028 A 
ATOM     21  C   UNL     1      10.169  -6.361  -0.599  0.00  0.00    +0.078 A 
ATOM     22  S   UNL     1       9.047  -5.305  -1.500  0.00  0.00    -0.082 S 
ATOM     23 CL   UNL     1      11.349  -7.477  -1.212  0.00  0.00    -0.076 Cl
ENDBRANCH  17  18
ENDBRANCH  16  17
ENDBRANCH   4  16
TORSDOF 5
