REMARK  Name = ZINC62237082
REMARK  5 active torsions:
REMARK  status: ('A' for Active; 'I' for Inactive)
REMARK    1  A    between atoms: C_1  and  C_2
REMARK    2  A    between atoms: C_3  and  N_9
REMARK    3  A    between atoms: C_10  and  C_16
REMARK    4  A    between atoms: C_11  and  C_14
REMARK    5  A    between atoms: C_14  and  N_15
REMARK                            x       y       z     vdW  Elec       q    Type
REMARK                         _______ _______ _______ _____ _____    ______ ____
ROOT
ATOM      1  N   UNL     1      -0.177  -0.116  -2.481  0.00  0.00    -0.212 N 
ATOM      2  C   UNL     1      -0.353  -0.712  -3.701  0.00  0.00    +0.096 A 
ATOM      3  C   UNL     1      -0.357   0.291  -4.624  0.00  0.00    +0.074 A 
ATOM      4  N   UNL     1      -0.191   1.453  -3.997  0.00  0.00    -0.135 NA
ATOM      5  N   UNL     1      -0.086   1.262  -2.728  0.00  0.00    -0.060 NA
ENDROOT
BRANCH   1   8
ATOM      6  C   UNL     1      -1.777   0.903  -0.358  0.00  0.00    +0.047 C 
ATOM      7  C   UNL     1      -0.873  -0.288  -0.172  0.00  0.00    -0.007 A 
ATOM      8  C   UNL     1      -0.108  -0.753  -1.234  0.00  0.00    +0.072 A 
ATOM      9  C   UNL     1       0.724  -1.850  -1.059  0.00  0.00    +0.028 A 
ATOM     10  C   UNL     1       0.790  -2.477   0.170  0.00  0.00    +0.004 A 
ATOM     11  C   UNL     1       0.028  -2.013   1.226  0.00  0.00    +0.020 A 
ATOM     12  C   UNL     1      -0.799  -0.916   1.057  0.00  0.00    +0.046 A 
ATOM     13 CL   UNL     1      -1.749  -0.332   2.387  0.00  0.00    -0.083 Cl
ENDBRANCH   1   8
BRANCH   2  14
ATOM     14  C   UNL     1      -0.507  -2.160  -3.966  0.00  0.00    +0.005 A 
ATOM     15  C   UNL     1       0.335  -2.799  -4.878  0.00  0.00    +0.010 A 
ATOM     16  C   UNL     1       0.188  -4.149  -5.121  0.00  0.00    +0.003 A 
ATOM     17  C   UNL     1      -0.792  -4.871  -4.463  0.00  0.00    +0.038 A 
ATOM     18  C   UNL     1      -1.632  -4.243  -3.557  0.00  0.00    +0.124 A 
ATOM     19  C   UNL     1      -1.490  -2.893  -3.301  0.00  0.00    +0.048 A 
ATOM     20  F   UNL     1      -2.587  -4.954  -2.919  0.00  0.00    -0.205 F 
ENDBRANCH   2  14
BRANCH   3  21
ATOM     21  C   UNL     1      -0.523   0.114  -6.112  0.00  0.00    -0.026 C 
BRANCH  21  22
ATOM     22  N   UNL     1      -1.953   0.057  -6.442  0.00  0.00    +0.382 N 
ATOM     23  H   UNL     1      -2.064  -0.142  -7.425  0.00  0.00    -0.090 HD
ATOM     24  H   UNL     1      -2.395  -0.670  -5.899  0.00  0.00    -0.090 HD
ATOM     25  H   UNL     1      -2.383   0.945  -6.229  0.00  0.00    -0.090 HD
ENDBRANCH  21  22
ENDBRANCH   3  21
TORSDOF 4
