REMARK  Name = ZINC35340289
REMARK  6 active torsions:
REMARK  status: ('A' for Active; 'I' for Inactive)
REMARK    1  A    between atoms: C_1  and  N_2
REMARK    2  A    between atoms: N_2  and  S_3
REMARK    3  A    between atoms: S_3  and  C_6
REMARK    4  A    between atoms: C_9  and  O_13
REMARK    5  A    between atoms: C_10  and  N_12
REMARK    6  A    between atoms: O_13  and  C_14
REMARK                            x       y       z     vdW  Elec       q    Type
REMARK                         _______ _______ _______ _____ _____    ______ ____
ROOT
ATOM      1  C   UNL     1       2.445  -0.467  -1.170  0.00  0.00    +0.107 A 
ATOM      2  C   UNL     1       2.922   0.610  -1.894  0.00  0.00    +0.032 A 
ATOM      3  C   UNL     1       4.269   0.922  -1.870  0.00  0.00    +0.050 A 
ATOM      4  C   UNL     1       5.144   0.156  -1.118  0.00  0.00    +0.149 A 
ATOM      5  C   UNL     1       4.664  -0.929  -0.388  0.00  0.00    +0.069 A 
ATOM      6  C   UNL     1       3.311  -1.233  -0.413  0.00  0.00    +0.055 A 
ENDROOT
BRANCH   1   7
ATOM      7  S   UNL     1       0.727  -0.858  -1.206  0.00  0.00    +0.058 S 
ATOM      8  O   UNL     1       0.617  -2.235  -0.874  0.00  0.00    -0.153 OA
ATOM      9  O   UNL     1       0.214  -0.323  -2.418  0.00  0.00    -0.153 OA
BRANCH   7  11
ATOM     10  C   UNL     1      -0.023   1.448  -0.009  0.00  0.00    +0.127 C 
ATOM     11  N   UNL     1       0.007  -0.016   0.025  0.00  0.00    -0.193 NA
ATOM     12  H   UNL     1      -0.395  -0.492   0.768  0.00  0.00    +0.148 HD
ENDBRANCH   7  11
ENDBRANCH   1   7
BRANCH   5  13
ATOM     13  N   UNL     1       5.544  -1.707   0.373  0.00  0.00    -0.355 N 
ATOM     14  H   UNL     1       6.489  -1.492   0.393  0.00  0.00    +0.142 HD
ATOM     15  H   UNL     1       5.208  -2.462   0.882  0.00  0.00    +0.142 HD
ENDBRANCH   5  13
BRANCH   4  16
ATOM     16  O   UNL     1       6.469   0.461  -1.094  0.00  0.00    -0.453 OA
BRANCH  16  17
ATOM     17  C   UNL     1       7.301  -0.245  -1.903  0.00  0.00    +0.148 A 
ATOM     18  C   UNL     1       6.781  -1.161  -2.807  0.00  0.00    +0.048 A 
ATOM     19  C   UNL     1       7.628  -1.878  -3.629  0.00  0.00    +0.005 A 
ATOM     20  C   UNL     1       8.995  -1.685  -3.553  0.00  0.00    +0.022 A 
ATOM     21  C   UNL     1       9.519  -0.773  -2.653  0.00  0.00    +0.063 A 
ATOM     22  C   UNL     1       8.674  -0.048  -1.832  0.00  0.00    +0.101 A 
ATOM     23 CL   UNL     1       9.329   1.102  -0.709  0.00  0.00    -0.078 Cl
ATOM     24 CL   UNL     1      11.236  -0.534  -2.559  0.00  0.00    -0.082 Cl
ENDBRANCH  16  17
ENDBRANCH   4  16
TORSDOF 5
