REMARK  Name = ZINC39722412
REMARK  6 active torsions:
REMARK  status: ('A' for Active; 'I' for Inactive)
REMARK    1  A    between atoms: C_2  and  C_3
REMARK    2  A    between atoms: C_3  and  N_4
REMARK    3  A    between atoms: C_5  and  S_17
REMARK    4  A    between atoms: S_17  and  C_18
REMARK    5  A    between atoms: C_18  and  C_19
REMARK    6  A    between atoms: C_27  and  C_31
REMARK                            x       y       z     vdW  Elec       q    Type
REMARK                         _______ _______ _______ _____ _____    ______ ____
ROOT
ATOM      1  S   UNL     1       3.676  -1.602   2.473  0.00  0.00    -0.111 S 
ENDROOT
BRANCH   1   3
ATOM      2  N   UNL     1       1.367  -1.676   1.111  0.00  0.00    -0.266 N 
ATOM      3  C   UNL     1       1.903  -1.226   2.396  0.00  0.00    +0.223 C 
ATOM      4  N   UNL     1       1.217  -1.906   3.501  0.00  0.00    -0.317 N 
ATOM      5  C   UNL     1       0.974  -3.271   3.398  0.00  0.00    +0.043 A 
ATOM      6  C   UNL     1       0.899  -4.084   4.515  0.00  0.00    +0.043 A 
ATOM      7  C   UNL     1       0.639  -5.434   4.363  0.00  0.00    +0.043 A 
ATOM      8  C   UNL     1       0.451  -5.978   3.101  0.00  0.00    +0.021 A 
ATOM      9  C   UNL     1       0.529  -5.182   1.977  0.00  0.00    +0.016 A 
ATOM     10  C   UNL     1       0.798  -3.822   2.116  0.00  0.00    +0.058 A 
ATOM     11  C   UNL     1       0.914  -2.934   0.947  0.00  0.00    +0.251 C 
ATOM     12  O   UNL     1       0.607  -3.336  -0.159  0.00  0.00    -0.270 OA
ATOM     13 CL   UNL     1       0.545  -6.456   5.764  0.00  0.00    -0.083 Cl
ATOM     14  H   UNL     1       0.939  -1.413   4.288  0.00  0.00    +0.149 HD
BRANCH   2  15
ATOM     15  C   UNL     1       1.317  -0.740  -0.015  0.00  0.00    +0.137 C 
BRANCH  15  17
ATOM     16  C   UNL     1      -0.016   1.306   0.009  0.00  0.00    +0.005 C 
ATOM     17  C   UNL     1       0.002  -0.004   0.002  0.00  0.00    -0.016 C 
ENDBRANCH  15  17
ENDBRANCH   2  15
ENDBRANCH   1   3
BRANCH   1  18
ATOM     18  C   UNL     1       3.750  -3.406   2.294  0.00  0.00    +0.146 C 
BRANCH  18  19
ATOM     19  C   UNL     1       5.187  -3.857   2.341  0.00  0.00    +0.120 A 
ATOM     20  N   UNL     1       5.450  -5.184   2.217  0.00  0.00    -0.310 N 
ATOM     21  H   UNL     1       4.718  -5.810   2.102  0.00  0.00    +0.170 HD
ATOM     22  C   UNL     1       6.723  -5.640   2.252  0.00  0.00    +0.259 A 
ATOM     23  O   UNL     1       6.973  -6.826   2.142  0.00  0.00    -0.267 OA
ATOM     24  C   UNL     1       7.795  -4.645   2.429  0.00  0.00    +0.065 A 
ATOM     25  C   UNL     1       9.139  -5.014   2.477  0.00  0.00    +0.016 A 
ATOM     26  C   UNL     1      10.101  -4.059   2.642  0.00  0.00    +0.016 A 
ATOM     27  C   UNL     1       9.750  -2.708   2.762  0.00  0.00    +0.065 A 
ATOM     28  C   UNL     1       8.416  -2.319   2.717  0.00  0.00    +0.043 A 
ATOM     29  C   UNL     1       7.425  -3.288   2.548  0.00  0.00    +0.079 A 
ATOM     30  N   UNL     1       6.110  -2.957   2.492  0.00  0.00    -0.233 NA
BRANCH  27  31
ATOM     31  C   UNL     1      10.806  -1.689   2.939  0.00  0.00    +0.387 C 
ATOM     32  O   UNL     1      11.980  -2.026   2.981  0.00  0.00    -0.241 OA
ATOM     33  O   UNL     1      10.505  -0.509   3.045  0.00  0.00    -0.241 OA
ENDBRANCH  27  31
ENDBRANCH  18  19
ENDBRANCH   1  18
TORSDOF 6
