REMARK  Name = ZINC04012912
REMARK  8 active torsions:
REMARK  status: ('A' for Active; 'I' for Inactive)
REMARK    1  A    between atoms: C_4  and  C_7
REMARK    2  A    between atoms: C_7  and  O_9
REMARK    3  A    between atoms: O_9  and  C_10
REMARK    4  A    between atoms: C_10  and  C_11
REMARK    5  A    between atoms: C_13  and  O_29
REMARK    6  A    between atoms: C_15  and  O_28
REMARK    7  A    between atoms: C_17  and  N_20
REMARK    8  A    between atoms: C_24  and  N_27
REMARK                            x       y       z     vdW  Elec       q    Type
REMARK                         _______ _______ _______ _____ _____    ______ ____
ROOT
ATOM      1  C   UNL     1       4.803  -4.155  -0.042  0.00  0.00    +0.189 C 
ATOM      2  C   UNL     1       6.178  -4.855  -0.180  0.00  0.00    +0.179 C 
ATOM      3  C   UNL     1       5.868  -6.241   0.447  0.00  0.00    +0.194 C 
ATOM      4  C   UNL     1       4.852  -5.881   1.552  0.00  0.00    +0.259 C 
ATOM      5  O   UNL     1       4.270  -4.616   1.210  0.00  0.00    -0.345 OA
ENDROOT
BRANCH   4   6
ATOM      6  N   UNL     1       3.808  -6.906   1.621  0.00  0.00    -0.175 N 
ATOM      7  C   UNL     1       3.459  -7.439   2.808  0.00  0.00    +0.326 C 
ATOM      8  O   UNL     1       4.013  -7.066   3.825  0.00  0.00    -0.251 OA
ATOM      9  N   UNL     1       2.500  -8.381   2.876  0.00  0.00    -0.257 N 
ATOM     10  C   UNL     1       1.849  -8.824   1.718  0.00  0.00    +0.088 C 
ATOM     11  C   UNL     1       2.171  -8.319   0.536  0.00  0.00    +0.125 C 
ATOM     12  N   UNL     1       3.163  -7.334   0.451  0.00  0.00    -0.263 N 
ATOM     13  H   UNL     1       2.257  -8.758   3.737  0.00  0.00    +0.158 HD
ATOM     14  H   UNL     1       3.403  -6.954  -0.408  0.00  0.00    +0.170 HD
BRANCH  10  15
ATOM     15  N   UNL     1       0.856  -9.803   1.809  0.00  0.00    -0.404 NA
ATOM     16  H   UNL     1      -0.041  -9.361   1.942  0.00  0.00    +0.122 HD
ATOM     17  H   UNL     1       0.841 -10.347   0.959  0.00  0.00    +0.122 HD
ATOM     18  H   UNL     1       1.052 -10.409   2.591  0.00  0.00    +0.122 HD
ENDBRANCH  10  15
ENDBRANCH   4   6
BRANCH   3  19
ATOM     19  O   UNL     1       5.286  -7.118  -0.519  0.00  0.00    -0.385 OA
ATOM     20  H   UNL     1       5.857  -7.304  -1.277  0.00  0.00    +0.210 HD
ENDBRANCH   3  19
BRANCH   2  21
ATOM     21  O   UNL     1       6.555  -4.983  -1.553  0.00  0.00    -0.386 OA
ATOM     22  H   UNL     1       7.410  -5.415  -1.688  0.00  0.00    +0.210 HD
ENDBRANCH   2  21
BRANCH   1  23
ATOM     23  C   UNL     1       4.981  -2.636  -0.016  0.00  0.00    +0.266 C 
BRANCH  23  24
ATOM     24  O   UNL     1       3.698  -2.007   0.028  0.00  0.00    -0.458 OA
BRANCH  24  25
ATOM     25  C   UNL     1       3.678  -0.660   0.055  0.00  0.00    +0.339 C 
ATOM     26  O   UNL     1       4.720  -0.037   0.042  0.00  0.00    -0.245 OA
BRANCH  25  30
ATOM     27  C   UNL     1      -0.030   1.405   0.185  0.00  0.00    +0.000 A 
ATOM     28  C   UNL     1       1.155   2.119   0.171  0.00  0.00    +0.001 A 
ATOM     29  C   UNL     1       2.363   1.454   0.129  0.00  0.00    +0.015 A 
ATOM     30  C   UNL     1       2.388   0.058   0.101  0.00  0.00    +0.059 A 
ATOM     31  C   UNL     1       1.188  -0.655   0.115  0.00  0.00    +0.015 A 
ATOM     32  C   UNL     1      -0.013   0.022   0.157  0.00  0.00    +0.001 A 
ENDBRANCH  25  30
ENDBRANCH  24  25
ENDBRANCH  23  24
ENDBRANCH   1  23
TORSDOF 8
