REMARK  Name = ZINC44037768
REMARK  4 active torsions:
REMARK  status: ('A' for Active; 'I' for Inactive)
REMARK    1  A    between atoms: C_1  and  N_2
REMARK    2  A    between atoms: N_2  and  C_3
REMARK    3  A    between atoms: C_13  and  N_15
REMARK    4  A    between atoms: C_18  and  C_20
REMARK                            x       y       z     vdW  Elec       q    Type
REMARK                         _______ _______ _______ _____ _____    ______ ____
ROOT
ATOM      1  C   UNL     1       0.694  -0.382   1.242  0.00  0.00    -0.010 C 
ATOM      2  C   UNL     1       2.104   0.151   1.211  0.00  0.00    -0.018 A 
ATOM      3  C   UNL     1       2.322   1.433   0.736  0.00  0.00    +0.005 A 
ATOM      4  C   UNL     1       3.600   1.955   0.697  0.00  0.00    +0.000 A 
ATOM      5  C   UNL     1       4.670   1.196   1.135  0.00  0.00    +0.004 A 
ATOM      6  C   UNL     1       4.459  -0.083   1.609  0.00  0.00    +0.046 A 
ATOM      7  C   UNL     1       3.173  -0.612   1.647  0.00  0.00    +0.122 A 
ATOM      8  O   UNL     1       3.007  -1.879   2.110  0.00  0.00    -0.490 OA
ATOM      9  C   UNL     1       1.691  -2.282   2.493  0.00  0.00    +0.254 C 
ATOM     10  C   UNL     1       0.723  -1.907   1.364  0.00  0.00    +0.135 C 
ENDROOT
BRANCH  10  11
ATOM     11  N   UNL     1       1.183  -2.495   0.103  0.00  0.00    -0.266 N 
ATOM     12  C   UNL     1       2.468  -2.684  -0.263  0.00  0.00    +0.109 A 
ATOM     13  C   UNL     1       2.468  -3.250  -1.492  0.00  0.00    +0.053 A 
ATOM     14  C   UNL     1       1.137  -3.413  -1.891  0.00  0.00    +0.165 A 
ATOM     15  N   UNL     1       0.366  -2.966  -0.933  0.00  0.00    -0.167 NA
BRANCH  14  16
ATOM     16  C   UNL     1       0.672  -4.007  -3.195  0.00  0.00    +0.436 C 
ATOM     17  F   UNL     1       0.509  -5.388  -3.047  0.00  0.00    -0.164 F 
ATOM     18  F   UNL     1      -0.549  -3.430  -3.561  0.00  0.00    -0.164 F 
ATOM     19  F   UNL     1       1.623  -3.753  -4.189  0.00  0.00    -0.164 F 
ENDBRANCH  14  16
ENDBRANCH  10  11
BRANCH   1  21
ATOM     20  C   UNL     1      -1.409  -0.402   0.088  0.00  0.00    -0.100 C 
ATOM     21  N   UNL     1       0.002  -0.004   0.002  0.00  0.00    +0.383 N 
ATOM     22  H   UNL     1       0.435  -0.470  -0.781  0.00  0.00    -0.085 HD
ATOM     23  H   UNL     1       0.063   0.995  -0.126  0.00  0.00    -0.085 HD
ENDBRANCH   1  21
TORSDOF 3
