REMARK  Name = ZINC40127524
REMARK  9 active torsions:
REMARK  status: ('A' for Active; 'I' for Inactive)
REMARK    1  A    between atoms: C_1  and  C_2
REMARK    2  A    between atoms: C_5  and  C_8
REMARK    3  A    between atoms: C_8  and  O_9
REMARK    4  A    between atoms: O_9  and  C_10
REMARK    5  A    between atoms: C_13  and  C_16
REMARK    6  A    between atoms: C_16  and  C_18
REMARK    7  A    between atoms: C_23  and  C_25
REMARK    8  A    between atoms: C_30  and  O_31
REMARK    9  A    between atoms: O_31  and  C_32
REMARK                            x       y       z     vdW  Elec       q    Type
REMARK                         _______ _______ _______ _____ _____    ______ ____
ROOT
ATOM      1  C   UNL     1       2.264 -10.798  -0.275  0.00  0.00    +0.195 C 
ATOM      2  O   UNL     1       1.461 -11.707  -0.179  0.00  0.00    -0.287 OA
ENDROOT
BRANCH   1   3
ATOM      3  C   UNL     1       3.702 -11.085  -0.254  0.00  0.00    +0.076 C 
ATOM      4  C   UNL     1       4.403 -11.764  -1.192  0.00  0.00    +0.249 C 
ATOM      5  C   UNL     1       5.822 -11.827  -0.785  0.00  0.00    +0.285 C 
ATOM      6  O   UNL     1       6.705 -12.371  -1.419  0.00  0.00    -0.267 OA
ATOM      7  N   UNL     1       5.992 -11.194   0.389  0.00  0.00    -0.297 N 
ATOM      8  C   UNL     1       4.688 -10.674   0.814  0.00  0.00    +0.145 C 
ATOM      9  O   UNL     1       3.886 -12.299  -2.322  0.00  0.00    -0.282 OA
ATOM     10  H   UNL     1       6.830 -11.095   0.869  0.00  0.00    +0.150 HD
BRANCH   8  11
ATOM     11  C   UNL     1       4.298 -11.278   2.139  0.00  0.00    +0.020 A 
ATOM     12  C   UNL     1       4.838 -12.488   2.531  0.00  0.00    +0.024 A 
ATOM     13  C   UNL     1       4.481 -13.044   3.747  0.00  0.00    +0.018 A 
ATOM     14  C   UNL     1       3.583 -12.390   4.572  0.00  0.00    +0.019 A 
ATOM     15  C   UNL     1       3.042 -11.180   4.183  0.00  0.00    +0.047 A 
ATOM     16  C   UNL     1       3.402 -10.618   2.967  0.00  0.00    +0.125 A 
ATOM     17 BR   UNL     1       5.221 -14.700   4.281  0.00  0.00    -0.050 Br
BRANCH  16  18
ATOM     18  O   UNL     1       2.874  -9.426   2.584  0.00  0.00    -0.495 OA
ATOM     19  C   UNL     1       1.872  -8.859   3.431  0.00  0.00    +0.277 C 
ENDBRANCH  16  18
ENDBRANCH   8  11
ENDBRANCH   1   3
BRANCH   1  23
ATOM     20  C   UNL     1       0.903  -6.794  -0.668  0.00  0.00    +0.121 A 
ATOM     21  C   UNL     1      -0.015  -7.838  -0.633  0.00  0.00    +0.046 A 
ATOM     22  C   UNL     1       0.422  -9.137  -0.505  0.00  0.00    +0.015 A 
ATOM     23  C   UNL     1       1.791  -9.406  -0.412  0.00  0.00    +0.022 A 
ATOM     24  C   UNL     1       2.711  -8.354  -0.449  0.00  0.00    +0.015 A 
ATOM     25  C   UNL     1       2.265  -7.058  -0.582  0.00  0.00    +0.046 A 
BRANCH  20  26
ATOM     26  O   UNL     1       0.468  -5.515  -0.794  0.00  0.00    -0.487 OA
BRANCH  26  27
ATOM     27  C   UNL     1      -0.945  -5.315  -0.878  0.00  0.00    +0.264 C 
BRANCH  27  32
ATOM     28  C   UNL     1      -2.068   0.330  -1.395  0.00  0.00    +0.044 C 
ATOM     29  C   UNL     1      -1.775  -1.142  -1.260  0.00  0.00    -0.050 A 
ATOM     30  C   UNL     1      -1.582  -1.915  -2.390  0.00  0.00    +0.004 A 
ATOM     31  C   UNL     1      -1.313  -3.265  -2.267  0.00  0.00    +0.007 A 
ATOM     32  C   UNL     1      -1.237  -3.843  -1.013  0.00  0.00    -0.010 A 
ATOM     33  C   UNL     1      -1.428  -3.070   0.117  0.00  0.00    +0.007 A 
ATOM     34  C   UNL     1      -1.693  -1.719  -0.007  0.00  0.00    +0.004 A 
ENDBRANCH  27  32
ENDBRANCH  26  27
ENDBRANCH  20  26
ENDBRANCH   1  23
TORSDOF 7
