REMARK  Name = ZINC63832552
REMARK  4 active torsions:
REMARK  status: ('A' for Active; 'I' for Inactive)
REMARK    1  A    between atoms: C_1  and  C_2
REMARK    2  A    between atoms: C_2  and  C_3
REMARK    3  A    between atoms: C_2  and  C_4
REMARK    4  A    between atoms: N_9  and  C_12
REMARK                            x       y       z     vdW  Elec       q    Type
REMARK                         _______ _______ _______ _____ _____    ______ ____
ROOT
ATOM      1  C   UNL     1      -1.387  -0.592   0.148  0.00  0.00    +0.091 C 
ATOM      2  N   UNL     1      -1.752  -1.765  -0.407  0.00  0.00    -0.320 N 
ATOM      3  C   UNL     1      -3.201  -1.876  -0.196  0.00  0.00    +0.114 C 
ATOM      4  C   UNL     1      -3.529  -3.098   0.655  0.00  0.00    +0.051 C 
ATOM      5  C   UNL     1      -5.046  -3.195   0.840  0.00  0.00    +0.089 C 
ATOM      6  N   UNL     1      -5.694  -3.279  -0.475  0.00  0.00    -0.277 NA
ATOM      7  C   UNL     1      -5.441  -2.072  -1.273  0.00  0.00    +0.089 C 
ATOM      8  C   UNL     1      -3.937  -1.937  -1.529  0.00  0.00    +0.051 C 
ATOM      9  C   UNL     1      -3.548  -0.605   0.545  0.00  0.00    +0.261 C 
ATOM     10  O   UNL     1      -4.644  -0.256   0.936  0.00  0.00    -0.271 OA
ATOM     11  N   UNL     1      -2.388   0.051   0.682  0.00  0.00    -0.168 NA
ATOM     12  H   UNL     1      -1.176  -2.404  -0.855  0.00  0.00    +0.148 HD
ENDROOT
BRANCH   6  13
ATOM     13  C   UNL     1      -7.136  -3.525  -0.336  0.00  0.00    +0.214 C 
ATOM     14  C   UNL     1      -7.325  -4.895   0.262  0.00  0.00    +0.055 C 
ATOM     15  C   UNL     1      -6.995  -6.154  -0.036  0.00  0.00    +0.145 C 
ATOM     16  N   UNL     1      -7.473  -6.961   0.934  0.00  0.00    -0.155 NA
ATOM     17  N   UNL     1      -8.096  -6.303   1.849  0.00  0.00    -0.131 NA
ATOM     18  C   UNL     1      -8.075  -4.973   1.541  0.00  0.00    +0.164 C 
ATOM     19  N   UNL     1      -8.526  -3.875   2.077  0.00  0.00    -0.311 N 
ATOM     20  C   UNL     1      -8.354  -2.650   1.537  0.00  0.00    +0.189 C 
ATOM     21  N   UNL     1      -7.724  -2.409   0.430  0.00  0.00    -0.230 NA
ATOM     22  N   UNL     1      -8.889  -1.572   2.217  0.00  0.00    -0.329 N 
ATOM     23  H   UNL     1      -9.366  -1.712   3.050  0.00  0.00    +0.145 HD
ATOM     24  H   UNL     1      -8.787  -0.675   1.862  0.00  0.00    +0.145 HD
ATOM     25  H   UNL     1      -9.015  -3.942   2.913  0.00  0.00    +0.170 HD
ENDBRANCH   6  13
BRANCH   1  27
ATOM     26  C   UNL     1       0.020   1.446   0.269  0.00  0.00    +0.015 C 
ATOM     27  C   UNL     1       0.030  -0.079   0.156  0.00  0.00    +0.044 C 
ATOM     28  C   UNL     1       0.780  -0.674   1.350  0.00  0.00    +0.015 C 
ENDBRANCH   1  27
TORSDOF 2
