REMARK  Name = ZINC64120295
REMARK  5 active torsions:
REMARK  status: ('A' for Active; 'I' for Inactive)
REMARK    1  A    between atoms: C_1  and  C_2
REMARK    2  A    between atoms: C_17  and  C_19
REMARK    3  A    between atoms: C_22  and  O_25
REMARK    4  A    between atoms: O_25  and  C_26
REMARK    5  A    between atoms: C_26  and  C_27
REMARK                            x       y       z     vdW  Elec       q    Type
REMARK                         _______ _______ _______ _____ _____    ______ ____
ROOT
ATOM      1  C   UNL     1       0.268   1.558  -0.117  0.00  0.00    +0.030 C 
ATOM      2  C   UNL     1      -0.635   0.483   0.492  0.00  0.00    +0.100 C 
ATOM      3  C   UNL     1      -1.974   1.104   0.905  0.00  0.00    +0.126 C 
ATOM      4  C   UNL     1      -2.693   0.062   1.752  0.00  0.00    -0.035 C 
ATOM      5  C   UNL     1      -3.870  -0.143   1.174  0.00  0.00    -0.001 A 
ATOM      6  C   UNL     1      -5.019  -0.978   1.562  0.00  0.00    +0.010 A 
ATOM      7  C   UNL     1      -6.083  -0.963   0.716  0.00  0.00    +0.001 A 
ATOM      8  C   UNL     1      -6.119  -0.210  -0.462  0.00  0.00    +0.002 A 
ATOM      9  C   UNL     1      -5.109   0.588  -0.893  0.00  0.00    +0.026 A 
ATOM     10  C   UNL     1      -3.938   0.659  -0.085  0.00  0.00    +0.043 A 
ATOM     11  N   UNL     1      -2.833   1.364  -0.251  0.00  0.00    -0.376 N 
ATOM     12  C   UNL     1      -2.049  -0.595   2.949  0.00  0.00    +0.052 C 
ATOM     13  C   UNL     1      -0.675  -1.113   2.483  0.00  0.00    +0.113 C 
ATOM     14  N   UNL     1      -0.002  -0.073   1.699  0.00  0.00    -0.292 N 
ATOM     15  C   UNL     1       1.207   0.379   2.087  0.00  0.00    +0.247 C 
ATOM     16  O   UNL     1       1.803   1.186   1.401  0.00  0.00    -0.270 OA
ATOM     17  H   UNL     1      -2.619   1.946  -0.997  0.00  0.00    +0.160 HD
ENDROOT
BRANCH  15  18
ATOM     18  C   UNL     1       1.807  -0.107   3.345  0.00  0.00    +0.037 A 
ATOM     19  C   UNL     1       1.946  -1.479   3.571  0.00  0.00    +0.016 A 
ATOM     20  C   UNL     1       2.507  -1.928   4.746  0.00  0.00    +0.046 A 
ATOM     21  C   UNL     1       2.933  -1.018   5.707  0.00  0.00    +0.121 A 
ATOM     22  C   UNL     1       2.796   0.347   5.486  0.00  0.00    +0.046 A 
ATOM     23  C   UNL     1       2.241   0.804   4.311  0.00  0.00    +0.016 A 
BRANCH  21  24
ATOM     24  O   UNL     1       3.484  -1.465   6.864  0.00  0.00    -0.483 OA
BRANCH  24  25
ATOM     25  C   UNL     1       3.900  -0.476   7.808  0.00  0.00    +0.324 C 
BRANCH  25  26
ATOM     26  C   UNL     1       4.483  -1.154   9.021  0.00  0.00    +0.248 C 
ATOM     27  O   UNL     1       4.537  -2.365   9.072  0.00  0.00    -0.272 OA
ATOM     28  N   UNL     1       4.945  -0.415  10.049  0.00  0.00    -0.327 N 
ATOM     29  H   UNL     1       4.902   0.553  10.008  0.00  0.00    +0.145 HD
ATOM     30  H   UNL     1       5.320  -0.852  10.830  0.00  0.00    +0.145 HD
ENDBRANCH  25  26
ENDBRANCH  24  25
ENDBRANCH  21  24
ENDBRANCH  15  18
TORSDOF 4
