REMARK  Name = ZINC40347217
REMARK  7 active torsions:
REMARK  status: ('A' for Active; 'I' for Inactive)
REMARK    1  A    between atoms: C_1  and  C_2
REMARK    2  A    between atoms: C_2  and  C_4
REMARK    3  A    between atoms: C_2  and  N_17
REMARK    4  A    between atoms: C_4  and  N_5
REMARK    5  A    between atoms: N_5  and  S_6
REMARK    6  A    between atoms: S_6  and  C_9
REMARK    7  A    between atoms: C_14  and  N_15
REMARK                            x       y       z     vdW  Elec       q    Type
REMARK                         _______ _______ _______ _____ _____    ______ ____
ROOT
ATOM      1  S   UNL     1       0.954  -2.173  -2.785  0.00  0.00    +0.060 S 
ATOM      2  O   UNL     1       1.359  -3.534  -2.729  0.00  0.00    -0.153 OA
ATOM      3  O   UNL     1      -0.170  -1.743  -3.541  0.00  0.00    -0.153 OA
ENDROOT
BRANCH   1   4
ATOM      4  C   UNL     1       2.339  -1.260  -3.378  0.00  0.00    +0.126 A 
ATOM      5  C   UNL     1       2.184  -0.369  -4.423  0.00  0.00    +0.031 A 
ATOM      6  C   UNL     1       3.270   0.348  -4.889  0.00  0.00    +0.017 A 
ATOM      7  C   UNL     1       4.516   0.177  -4.310  0.00  0.00    +0.020 A 
ATOM      8  C   UNL     1       4.677  -0.712  -3.265  0.00  0.00    +0.040 A 
ATOM      9  C   UNL     1       3.587  -1.429  -2.791  0.00  0.00    +0.052 A 
ATOM     10 BR   UNL     1       5.998   1.161  -4.952  0.00  0.00    -0.050 Br
BRANCH   9  11
ATOM     11  N   UNL     1       3.745  -2.325  -1.731  0.00  0.00    -0.356 N 
ATOM     12  H   UNL     1       2.999  -2.874  -1.444  0.00  0.00    +0.142 HD
ATOM     13  H   UNL     1       4.601  -2.397  -1.281  0.00  0.00    +0.142 HD
ENDBRANCH   9  11
ENDBRANCH   1   4
BRANCH   1  14
ATOM     14  N   UNL     1       0.685  -1.695  -1.223  0.00  0.00    -0.191 NA
ATOM     15  H   UNL     1       0.782  -2.331  -0.497  0.00  0.00    +0.148 HD
BRANCH  14  16
ATOM     16  C   UNL     1       0.299  -0.311  -0.936  0.00  0.00    +0.090 C 
BRANCH  16  18
ATOM     17  C   UNL     1      -0.620   1.232   0.801  0.00  0.00    -0.012 C 
ATOM     18  C   UNL     1      -0.272  -0.223   0.481  0.00  0.00    -0.056 C 
BRANCH  18  19
ATOM     19  N   UNL     1       0.727  -0.710   1.442  0.00  0.00    +0.382 N 
ATOM     20  C   UNL     1       0.133  -0.750   2.784  0.00  0.00    -0.078 C 
ATOM     21  C   UNL     1       1.143  -1.333   3.775  0.00  0.00    -0.019 C 
ATOM     22  C   UNL     1       2.396  -0.453   3.795  0.00  0.00    -0.004 C 
ATOM     23  C   UNL     1       2.965  -0.359   2.376  0.00  0.00    -0.019 C 
ATOM     24  C   UNL     1       1.888   0.188   1.437  0.00  0.00    -0.078 C 
ATOM     25  H   UNL     1       1.020  -1.639   1.179  0.00  0.00    -0.081 HD
ENDBRANCH  18  19
ENDBRANCH  16  18
ENDBRANCH  14  16
ENDBRANCH   1  14
TORSDOF 6
