REMARK  Name = ZINC51995306
REMARK  7 active torsions:
REMARK  status: ('A' for Active; 'I' for Inactive)
REMARK    1  A    between atoms: C_1  and  C_2
REMARK    2  A    between atoms: C_2  and  C_3
REMARK    3  A    between atoms: C_2  and  C_4
REMARK    4  A    between atoms: C_2  and  C_5
REMARK    5  A    between atoms: C_11  and  C_13
REMARK    6  A    between atoms: N_15  and  C_16
REMARK    7  A    between atoms: C_22  and  O_24
REMARK                            x       y       z     vdW  Elec       q    Type
REMARK                         _______ _______ _______ _____ _____    ______ ____
ROOT
ATOM      1  C   UNL     1       1.002  -2.029  -3.852  0.00  0.00    +0.234 C 
ATOM      2  O   UNL     1       0.129  -1.189  -3.906  0.00  0.00    -0.274 OA
ATOM      3  N   UNL     1       1.546  -2.509  -4.988  0.00  0.00    -0.308 N 
ATOM      4  H   UNL     1       2.244  -3.181  -4.945  0.00  0.00    +0.149 HD
ENDROOT
BRANCH   1  11
ATOM      5  C   UNL     1       0.710  -0.539  -1.208  0.00  0.00    +0.222 C 
ATOM      6  O   UNL     1       1.269   0.219  -1.973  0.00  0.00    -0.275 OA
ATOM      7  N   UNL     1       0.740  -1.867  -1.435  0.00  0.00    -0.289 N 
ATOM      8  C   UNL     1       0.032  -2.890  -0.643  0.00  0.00    +0.108 C 
ATOM      9  C   UNL     1      -0.138  -4.090  -1.607  0.00  0.00    +0.021 C 
ATOM     10  C   UNL     1       1.198  -4.049  -2.394  0.00  0.00    +0.033 C 
ATOM     11  C   UNL     1       1.479  -2.536  -2.515  0.00  0.00    +0.162 C 
BRANCH   5  13
ATOM     12  C   UNL     1       0.307   1.491   0.158  0.00  0.00    +0.020 C 
ATOM     13  C   UNL     1      -0.018   0.005  -0.006  0.00  0.00    +0.039 C 
ATOM     14  C   UNL     1       0.426  -0.755   1.245  0.00  0.00    +0.020 C 
ATOM     15  C   UNL     1      -1.525  -0.170  -0.201  0.00  0.00    +0.020 C 
ENDBRANCH   5  13
ENDBRANCH   1  11
BRANCH   3  16
ATOM     16  C   UNL     1       1.083  -2.016  -6.287  0.00  0.00    +0.101 C 
ATOM     17  C   UNL     1       1.835  -0.732  -6.643  0.00  0.00    +0.025 C 
ATOM     18  C   UNL     1       1.351  -0.217  -8.001  0.00  0.00    +0.002 C 
ATOM     19  C   UNL     1       1.616  -1.277  -9.072  0.00  0.00    +0.003 C 
ATOM     20  C   UNL     1       0.864  -2.561  -8.716  0.00  0.00    +0.033 C 
ATOM     21  C   UNL     1       1.348  -3.076  -7.359  0.00  0.00    +0.135 C 
BRANCH  21  22
ATOM     22  O   UNL     1       0.646  -4.275  -7.026  0.00  0.00    -0.390 OA
ATOM     23  H   UNL     1       0.768  -4.992  -7.664  0.00  0.00    +0.210 HD
ENDBRANCH  21  22
ENDBRANCH   3  16
TORSDOF 4
