REMARK  Name = ZINC05501050
REMARK  7 active torsions:
REMARK  status: ('A' for Active; 'I' for Inactive)
REMARK    1  A    between atoms: C_1  and  O_2
REMARK    2  A    between atoms: O_2  and  C_3
REMARK    3  A    between atoms: C_3  and  O_25
REMARK    4  A    between atoms: C_4  and  C_23
REMARK    5  A    between atoms: C_10  and  C_17
REMARK    6  A    between atoms: C_12  and  C_15
REMARK    7  A    between atoms: O_25  and  C_26
REMARK                            x       y       z     vdW  Elec       q    Type
REMARK                         _______ _______ _______ _____ _____    ______ ____
ROOT
ATOM      1  C   UNL     1      -1.177   5.381   3.276  0.00  0.00    +0.277 C 
ATOM      2  C   UNL     1      -1.042   4.564   1.988  0.00  0.00    +0.181 C 
ATOM      3  C   UNL     1      -1.593   5.133   0.723  0.00  0.00    -0.025 C 
ATOM      4  C   UNL     1      -0.923   4.976  -0.424  0.00  0.00    -0.011 C 
ATOM      5  C   UNL     1      -1.687   5.602  -1.563  0.00  0.00    +0.049 C 
ATOM      6  C   UNL     1      -2.712   6.544  -0.891  0.00  0.00    +0.010 C 
ATOM      7  C   UNL     1      -2.870   5.892   0.502  0.00  0.00    +0.034 C 
ATOM      8  C   UNL     1       0.927   3.766   0.708  0.00  0.00    +0.113 C 
ATOM      9  C   UNL     1       0.508   4.682   1.823  0.00  0.00    +0.160 C 
ATOM     10  C   UNL     1       0.989   4.524   3.217  0.00  0.00    +0.094 C 
ATOM     11  N   UNL     1       2.206   4.022   3.593  0.00  0.00    -0.347 N 
ATOM     12  H   UNL     1       2.841   3.732   2.918  0.00  0.00    +0.143 HD
ATOM     13  H   UNL     1       2.434   3.956   4.533  0.00  0.00    +0.143 HD
ATOM     14  N   UNL     1       0.340   4.317  -0.583  0.00  0.00    -0.401 NA
ATOM     15  H   UNL     1       1.006   4.992  -0.978  0.00  0.00    +0.124 HD
ATOM     16  H   UNL     1       0.214   3.537  -1.239  0.00  0.00    +0.124 HD
ATOM     17  N   UNL     1       0.051   4.948   4.043  0.00  0.00    -0.324 N 
ATOM     18  H   UNL     1       0.143   4.979   5.065  0.00  0.00    +0.166 HD
ENDROOT
BRANCH   8  19
ATOM     19  C   UNL     1       0.414   2.372   0.961  0.00  0.00    -0.027 A 
ATOM     20  C   UNL     1       0.769   1.704   2.119  0.00  0.00    +0.005 A 
ATOM     21  C   UNL     1       0.298   0.425   2.351  0.00  0.00    +0.000 A 
ATOM     22  C   UNL     1      -0.526  -0.186   1.426  0.00  0.00    +0.000 A 
ATOM     23  C   UNL     1      -0.877   0.479   0.266  0.00  0.00    +0.000 A 
ATOM     24  C   UNL     1      -0.410   1.760   0.036  0.00  0.00    +0.005 A 
ENDBRANCH   8  19
BRANCH   1  26
ATOM     25  C   UNL     1      -1.062   7.603   4.168  0.00  0.00    +0.199 C 
ATOM     26  O   UNL     1      -1.133   6.782   3.000  0.00  0.00    -0.334 OA
ENDBRANCH   1  26
BRANCH   9  27
ATOM     27  C   UNL     1       0.805   6.064   1.413  0.00  0.00    +0.081 C 
ATOM     28  N   UNL     1       1.035   7.131   1.097  0.00  0.00    -0.195 NA
ENDBRANCH   9  27
BRANCH   2  29
ATOM     29  C   UNL     1      -1.472   3.170   2.183  0.00  0.00    +0.083 C 
ATOM     30  N   UNL     1      -1.803   2.094   2.334  0.00  0.00    -0.195 NA
ENDBRANCH   2  29
BRANCH   1  31
ATOM     31  O   UNL     1      -2.376   5.038   3.975  0.00  0.00    -0.334 OA
ATOM     32  C   UNL     1      -2.455   5.581   5.295  0.00  0.00    +0.199 C 
ENDBRANCH   1  31
TORSDOF 5
