REMARK  Name = ZINC56912193
REMARK  7 active torsions:
REMARK  status: ('A' for Active; 'I' for Inactive)
REMARK    1  A    between atoms: C_1  and  C_2
REMARK    2  A    between atoms: C_8  and  C_10
REMARK    3  A    between atoms: C_10  and  C_11
REMARK    4  A    between atoms: C_11  and  C_12
REMARK    5  A    between atoms: C_11  and  C_18
REMARK    6  A    between atoms: C_11  and  O_22
REMARK    7  A    between atoms: N_16  and  C_17
REMARK                            x       y       z     vdW  Elec       q    Type
REMARK                         _______ _______ _______ _____ _____    ______ ____
ROOT
ATOM      1  C   UNL     1       0.018  -6.898  -1.356  0.00  0.00    +0.227 C 
ENDROOT
BRANCH   1   2
ATOM      2  C   UNL     1       0.073  -7.985  -2.397  0.00  0.00    +0.151 A 
ATOM      3  N   UNL     1       0.170  -7.801  -3.686  0.00  0.00    -0.237 NA
ATOM      4  C   UNL     1       0.192  -8.991  -4.303  0.00  0.00    +0.130 A 
ATOM      5  C   UNL     1       0.106  -9.950  -3.361  0.00  0.00    +0.106 A 
ATOM      6  N   UNL     1       0.036  -9.313  -2.152  0.00  0.00    -0.335 N 
ATOM      7  C   UNL     1      -0.065  -9.951  -0.837  0.00  0.00    +0.150 C 
ENDBRANCH   1   2
BRANCH   1   8
ATOM      8  C   UNL     1      -1.290  -7.010  -0.570  0.00  0.00    +0.426 C 
ATOM      9  F   UNL     1      -2.369  -7.020  -1.460  0.00  0.00    -0.167 F 
ATOM     10  F   UNL     1      -1.287  -8.195   0.174  0.00  0.00    -0.167 F 
ATOM     11  F   UNL     1      -1.410  -5.917   0.295  0.00  0.00    -0.167 F 
ENDBRANCH   1   8
BRANCH   1  12
ATOM     12  O   UNL     1       1.124  -7.038  -0.462  0.00  0.00    -0.373 OA
ATOM     13  H   UNL     1       1.988  -6.977  -0.892  0.00  0.00    +0.211 HD
ENDBRANCH   1  12
BRANCH   1  14
ATOM     14  C   UNL     1       0.086  -5.532  -2.041  0.00  0.00    +0.148 C 
BRANCH  14  22
ATOM     15  C   UNL     1       4.984  -2.627  -6.687  0.00  0.00    +0.092 C 
ATOM     16  C   UNL     1       4.269  -3.530  -5.716  0.00  0.00    +0.170 A 
ATOM     17  N   UNL     1       3.077  -3.287  -5.164  0.00  0.00    -0.179 NA
ATOM     18  C   UNL     1       2.742  -4.274  -4.367  0.00  0.00    +0.321 A 
ATOM     19  O   UNL     1       3.729  -5.184  -4.393  0.00  0.00    -0.317 OA
ATOM     20  N   UNL     1       4.711  -4.677  -5.285  0.00  0.00    -0.060 NA
ATOM     21  N   UNL     1       1.578  -4.362  -3.630  0.00  0.00    -0.238 N 
ATOM     22  C   UNL     1       1.356  -5.436  -2.845  0.00  0.00    +0.224 C 
ATOM     23  O   UNL     1       2.179  -6.324  -2.788  0.00  0.00    -0.275 OA
ATOM     24  H   UNL     1       0.920  -3.651  -3.676  0.00  0.00    +0.159 HD
ENDBRANCH  14  22
ENDBRANCH   1  14
TORSDOF 5
