REMARK  Name = ZINC43670117
REMARK  7 active torsions:
REMARK  status: ('A' for Active; 'I' for Inactive)
REMARK    1  A    between atoms: C_1  and  C_2
REMARK    2  A    between atoms: C_2  and  C_3
REMARK    3  A    between atoms: C_6  and  C_8
REMARK    4  A    between atoms: C_8  and  C_10
REMARK    5  A    between atoms: C_8  and  N_11
REMARK    6  A    between atoms: C_12  and  N_19
REMARK    7  A    between atoms: C_13  and  N_16
REMARK                            x       y       z     vdW  Elec       q    Type
REMARK                         _______ _______ _______ _____ _____    ______ ____
ROOT
ATOM      1  N   UNL     1       0.963  -3.017  -5.320  0.00  0.00    -0.241 N 
ATOM      2  C   UNL     1       1.448  -4.227  -5.679  0.00  0.00    +0.146 A 
ATOM      3  C   UNL     1       0.388  -5.073  -5.808  0.00  0.00    +0.185 A 
ATOM      4  C   UNL     1      -0.772  -4.351  -5.517  0.00  0.00    +0.169 A 
ATOM      5  N   UNL     1      -0.430  -3.123  -5.219  0.00  0.00    -0.175 NA
ENDROOT
BRANCH   3   6
ATOM      6  N   UNL     1       0.454  -6.502  -6.188  0.00  0.00    +0.061 N 
ATOM      7  O   UNL     1      -0.561  -7.153  -6.270  0.00  0.00    -0.126 OA
ATOM      8  O   UNL     1       1.523  -7.018  -6.418  0.00  0.00    -0.126 OA
ENDBRANCH   3   6
BRANCH   2   9
ATOM      9  N   UNL     1       2.787  -4.550  -5.882  0.00  0.00    -0.342 N 
ATOM     10  H   UNL     1       3.472  -3.873  -5.765  0.00  0.00    +0.144 HD
ATOM     11  H   UNL     1       3.035  -5.451  -6.140  0.00  0.00    +0.144 HD
ENDBRANCH   2   9
BRANCH   1  12
ATOM     12  C   UNL     1       1.755  -1.809  -5.073  0.00  0.00    +0.143 C 
ATOM     13  C   UNL     1       1.317  -0.706  -6.038  0.00  0.00    +0.038 C 
BRANCH  12  17
ATOM     14  C   UNL     1       0.707  -0.490  -1.238  0.00  0.00    -0.010 A 
ATOM     15  C   UNL     1       2.023  -0.761  -1.421  0.00  0.00    +0.011 A 
ATOM     16  C   UNL     1       2.451  -1.202  -2.659  0.00  0.00    +0.013 A 
ATOM     17  C   UNL     1       1.542  -1.350  -3.654  0.00  0.00    +0.014 A 
ATOM     18  S   UNL     1       0.026  -0.866  -2.845  0.00  0.00    -0.096 S 
BRANCH  14  20
ATOM     19  C   UNL     1      -0.019   1.526   0.010  0.00  0.00    +0.009 C 
ATOM     20  C   UNL     1       0.002  -0.004   0.002  0.00  0.00    +0.039 C 
ENDBRANCH  14  20
ENDBRANCH  12  17
ENDBRANCH   1  12
TORSDOF 5
