REMARK  Name = ZINC66115465
REMARK  11 active torsions:
REMARK  status: ('A' for Active; 'I' for Inactive)
REMARK    1  A    between atoms: C_1  and  C_2
REMARK    2  A    between atoms: C_2  and  O_3
REMARK    3  A    between atoms: O_3  and  C_4
REMARK    4  A    between atoms: C_4  and  C_5
REMARK    5  A    between atoms: C_5  and  O_6
REMARK    6  A    between atoms: O_6  and  C_7
REMARK    7  A    between atoms: C_12  and  C_13
REMARK    8  A    between atoms: C_13  and  N_14
REMARK    9  A    between atoms: C_20  and  C_22
REMARK   10  A    between atoms: C_22  and  C_23
REMARK   11  A    between atoms: N_25  and  N_26
REMARK                            x       y       z     vdW  Elec       q    Type
REMARK                         _______ _______ _______ _____ _____    ______ ____
ROOT
ATOM      1  N   UNL     1       6.152  -2.138  -0.968  0.00  0.00    +0.391 N 
ATOM      2  C   UNL     1       7.287  -3.038  -1.223  0.00  0.00    -0.058 C 
ATOM      3  C   UNL     1       7.459  -3.968  -0.021  0.00  0.00    +0.085 C 
ATOM      4  N   UNL     1       7.501  -3.185   1.212  0.00  0.00    -0.318 N 
ATOM      5  C   UNL     1       7.068  -1.921   1.278  0.00  0.00    +0.200 C 
ATOM      6  O   UNL     1       7.115  -1.345   2.345  0.00  0.00    -0.278 OA
ATOM      7  C   UNL     1       6.526  -1.186   0.085  0.00  0.00    +0.028 C 
ATOM      8  H   UNL     1       7.857  -3.599   2.014  0.00  0.00    +0.149 HD
ATOM      9  H   UNL     1       5.353  -2.676  -0.668  0.00  0.00    -0.080 HD
ENDROOT
BRANCH   1  10
ATOM     10  C   UNL     1       5.818  -1.406  -2.197  0.00  0.00    -0.038 C 
BRANCH  10  16
ATOM     11  C   UNL     1       4.046  -2.854  -3.221  0.00  0.00    +0.122 A 
ATOM     12  C   UNL     1       3.615  -3.744  -4.194  0.00  0.00    +0.046 A 
ATOM     13  C   UNL     1       4.484  -4.158  -5.184  0.00  0.00    +0.004 A 
ATOM     14  C   UNL     1       5.784  -3.685  -5.206  0.00  0.00    +0.000 A 
ATOM     15  C   UNL     1       6.216  -2.799  -4.238  0.00  0.00    +0.005 A 
ATOM     16  C   UNL     1       5.348  -2.377  -3.249  0.00  0.00    -0.022 A 
BRANCH  11  17
ATOM     17  O   UNL     1       3.192  -2.445  -2.246  0.00  0.00    -0.489 OA
BRANCH  17  18
ATOM     18  C   UNL     1       1.866  -2.977  -2.280  0.00  0.00    +0.257 C 
BRANCH  18  19
ATOM     19  C   UNL     1       1.058  -2.406  -1.113  0.00  0.00    +0.200 C 
BRANCH  19  20
ATOM     20  O   UNL     1       0.904  -0.995  -1.284  0.00  0.00    -0.377 OA
BRANCH  20  22
ATOM     21  C   UNL     1       0.059   1.139  -0.529  0.00  0.00    +0.034 C 
ATOM     22  C   UNL     1       0.160  -0.361  -0.243  0.00  0.00    +0.156 C 
ENDBRANCH  20  22
ENDBRANCH  19  20
ENDBRANCH  18  19
ENDBRANCH  17  18
ENDBRANCH  11  17
ENDBRANCH  10  16
ENDBRANCH   1  10
BRANCH   7  23
ATOM     23  C   UNL     1       5.295  -0.380   0.503  0.00  0.00    +0.091 C 
BRANCH  23  24
ATOM     24  C   UNL     1       4.294  -1.296   1.160  0.00  0.00    +0.225 C 
ATOM     25  O   UNL     1       4.495  -2.492   1.189  0.00  0.00    -0.275 OA
ATOM     26  N   UNL     1       3.177  -0.786   1.715  0.00  0.00    -0.254 N 
ATOM     27  H   UNL     1       3.017   0.170   1.692  0.00  0.00    +0.169 HD
BRANCH  26  28
ATOM     28  N   UNL     1       2.271  -1.616   2.311  0.00  0.00    -0.254 NA
ATOM     29  H   UNL     1       1.490  -1.094   2.680  0.00  0.00    +0.140 HD
ATOM     30  H   UNL     1       1.958  -2.330   1.670  0.00  0.00    +0.140 HD
ENDBRANCH  26  28
ENDBRANCH  23  24
ENDBRANCH   7  23
TORSDOF 10
