REMARK  Name = ZINC36068262
REMARK  7 active torsions:
REMARK  status: ('A' for Active; 'I' for Inactive)
REMARK    1  A    between atoms: C_1  and  N_2
REMARK    2  A    between atoms: N_2  and  C_3
REMARK    3  A    between atoms: N_2  and  C_4
REMARK    4  A    between atoms: C_4  and  C_5
REMARK    5  A    between atoms: N_18  and  C_19
REMARK    6  A    between atoms: C_19  and  C_20
REMARK    7  A    between atoms: C_20  and  O_21
REMARK                            x       y       z     vdW  Elec       q    Type
REMARK                         _______ _______ _______ _____ _____    ______ ____
ROOT
ATOM      1  C   UNL     1      -2.067  -0.116  -1.267  0.00  0.00    +0.097 A 
ATOM      2  N   UNL     1      -1.412   0.572  -2.163  0.00  0.00    -0.228 NA
ATOM      3  C   UNL     1      -1.993   0.938  -3.303  0.00  0.00    +0.116 A 
ATOM      4  C   UNL     1      -3.325   0.608  -3.598  0.00  0.00    +0.076 A 
ATOM      5  C   UNL     1      -3.830   1.078  -4.888  0.00  0.00    -0.023 A 
ATOM      6  C   UNL     1      -2.974   1.777  -5.662  0.00  0.00    -0.004 A 
ATOM      7  S   UNL     1      -1.467   1.848  -4.732  0.00  0.00    -0.073 S 
ATOM      8  C   UNL     1      -3.245   2.363  -7.014  0.00  0.00    +0.043 C 
ATOM      9  C   UNL     1      -4.535   1.738  -7.564  0.00  0.00    +0.005 C 
ATOM     10  C   UNL     1      -5.608   1.786  -6.472  0.00  0.00    +0.005 C 
ATOM     11  C   UNL     1      -5.257   0.802  -5.355  0.00  0.00    +0.037 C 
ATOM     12  C   UNL     1      -4.015  -0.147  -2.594  0.00  0.00    +0.263 A 
ATOM     13  O   UNL     1      -5.176  -0.482  -2.759  0.00  0.00    -0.267 OA
ATOM     14  N   UNL     1      -3.358  -0.485  -1.469  0.00  0.00    -0.295 N 
ENDROOT
BRANCH   1  15
ATOM     15  C   UNL     1      -1.376  -0.512   0.012  0.00  0.00    -0.004 C 
BRANCH  15  17
ATOM     16  C   UNL     1      -0.018   1.465   0.010  0.00  0.00    -0.096 C 
ATOM     17  N   UNL     1       0.002  -0.004   0.002  0.00  0.00    +0.381 N 
ATOM     18  C   UNL     1       0.713  -0.491   1.192  0.00  0.00    -0.096 C 
ATOM     19  H   UNL     1       0.474  -0.330  -0.828  0.00  0.00    -0.082 HD
ENDBRANCH  15  17
ENDBRANCH   1  15
BRANCH  14  20
ATOM     20  C   UNL     1      -4.053  -1.261  -0.438  0.00  0.00    +0.154 C 
BRANCH  20  21
ATOM     21  C   UNL     1      -4.741  -0.308   0.541  0.00  0.00    +0.177 C 
BRANCH  21  22
ATOM     22  O   UNL     1      -5.766   0.417  -0.141  0.00  0.00    -0.393 OA
ATOM     23  H   UNL     1      -6.246   1.041   0.420  0.00  0.00    +0.209 HD
ENDBRANCH  21  22
ENDBRANCH  20  21
ENDBRANCH  14  20
TORSDOF 5
