REMARK  Name = ZINC67634566
REMARK  9 active torsions:
REMARK  status: ('A' for Active; 'I' for Inactive)
REMARK    1  A    between atoms: C_1  and  C_2
REMARK    2  A    between atoms: N_5  and  C_8
REMARK    3  A    between atoms: C_8  and  C_9
REMARK    4  A    between atoms: C_9  and  C_11
REMARK    5  A    between atoms: C_9  and  O_27
REMARK    6  A    between atoms: C_11  and  N_12
REMARK    7  A    between atoms: N_15  and  C_16
REMARK    8  A    between atoms: N_21  and  S_23
REMARK    9  A    between atoms: S_23  and  C_26
REMARK                            x       y       z     vdW  Elec       q    Type
REMARK                         _______ _______ _______ _____ _____    ______ ____
ROOT
ATOM      1  N   UNL     1       0.630  -6.349   4.007  0.00  0.00    -0.297 N 
ATOM      2  C   UNL     1       0.786  -7.662   4.270  0.00  0.00    +0.300 C 
ATOM      3  O   UNL     1       0.440  -8.491   3.452  0.00  0.00    -0.253 OA
ATOM      4  N   UNL     1       1.328  -8.054   5.441  0.00  0.00    -0.295 N 
ATOM      5  H   UNL     1       0.906  -5.687   4.660  0.00  0.00    +0.150 HD
ATOM      6  H   UNL     1       1.605  -7.392   6.093  0.00  0.00    +0.151 HD
ENDROOT
BRANCH   4   7
ATOM      7  C   UNL     1       1.499  -9.481   5.727  0.00  0.00    +0.090 C 
ATOM      8  C   UNL     1       0.200 -10.043   6.309  0.00  0.00    +0.025 C 
ATOM      9  C   UNL     1       0.367 -11.541   6.578  0.00  0.00    +0.019 C 
ATOM     10  C   UNL     1       1.487 -11.750   7.602  0.00  0.00    +0.109 C 
ATOM     11  N   UNL     1       2.703 -11.086   7.115  0.00  0.00    -0.180 NA
ATOM     12  C   UNL     1       2.632  -9.667   6.740  0.00  0.00    +0.131 C 
BRANCH  11  13
ATOM     13  S   UNL     1       4.128 -11.920   6.990  0.00  0.00    +0.029 S 
ATOM     14  O   UNL     1       5.140 -10.930   7.107  0.00  0.00    -0.158 OA
ATOM     15  O   UNL     1       4.022 -12.964   7.948  0.00  0.00    -0.158 OA
ATOM     16  C   UNL     1       4.119 -12.609   5.312  0.00  0.00    +0.215 C 
ENDBRANCH  11  13
ENDBRANCH   4   7
BRANCH   1  17
ATOM     17  C   UNL     1       0.041  -5.922   2.735  0.00  0.00    +0.135 C 
BRANCH  17  18
ATOM     18  C   UNL     1      -0.023  -4.394   2.690  0.00  0.00    +0.115 C 
BRANCH  18  19
ATOM     19  O   UNL     1       1.303  -3.862   2.691  0.00  0.00    -0.392 OA
ATOM     20  H   UNL     1       1.841  -4.147   1.940  0.00  0.00    +0.210 HD
ENDBRANCH  18  19
BRANCH  18  21
ATOM     21  C   UNL     1      -0.750  -3.952   1.419  0.00  0.00    -0.046 C 
BRANCH  21  26
ATOM     22  C   UNL     1      -2.158   1.567   1.124  0.00  0.00    +0.007 C 
ATOM     23  C   UNL     1      -2.222   0.038   1.151  0.00  0.00    -0.018 C 
ATOM     24  C   UNL     1      -1.674  -0.474   2.486  0.00  0.00    -0.016 C 
ATOM     25  C   UNL     1      -1.667  -2.005   2.474  0.00  0.00    -0.078 C 
ATOM     26  N   UNL     1      -0.817  -2.485   1.378  0.00  0.00    +0.381 N 
ATOM     27  C   UNL     1      -1.376  -2.057   0.090  0.00  0.00    -0.078 C 
ATOM     28  C   UNL     1      -1.372  -0.529   0.010  0.00  0.00    -0.016 C 
ATOM     29  H   UNL     1       0.112  -2.105   1.483  0.00  0.00    -0.082 HD
ENDBRANCH  21  26
ENDBRANCH  18  21
ENDBRANCH  17  18
ENDBRANCH   1  17
TORSDOF 7
