REMARK  Name = ZINC39929768
REMARK  6 active torsions:
REMARK  status: ('A' for Active; 'I' for Inactive)
REMARK    1  A    between atoms: C_4  and  C_7
REMARK    2  A    between atoms: C_9  and  C_28
REMARK    3  A    between atoms: C_11  and  S_14
REMARK    4  A    between atoms: S_14  and  C_15
REMARK    5  A    between atoms: C_15  and  C_16
REMARK    6  A    between atoms: N_21  and  C_22
REMARK                            x       y       z     vdW  Elec       q    Type
REMARK                         _______ _______ _______ _____ _____    ______ ____
ROOT
ATOM      1  C   UNL     1       3.711  -0.707  -0.038  0.00  0.00    +0.136 C 
ATOM      2  C   UNL     1       3.959  -1.314  -1.401  0.00  0.00    +0.067 C 
ATOM      3  N   UNL     1       3.700  -2.578  -1.361  0.00  0.00    -0.256 NA
ATOM      4  C   UNL     1       3.258  -2.973  -0.019  0.00  0.00    +0.233 C 
ATOM      5  N   UNL     1       3.668  -1.868   0.886  0.00  0.00    -0.275 NA
ATOM      6  H   UNL     1       4.577  -2.046   1.286  0.00  0.00    +0.126 HD
ENDROOT
BRANCH   1  10
ATOM      7  C   UNL     1      -0.017   1.378   0.014  0.00  0.00    +0.000 A 
ATOM      8  C   UNL     1       0.004   0.001  -0.110  0.00  0.00    +0.000 A 
ATOM      9  C   UNL     1       1.210  -0.673  -0.126  0.00  0.00    +0.005 A 
ATOM     10  C   UNL     1       2.396   0.029  -0.020  0.00  0.00    -0.025 A 
ATOM     11  C   UNL     1       2.376   1.405   0.103  0.00  0.00    +0.005 A 
ATOM     12  C   UNL     1       1.169   2.080   0.121  0.00  0.00    +0.000 A 
ENDBRANCH   1  10
BRANCH   2  13
ATOM     13  C   UNL     1       4.424  -0.575  -2.591  0.00  0.00    -0.002 A 
ATOM     14  C   UNL     1       4.677   0.796  -2.512  0.00  0.00    +0.010 A 
ATOM     15  C   UNL     1       5.111   1.480  -3.628  0.00  0.00    +0.001 A 
ATOM     16  C   UNL     1       5.295   0.811  -4.825  0.00  0.00    +0.000 A 
ATOM     17  C   UNL     1       5.046  -0.547  -4.912  0.00  0.00    +0.001 A 
ATOM     18  C   UNL     1       4.618  -1.245  -3.801  0.00  0.00    +0.010 A 
ENDBRANCH   2  13
BRANCH   4  19
ATOM     19  S   UNL     1       4.066  -4.520   0.476  0.00  0.00    -0.111 S 
BRANCH  19  20
ATOM     20  C   UNL     1       5.837  -4.135   0.395  0.00  0.00    +0.149 C 
BRANCH  20  21
ATOM     21  C   UNL     1       6.634  -5.353   0.787  0.00  0.00    +0.149 A 
ATOM     22  N   UNL     1       7.016  -5.670   1.992  0.00  0.00    -0.132 NA
ATOM     23  N   UNL     1       7.677  -6.772   1.971  0.00  0.00    -0.121 NA
ATOM     24  C   UNL     1       7.754  -7.224   0.741  0.00  0.00    +0.207 A 
ATOM     25  S   UNL     1       8.560  -8.700   0.214  0.00  0.00    -0.009 SA
ATOM     26  N   UNL     1       7.085  -6.334  -0.055  0.00  0.00    -0.273 N 
BRANCH  26  27
ATOM     27  C   UNL     1       6.902  -6.409  -1.443  0.00  0.00    +0.050 A 
ATOM     28  C   UNL     1       5.627  -6.561  -1.969  0.00  0.00    +0.026 A 
ATOM     29  C   UNL     1       5.449  -6.635  -3.337  0.00  0.00    +0.002 A 
ATOM     30  C   UNL     1       6.541  -6.558  -4.182  0.00  0.00    +0.000 A 
ATOM     31  C   UNL     1       7.813  -6.407  -3.661  0.00  0.00    +0.002 A 
ATOM     32  C   UNL     1       7.996  -6.327  -2.294  0.00  0.00    +0.026 A 
ENDBRANCH  26  27
ENDBRANCH  20  21
ENDBRANCH  19  20
ENDBRANCH   4  19
TORSDOF 6
