REMARK  Name = ZINC40746780
REMARK  6 active torsions:
REMARK  status: ('A' for Active; 'I' for Inactive)
REMARK    1  A    between atoms: C_1  and  C_2
REMARK    2  A    between atoms: C_2  and  C_3
REMARK    3  A    between atoms: C_6  and  S_9
REMARK    4  A    between atoms: S_9  and  N_12
REMARK    5  A    between atoms: N_12  and  C_13
REMARK    6  A    between atoms: N_12  and  C_14
REMARK                            x       y       z     vdW  Elec       q    Type
REMARK                         _______ _______ _______ _____ _____    ______ ____
ROOT
ATOM      1  N   UNL     1       3.300  -0.612  -5.813  0.00  0.00    -0.177 NA
ATOM      2  C   UNL     1       4.614  -0.013  -5.565  0.00  0.00    +0.132 C 
ENDROOT
BRANCH   1   3
ATOM      3  C   UNL     1       2.406  -0.026  -6.815  0.00  0.00    +0.076 C 
ATOM      4  C   UNL     1       3.088  -0.057  -8.186  0.00  0.00    +0.005 C 
ATOM      5  C   UNL     1       2.205   0.691  -9.198  0.00  0.00    -0.070 C 
ATOM      6  C   UNL     1       0.758   0.168  -9.041  0.00  0.00    -0.017 C 
ATOM      7  C   UNL     1       0.129   1.067  -7.956  0.00  0.00    -0.017 C 
ATOM      8  C   UNL     1       1.252   2.051  -7.556  0.00  0.00    -0.070 C 
ATOM      9  C   UNL     1       2.087   1.421  -6.429  0.00  0.00    +0.005 C 
ATOM     10  N   UNL     1       2.144   2.112  -8.764  0.00  0.00    +0.383 N 
ATOM     11  H   UNL     1       3.064   2.450  -8.523  0.00  0.00    -0.085 HD
ATOM     12  H   UNL     1       1.730   2.686  -9.482  0.00  0.00    -0.085 HD
ENDBRANCH   1   3
BRANCH   1  13
ATOM     13  S   UNL     1       2.826  -1.951  -4.962  0.00  0.00    +0.061 S 
ATOM     14  O   UNL     1       4.014  -2.596  -4.526  0.00  0.00    -0.153 OA
ATOM     15  O   UNL     1       1.847  -2.610  -5.754  0.00  0.00    -0.153 OA
BRANCH  13  19
ATOM     16  C   UNL     1       0.707  -0.490  -1.238  0.00  0.00    -0.048 A 
ATOM     17  C   UNL     1      -0.011  -0.719  -2.397  0.00  0.00    +0.005 A 
ATOM     18  C   UNL     1       0.636  -1.164  -3.534  0.00  0.00    +0.029 A 
ATOM     19  C   UNL     1       2.002  -1.381  -3.513  0.00  0.00    +0.105 A 
ATOM     20  C   UNL     1       2.720  -1.152  -2.354  0.00  0.00    +0.029 A 
ATOM     21  C   UNL     1       2.073  -0.702  -1.218  0.00  0.00    +0.005 A 
BRANCH  16  23
ATOM     22  C   UNL     1      -0.019   1.526   0.010  0.00  0.00    +0.009 C 
ATOM     23  C   UNL     1       0.002  -0.004   0.002  0.00  0.00    +0.032 C 
ENDBRANCH  16  23
ENDBRANCH  13  19
ENDBRANCH   1  13
TORSDOF 4
