REMARK  Name = ZINC66402476
REMARK  9 active torsions:
REMARK  status: ('A' for Active; 'I' for Inactive)
REMARK    1  A    between atoms: C_1  and  C_2
REMARK    2  A    between atoms: C_5  and  C_30
REMARK    3  A    between atoms: N_8  and  C_10
REMARK    4  A    between atoms: C_10  and  C_11
REMARK    5  A    between atoms: C_11  and  C_12
REMARK    6  A    between atoms: C_12  and  C_13
REMARK    7  A    between atoms: C_13  and  N_14
REMARK    8  A    between atoms: N_17  and  C_18
REMARK    9  A    between atoms: C_20  and  C_26
REMARK                            x       y       z     vdW  Elec       q    Type
REMARK                         _______ _______ _______ _____ _____    ______ ____
ROOT
ATOM      1  N   UNL     1       2.745  -0.117   7.402  0.00  0.00    -0.299 N 
ATOM      2  C   UNL     1       2.334   0.325   8.607  0.00  0.00    +0.304 C 
ATOM      3  O   UNL     1       1.300   0.958   8.701  0.00  0.00    -0.253 OA
ATOM      4  N   UNL     1       3.068   0.066   9.707  0.00  0.00    -0.265 N 
ATOM      5  H   UNL     1       3.570  -0.623   7.327  0.00  0.00    +0.150 HD
ATOM      6  H   UNL     1       3.853  -0.500   9.643  0.00  0.00    +0.157 HD
ENDROOT
BRANCH   4   7
ATOM      7  C   UNL     1       2.699   0.616  10.942  0.00  0.00    +0.100 A 
ATOM      8  C   UNL     1       2.432  -0.197  12.010  0.00  0.00    +0.042 A 
ATOM      9  C   UNL     1       2.064   0.379  13.234  0.00  0.00    +0.073 A 
ATOM     10  C   UNL     1       1.977   1.724  13.351  0.00  0.00    +0.098 A 
ATOM     11  N   UNL     1       2.241   2.533  12.291  0.00  0.00    -0.327 N 
ATOM     12  H   UNL     1       2.174   3.495  12.395  0.00  0.00    +0.168 HD
ATOM     13  C   UNL     1       2.603   2.015  11.102  0.00  0.00    +0.270 A 
ATOM     14  O   UNL     1       2.843   2.755  10.161  0.00  0.00    -0.266 OA
BRANCH   9  15
ATOM     15  C   UNL     1       1.766  -0.501  14.421  0.00  0.00    +0.419 C 
ATOM     16  F   UNL     1       1.425   0.296  15.519  0.00  0.00    -0.166 F 
ATOM     17  F   UNL     1       0.699  -1.352  14.114  0.00  0.00    -0.166 F 
ATOM     18  F   UNL     1       2.896  -1.264  14.732  0.00  0.00    -0.166 F 
ENDBRANCH   9  15
ENDBRANCH   4   7
BRANCH   1  19
ATOM     19  C   UNL     1       1.947   0.164   6.207  0.00  0.00    +0.105 C 
BRANCH  19  20
ATOM     20  C   UNL     1       2.631  -0.445   4.981  0.00  0.00    +0.017 C 
BRANCH  20  21
ATOM     21  C   UNL     1       1.797  -0.151   3.733  0.00  0.00    -0.017 C 
BRANCH  21  22
ATOM     22  C   UNL     1       2.481  -0.760   2.507  0.00  0.00    -0.079 C 
BRANCH  22  28
ATOM     23  C   UNL     1      -0.706   0.713   0.167  0.00  0.00    +0.005 C 
ATOM     24  C   UNL     1      -0.486  -0.801   0.209  0.00  0.00    -0.031 C 
ATOM     25  C   UNL     1       0.222  -1.250  -1.072  0.00  0.00    +0.003 C 
ATOM     26  C   UNL     1       1.604  -0.594  -1.138  0.00  0.00    -0.031 C 
ATOM     27  C   UNL     1       2.396  -0.958   0.120  0.00  0.00    -0.076 C 
ATOM     28  N   UNL     1       1.680  -0.478   1.308  0.00  0.00    +0.380 N 
ATOM     29  C   UNL     1       0.383  -1.157   1.418  0.00  0.00    -0.076 C 
ATOM     30  C   UNL     1       2.350  -1.096  -2.376  0.00  0.00    +0.005 C 
ATOM     31  H   UNL     1       1.532   0.517   1.232  0.00  0.00    -0.082 HD
ENDBRANCH  22  28
ENDBRANCH  21  22
ENDBRANCH  20  21
ENDBRANCH  19  20
ENDBRANCH   1  19
TORSDOF 7
