REMARK  Name = ZINC37159446
REMARK  12 active torsions:
REMARK  status: ('A' for Active; 'I' for Inactive)
REMARK    1  A    between atoms: C_1  and  C_2
REMARK    2  A    between atoms: C_2  and  C_3
REMARK    3  A    between atoms: C_3  and  C_4
REMARK    4  A    between atoms: C_8  and  C_20
REMARK    5  A    between atoms: C_10  and  N_13
REMARK    6  A    between atoms: N_13  and  C_14
REMARK    7  A    between atoms: N_13  and  C_17
REMARK    8  A    between atoms: C_14  and  C_15
REMARK    9  A    between atoms: C_15  and  C_16
REMARK   10  A    between atoms: C_17  and  C_18
REMARK   11  A    between atoms: C_17  and  C_19
REMARK   12  A    between atoms: C_20  and  N_21
REMARK                            x       y       z     vdW  Elec       q    Type
REMARK                         _______ _______ _______ _____ _____    ______ ____
ROOT
ATOM      1  C   UNL     1      -1.061  -4.239  -0.962  0.00  0.00    -0.012 C 
ATOM      2  C   UNL     1      -0.759  -5.667  -1.421  0.00  0.00    +0.003 C 
ATOM      3  C   UNL     1      -0.870  -6.619  -0.229  0.00  0.00    +0.000 C 
ATOM      4  C   UNL     1      -2.287  -6.557   0.345  0.00  0.00    -0.042 C 
ATOM      5  C   UNL     1      -2.588  -5.129   0.804  0.00  0.00    -0.067 C 
ATOM      6  C   UNL     1      -2.478  -4.176  -0.388  0.00  0.00    -0.012 C 
ENDROOT
BRANCH   5   7
ATOM      7  N   UNL     1      -3.949  -5.069   1.355  0.00  0.00    +0.383 N 
ATOM      8  H   UNL     1      -4.055  -5.776   2.067  0.00  0.00    -0.081 HD
BRANCH   7   9
ATOM      9  C   UNL     1      -4.181  -3.743   1.943  0.00  0.00    -0.075 C 
ATOM     10  C   UNL     1      -5.570  -3.705   2.584  0.00  0.00    -0.014 C 
ATOM     11  C   UNL     1      -3.119  -3.465   3.009  0.00  0.00    -0.014 C 
ENDBRANCH   7   9
BRANCH   7  12
ATOM     12  C   UNL     1      -4.923  -5.305   0.281  0.00  0.00    -0.078 C 
BRANCH  12  13
ATOM     13  C   UNL     1      -6.173  -5.968   0.863  0.00  0.00    -0.022 C 
ATOM     14  C   UNL     1      -7.129  -6.339  -0.273  0.00  0.00    +0.002 C 
ENDBRANCH  12  13
ENDBRANCH   7  12
ENDBRANCH   5   7
BRANCH   1  15
ATOM     15  C   UNL     1      -0.951  -3.286  -2.153  0.00  0.00    +0.003 C 
BRANCH  15  17
ATOM     16  C   UNL     1       0.607  -2.301  -3.841  0.00  0.00    +0.004 C 
ATOM     17  C   UNL     1       0.497  -3.254  -2.649  0.00  0.00    -0.003 C 
ENDBRANCH  15  17
ENDBRANCH   1  15
BRANCH   4  18
ATOM     18  C   UNL     1      -2.397  -7.510   1.537  0.00  0.00    -0.085 C 
BRANCH  18  19
ATOM     19  N   UNL     1      -2.060  -8.873   1.106  0.00  0.00    +0.378 N 
ATOM     20  H   UNL     1      -2.132  -9.502   1.893  0.00  0.00    -0.090 HD
ATOM     21  H   UNL     1      -2.699  -9.165   0.382  0.00  0.00    -0.090 HD
ATOM     22  H   UNL     1      -1.116  -8.889   0.749  0.00  0.00    -0.090 HD
ENDBRANCH  18  19
ENDBRANCH   4  18
TORSDOF 8
