REMARK  Name = ZINC02137153
REMARK  7 active torsions:
REMARK  status: ('A' for Active; 'I' for Inactive)
REMARK    1  A    between atoms: C_1  and  O_2
REMARK    2  A    between atoms: O_2  and  C_3
REMARK    3  A    between atoms: C_8  and  O_9
REMARK    4  A    between atoms: O_9  and  C_10
REMARK    5  A    between atoms: C_11  and  C_15
REMARK    6  A    between atoms: C_16  and  O_31
REMARK    7  A    between atoms: N_21  and  C_24
REMARK                            x       y       z     vdW  Elec       q    Type
REMARK                         _______ _______ _______ _____ _____    ______ ____
ROOT
ATOM      1  C   UNL     1       1.145   3.027   0.007  0.00  0.00    +0.067 A 
ATOM      2  C   UNL     1       1.170   1.663  -0.000  0.00  0.00    +0.201 A 
ATOM      3  N   UNL     1      -0.011   0.966   0.007  0.00  0.00    -0.278 N 
ATOM      4  H   UNL     1       0.002  -0.004   0.002  0.00  0.00    +0.173 HD
ATOM      5  C   UNL     1      -1.188   1.618   0.017  0.00  0.00    +0.337 A 
ATOM      6  O   UNL     1      -2.225   0.983   0.018  0.00  0.00    -0.246 OA
ATOM      7  N   UNL     1      -1.234   2.963   0.030  0.00  0.00    -0.227 N 
ATOM      8  C   UNL     1      -0.097   3.686   0.023  0.00  0.00    +0.267 A 
ATOM      9  O   UNL     1      -0.144   4.904   0.029  0.00  0.00    -0.267 OA
ENDROOT
BRANCH   1  16
ATOM     10  C   UNL     1       2.699   5.928  -3.714  0.00  0.00    +0.162 A 
ATOM     11  C   UNL     1       3.056   6.561  -2.537  0.00  0.00    +0.053 A 
ATOM     12  C   UNL     1       2.972   5.891  -1.326  0.00  0.00    -0.044 A 
ATOM     13  C   UNL     1       2.532   4.585  -1.291  0.00  0.00    -0.050 A 
ATOM     14  C   UNL     1       2.173   3.945  -2.469  0.00  0.00    +0.052 A 
ATOM     15  C   UNL     1       2.253   4.610  -3.680  0.00  0.00    +0.162 A 
ATOM     16  C   UNL     1       2.429   3.815  -0.000  0.00  0.00    +0.001 C 
ATOM     17  C   UNL     1       3.603   5.630   1.065  0.00  0.00    -0.077 C 
ATOM     18  C   UNL     1       3.368   6.626  -0.071  0.00  0.00    +0.016 C 
ATOM     19  N   UNL     1       2.438   4.731   1.149  0.00  0.00    +0.387 N 
ATOM     20  H   UNL     1       2.490   4.186   2.018  0.00  0.00    -0.085 HD
ATOM     21  H   UNL     1       1.576   5.289   1.146  0.00  0.00    -0.085 HD
BRANCH  10  23
ATOM     22  C   UNL     1       3.250   7.939  -4.857  0.00  0.00    +0.277 C 
ATOM     23  O   UNL     1       2.784   6.589  -4.899  0.00  0.00    -0.491 OA
ENDBRANCH  10  23
BRANCH  15  24
ATOM     24  O   UNL     1       1.899   3.978  -4.831  0.00  0.00    -0.491 OA
ATOM     25  C   UNL     1       1.451   2.626  -4.717  0.00  0.00    +0.277 C 
ENDBRANCH  15  24
ENDBRANCH   1  16
BRANCH   7  26
ATOM     26  C   UNL     1      -2.474   3.616   0.045  0.00  0.00    +0.073 A 
ATOM     27  C   UNL     1      -3.101   3.947  -1.149  0.00  0.00    +0.028 A 
ATOM     28  C   UNL     1      -4.323   4.590  -1.132  0.00  0.00    +0.002 A 
ATOM     29  C   UNL     1      -4.923   4.905   0.074  0.00  0.00    +0.002 A 
ATOM     30  C   UNL     1      -4.302   4.578   1.265  0.00  0.00    +0.022 A 
ATOM     31  C   UNL     1      -3.081   3.930   1.254  0.00  0.00    +0.065 A 
ATOM     32 CL   UNL     1      -2.306   3.513   2.750  0.00  0.00    -0.081 Cl
ENDBRANCH   7  26
BRANCH   2  33
ATOM     33  O   UNL     1       2.349   1.005  -0.015  0.00  0.00    -0.493 OA
ATOM     34  H   UNL     1       2.262   0.042  -0.019  0.00  0.00    +0.294 HD
ENDBRANCH   2  33
TORSDOF 5
