REMARK  Name = ZINC42188707
REMARK  5 active torsions:
REMARK  status: ('A' for Active; 'I' for Inactive)
REMARK    1  A    between atoms: C_1  and  C_2
REMARK    2  A    between atoms: C_2  and  N_9
REMARK    3  A    between atoms: C_10  and  C_16
REMARK    4  A    between atoms: C_11  and  C_14
REMARK    5  A    between atoms: C_14  and  N_15
REMARK                            x       y       z     vdW  Elec       q    Type
REMARK                         _______ _______ _______ _____ _____    ______ ____
ROOT
ATOM      1  N   UNL     1      -1.467  -0.282   0.321  0.00  0.00    -0.256 N 
ATOM      2  C   UNL     1      -2.404  -0.300  -0.669  0.00  0.00    +0.071 A 
ATOM      3  C   UNL     1      -3.406  -1.136  -0.265  0.00  0.00    -0.020 A 
ATOM      4  C   UNL     1      -3.067  -1.633   0.993  0.00  0.00    +0.136 A 
ATOM      5  N   UNL     1      -1.910  -1.131   1.343  0.00  0.00    -0.178 NA
ENDROOT
BRANCH   1   7
ATOM      6  C   UNL     1      -0.545   1.951   0.033  0.00  0.00    +0.038 C 
ATOM      7  C   UNL     1      -0.218   0.483   0.314  0.00  0.00    +0.082 C 
ATOM      8  C   UNL     1       0.670  -0.045  -0.812  0.00  0.00    +0.054 C 
ATOM      9  C   UNL     1       2.169   0.171  -0.462  0.00  0.00    +0.168 C 
ATOM     10  S   UNL     1       2.126  -0.237   1.339  0.00  0.00    -0.029 S 
ATOM     11  O   UNL     1       3.076   0.569   2.023  0.00  0.00    -0.174 OA
ATOM     12  O   UNL     1       2.156  -1.648   1.500  0.00  0.00    -0.174 OA
ATOM     13  C   UNL     1       0.432   0.381   1.708  0.00  0.00    +0.195 C 
ENDBRANCH   1   7
BRANCH   2  14
ATOM     14  C   UNL     1      -2.346   0.448  -1.944  0.00  0.00    +0.000 A 
ATOM     15  C   UNL     1      -1.409   0.102  -2.918  0.00  0.00    +0.010 A 
ATOM     16  C   UNL     1      -1.361   0.803  -4.105  0.00  0.00    +0.001 A 
ATOM     17  C   UNL     1      -2.240   1.848  -4.331  0.00  0.00    +0.000 A 
ATOM     18  C   UNL     1      -3.171   2.196  -3.370  0.00  0.00    +0.001 A 
ATOM     19  C   UNL     1      -3.233   1.499  -2.180  0.00  0.00    +0.010 A 
ENDBRANCH   2  14
BRANCH   3  20
ATOM     20  C   UNL     1      -4.655  -1.464  -1.042  0.00  0.00    -0.047 C 
BRANCH  20  21
ATOM     21  N   UNL     1      -4.329  -2.405  -2.121  0.00  0.00    +0.381 N 
ATOM     22  H   UNL     1      -5.148  -2.564  -2.688  0.00  0.00    -0.090 HD
ATOM     23  H   UNL     1      -3.593  -2.019  -2.693  0.00  0.00    -0.090 HD
ATOM     24  H   UNL     1      -4.021  -3.280  -1.722  0.00  0.00    -0.090 HD
ENDBRANCH  20  21
ENDBRANCH   3  20
TORSDOF 4
