REMARK  Name = ZINC12904444
REMARK  9 active torsions:
REMARK  status: ('A' for Active; 'I' for Inactive)
REMARK    1  A    between atoms: C_1  and  C_2
REMARK    2  A    between atoms: C_2  and  N_3
REMARK    3  A    between atoms: C_7  and  C_9
REMARK    4  A    between atoms: C_9  and  C_11
REMARK    5  A    between atoms: C_9  and  N_54
REMARK    6  A    between atoms: C_14  and  C_17
REMARK    7  A    between atoms: C_17  and  C_18
REMARK    8  A    between atoms: C_18  and  C_19
REMARK    9  A    between atoms: C_22  and  O_25
REMARK                            x       y       z     vdW  Elec       q    Type
REMARK                         _______ _______ _______ _____ _____    ______ ____
ROOT
ATOM      1  C   UNL     1       2.806   5.622   0.069  0.00  0.00    -0.078 C 
ATOM      2  C   UNL     1       2.828   4.093   0.123  0.00  0.00    -0.015 C 
ATOM      3  C   UNL     1       1.396   3.562   0.008  0.00  0.00    -0.014 C 
ATOM      4  C   UNL     1       0.774   4.073  -1.295  0.00  0.00    -0.015 C 
ATOM      5  C   UNL     1       0.812   5.603  -1.307  0.00  0.00    -0.078 C 
ATOM      6  N   UNL     1       2.219   6.049  -1.218  0.00  0.00    +0.387 N 
ATOM      7  H   UNL     1       2.752   5.623  -1.985  0.00  0.00    -0.081 HD
ENDROOT
BRANCH   6   8
ATOM      8  C   UNL     1       2.290   7.519  -1.343  0.00  0.00    +0.017 C 
ATOM      9  C   UNL     1       1.447   8.193  -0.259  0.00  0.00    -0.004 C 
BRANCH   8  14
ATOM     10  N   UNL     1       1.282  10.873  -4.636  0.00  0.00    -0.299 N 
ATOM     11  C   UNL     1       1.297   9.575  -4.276  0.00  0.00    +0.306 C 
ATOM     12  O   UNL     1       0.895   8.726  -5.047  0.00  0.00    -0.252 OA
ATOM     13  N   UNL     1       1.758   9.217  -3.061  0.00  0.00    -0.242 N 
ATOM     14  C   UNL     1       1.774   7.919  -2.701  0.00  0.00    +0.207 C 
ATOM     15  O   UNL     1       1.373   7.072  -3.471  0.00  0.00    -0.277 OA
ATOM     16  H   UNL     1       1.602  11.551  -4.020  0.00  0.00    +0.150 HD
ATOM     17  H   UNL     1       2.079   9.895  -2.446  0.00  0.00    +0.159 HD
BRANCH  10  19
ATOM     18  C   UNL     1       0.871  12.781  -6.110  0.00  0.00    +0.024 C 
ATOM     19  C   UNL     1       0.780  11.262  -5.956  0.00  0.00    +0.102 C 
ENDBRANCH  10  19
ENDBRANCH   8  14
ENDBRANCH   6   8
BRANCH   3  20
ATOM     20  C   UNL     1       1.417   2.032  -0.001  0.00  0.00    +0.008 C 
BRANCH  20  21
ATOM     21  C   UNL     1      -0.018   1.503   0.010  0.00  0.00    +0.035 C 
BRANCH  21  22
ATOM     22  C   UNL     1       0.002  -0.004   0.002  0.00  0.00    -0.047 A 
ATOM     23  C   UNL     1      -0.006  -0.688  -1.200  0.00  0.00    +0.007 A 
ATOM     24  C   UNL     1       0.019  -2.069  -1.210  0.00  0.00    +0.045 A 
ATOM     25  C   UNL     1       0.040  -2.770  -0.013  0.00  0.00    +0.117 A 
ATOM     26  C   UNL     1       0.042  -2.082   1.191  0.00  0.00    +0.045 A 
ATOM     27  C   UNL     1       0.023  -0.701   1.196  0.00  0.00    +0.007 A 
BRANCH  25  28
ATOM     28  O   UNL     1       0.059  -4.129  -0.021  0.00  0.00    -0.507 OA
ATOM     29  H   UNL     1      -0.820  -4.534  -0.015  0.00  0.00    +0.292 HD
ENDBRANCH  25  28
ENDBRANCH  21  22
ENDBRANCH  20  21
ENDBRANCH   3  20
TORSDOF 7
