REMARK  Name = ZINC39468332
REMARK  6 active torsions:
REMARK  status: ('A' for Active; 'I' for Inactive)
REMARK    1  A    between atoms: C_1  and  O_2
REMARK    2  A    between atoms: O_2  and  C_3
REMARK    3  A    between atoms: P_12  and  S_23
REMARK    4  A    between atoms: C_20  and  O_21
REMARK    5  A    between atoms: O_21  and  C_22
REMARK    6  A    between atoms: S_23  and  C_24
REMARK                            x       y       z     vdW  Elec       q    Type
REMARK                         _______ _______ _______ _____ _____    ______ ____
ROOT
ATOM      1  C   UNL     1      -1.200  -0.637   0.010  0.00  0.00    +0.158 C 
ATOM      2  C   UNL     1      -2.335   0.072   0.019  0.00  0.00    +0.026 C 
ATOM      3  C   UNL     1      -3.647  -0.662   0.015  0.00  0.00    +0.019 C 
ATOM      4  C   UNL     1      -4.776   0.211  -0.524  0.00  0.00    -0.002 C 
ATOM      5  C   UNL     1      -6.082  -0.596  -0.542  0.00  0.00    -0.020 C 
ATOM      6  C   UNL     1      -7.174   0.319  -1.112  0.00  0.00    +0.157 C 
ATOM      7  O   UNL     1      -8.440  -0.366  -1.067  0.00  0.00    -0.312 OA
ATOM      8  P   UNL     1      -8.509  -1.871  -1.681  0.00  0.00    +0.314 P 
ATOM      9  O   UNL     1      -8.634  -1.818  -3.155  0.00  0.00    -0.262 OA
ATOM     10  N   UNL     1      -7.082  -2.581  -1.253  0.00  0.00    -0.283 NA
ATOM     11  N   UNL     1      -5.944  -1.805  -1.352  0.00  0.00    +0.398 N 
ATOM     12  C   UNL     1      -4.842  -2.655  -0.867  0.00  0.00    -0.046 C 
ATOM     13  C   UNL     1      -3.526  -1.891  -0.894  0.00  0.00    +0.008 C 
ATOM     14  C   UNL     1      -2.368  -2.730  -0.427  0.00  0.00    +0.025 C 
ATOM     15  C   UNL     1      -1.263  -2.115   0.003  0.00  0.00    +0.158 C 
ATOM     16  H   UNL     1      -7.049  -3.503  -0.955  0.00  0.00    +0.112 HD
ATOM     17  H   UNL     1      -5.777  -1.549  -2.313  0.00  0.00    -0.055 HD
ENDROOT
BRANCH   1  19
ATOM     18  C   UNL     1      -0.017   1.425   0.010  0.00  0.00    +0.277 C 
ATOM     19  O   UNL     1       0.002  -0.004   0.002  0.00  0.00    -0.492 OA
ENDBRANCH   1  19
BRANCH  15  20
ATOM     20  O   UNL     1      -0.202  -2.846   0.436  0.00  0.00    -0.492 OA
ATOM     21  C   UNL     1      -0.336  -4.269   0.400  0.00  0.00    +0.277 C 
ENDBRANCH  15  20
BRANCH   8  22
ATOM     22  S   UNL     1     -10.143  -2.931  -0.845  0.00  0.00    -0.059 S 
ATOM     23  C   UNL     1     -11.592  -1.946  -1.313  0.00  0.00    +0.096 C 
ENDBRANCH   8  22
TORSDOF 3
