REMARK  Name = ZINC07535618
REMARK  8 active torsions:
REMARK  status: ('A' for Active; 'I' for Inactive)
REMARK    1  A    between atoms: C_1  and  C_2
REMARK    2  A    between atoms: C_4  and  C_21
REMARK    3  A    between atoms: C_5  and  C_9
REMARK    4  A    between atoms: C_7  and  C_8
REMARK    5  A    between atoms: C_9  and  C_11
REMARK    6  A    between atoms: C_11  and  C_13
REMARK    7  A    between atoms: C_11  and  S_14
REMARK    8  A    between atoms: S_14  and  C_15
REMARK                            x       y       z     vdW  Elec       q    Type
REMARK                         _______ _______ _______ _____ _____    ______ ____
ROOT
ATOM      1  C   UNL     1      -1.208  -0.842   0.082  0.00  0.00    +0.176 C 
ATOM      2  O   UNL     1      -2.287  -0.295  -0.001  0.00  0.00    -0.291 OA
ENDROOT
BRANCH   1   7
ATOM      3  C   UNL     1       3.618   2.277  -0.092  0.00  0.00    +0.044 C 
ATOM      4  C   UNL     1       2.353   1.460  -0.047  0.00  0.00    -0.047 A 
ATOM      5  C   UNL     1       1.130   2.070  -0.265  0.00  0.00    +0.007 A 
ATOM      6  C   UNL     1      -0.032   1.329  -0.225  0.00  0.00    -0.040 A 
ATOM      7  C   UNL     1       0.027  -0.044   0.037  0.00  0.00    +0.022 A 
ATOM      8  C   UNL     1       1.266  -0.653   0.256  0.00  0.00    +0.015 A 
ATOM      9  C   UNL     1       2.420   0.102   0.212  0.00  0.00    -0.047 A 
ATOM     10  C   UNL     1       3.756  -0.553   0.448  0.00  0.00    +0.044 C 
ATOM     11  C   UNL     1      -1.362   1.995  -0.469  0.00  0.00    +0.044 C 
ENDBRANCH   1   7
BRANCH   1  12
ATOM     12  C   UNL     1      -1.132  -2.340   0.230  0.00  0.00    +0.121 C 
ATOM     13  C   UNL     1      -1.019  -2.700   1.713  0.00  0.00    +0.028 C 
BRANCH  12  14
ATOM     14  S   UNL     1      -2.630  -3.092  -0.463  0.00  0.00    -0.086 S 
BRANCH  14  15
ATOM     15  C   UNL     1      -2.328  -4.825  -0.351  0.00  0.00    +0.161 A 
ATOM     16  N   UNL     1      -1.270  -5.460   0.115  0.00  0.00    -0.133 NA
ATOM     17  N   UNL     1      -1.242  -6.836   0.114  0.00  0.00    -0.125 NA
ATOM     18  C   UNL     1      -2.268  -7.512  -0.363  0.00  0.00    +0.180 A 
ATOM     19  S   UNL     1      -3.369  -6.190  -0.845  0.00  0.00    -0.025 S 
ATOM     20  N   UNL     1      -2.446  -8.887  -0.465  0.00  0.00    -0.336 N 
ATOM     21  H   UNL     1      -3.266  -9.243  -0.843  0.00  0.00    +0.144 HD
ATOM     22  H   UNL     1      -1.752  -9.490  -0.158  0.00  0.00    +0.144 HD
ENDBRANCH  14  15
ENDBRANCH  12  14
ENDBRANCH   1  12
TORSDOF 4
