REMARK  Name = ZINC39294691
REMARK  4 active torsions:
REMARK  status: ('A' for Active; 'I' for Inactive)
REMARK    1  A    between atoms: C_1  and  C_2
REMARK    2  A    between atoms: C_2  and  C_3
REMARK    3  A    between atoms: C_2  and  C_21
REMARK    4  A    between atoms: N_4  and  C_5
REMARK                            x       y       z     vdW  Elec       q    Type
REMARK                         _______ _______ _______ _____ _____    ______ ____
ROOT
ATOM      1  C   UNL     1       2.511  -1.600   2.196  0.00  0.00    +0.135 A 
ATOM      2  N   UNL     1       3.649  -2.255   2.037  0.00  0.00    -0.230 NA
ATOM      3  C   UNL     1       4.389  -2.637   3.079  0.00  0.00    +0.078 A 
ATOM      4  C   UNL     1       5.600  -3.334   2.878  0.00  0.00    +0.042 A 
ATOM      5  C   UNL     1       6.351  -3.721   3.962  0.00  0.00    +0.051 A 
ATOM      6  C   UNL     1       5.920  -3.424   5.283  0.00  0.00    +0.050 A 
ATOM      7  C   UNL     1       4.741  -2.743   5.496  0.00  0.00    +0.027 A 
ATOM      8  C   UNL     1       3.963  -2.343   4.398  0.00  0.00    +0.048 A 
ATOM      9  C   UNL     1       2.748  -1.642   4.588  0.00  0.00    +0.192 A 
ATOM     10  O   UNL     1       2.305  -1.341   5.834  0.00  0.00    -0.287 OA
ATOM     11  C   UNL     1       2.029  -1.269   3.469  0.00  0.00    +0.097 A 
ATOM     12  C   UNL     1       6.955  -3.979   6.176  0.00  0.00    +0.251 C 
ATOM     13  O   UNL     1       6.945  -3.926   7.390  0.00  0.00    -0.270 OA
ATOM     14  N   UNL     1       7.910  -4.552   5.424  0.00  0.00    -0.248 N 
ATOM     15  C   UNL     1       7.632  -4.444   4.113  0.00  0.00    +0.251 C 
ATOM     16  O   UNL     1       8.317  -4.870   3.205  0.00  0.00    -0.270 OA
ATOM     17  H   UNL     1       8.700  -4.988   5.782  0.00  0.00    +0.158 HD
ENDROOT
BRANCH   1  19
ATOM     18  C   UNL     1       0.741  -0.488   1.221  0.00  0.00    +0.059 C 
ATOM     19  N   UNL     1       1.790  -1.231   1.090  0.00  0.00    -0.350 N 
ATOM     20  H   UNL     1       2.068  -1.528   0.209  0.00  0.00    +0.166 HD
BRANCH  18  22
ATOM     21  C   UNL     1       0.015   1.542  -0.002  0.00  0.00    +0.013 C 
ATOM     22  C   UNL     1       0.015   0.013  -0.001  0.00  0.00    +0.022 C 
ATOM     23  C   UNL     1      -1.427  -0.498   0.018  0.00  0.00    +0.013 C 
ENDBRANCH  18  22
ENDBRANCH   1  19
TORSDOF 2
