REMARK  Name = ZINC53522233
REMARK  11 active torsions:
REMARK  status: ('A' for Active; 'I' for Inactive)
REMARK    1  A    between atoms: C_1  and  C_2
REMARK    2  A    between atoms: C_2  and  C_3
REMARK    3  A    between atoms: C_3  and  C_4
REMARK    4  A    between atoms: C_3  and  C_5
REMARK    5  A    between atoms: C_3  and  N_6
REMARK    6  A    between atoms: N_6  and  C_7
REMARK    7  A    between atoms: C_7  and  C_8
REMARK    8  A    between atoms: C_8  and  C_10
REMARK    9  A    between atoms: C_8  and  N_11
REMARK   10  A    between atoms: C_17  and  C_21
REMARK   11  A    between atoms: C_18  and  C_20
REMARK                            x       y       z     vdW  Elec       q    Type
REMARK                         _______ _______ _______ _____ _____    ______ ____
ROOT
ATOM      1  C   UNL     1       1.493  -3.996   2.415  0.00  0.00    +0.069 C 
ATOM      2  C   UNL     1       0.065  -4.526   2.552  0.00  0.00    +0.029 C 
ENDROOT
BRANCH   1   3
ATOM      3  N   UNL     1       2.303  -4.480   3.536  0.00  0.00    -0.329 N 
ATOM      4  C   UNL     1       2.072  -4.247   4.857  0.00  0.00    +0.200 A 
ATOM      5  N   UNL     1       2.986  -4.826   5.579  0.00  0.00    -0.236 NA
ATOM      6  C   UNL     1       3.867  -5.470   4.771  0.00  0.00    +0.089 A 
ATOM      7  C   UNL     1       3.438  -5.261   3.449  0.00  0.00    +0.069 A 
ATOM      8  C   UNL     1       4.152  -5.813   2.395  0.00  0.00    +0.031 A 
ATOM      9  C   UNL     1       5.278  -6.566   2.654  0.00  0.00    -0.045 A 
ATOM     10  C   UNL     1       5.700  -6.775   3.959  0.00  0.00    -0.045 A 
ATOM     11  C   UNL     1       5.013  -6.233   5.009  0.00  0.00    +0.033 A 
ATOM     12  C   UNL     1       6.933  -7.601   4.222  0.00  0.00    +0.044 C 
ATOM     13  C   UNL     1       6.056  -7.167   1.511  0.00  0.00    +0.044 C 
ENDBRANCH   1   3
BRANCH   1  14
ATOM     14  C   UNL     1       1.472  -2.466   2.424  0.00  0.00    -0.057 C 
BRANCH  14  15
ATOM     15  N   UNL     1       0.762  -1.980   1.234  0.00  0.00    +0.384 N 
ATOM     16  H   UNL     1      -0.185  -2.329   1.241  0.00  0.00    -0.085 HD
ATOM     17  H   UNL     1       1.234  -2.305   0.403  0.00  0.00    -0.085 HD
BRANCH  15  18
ATOM     18  C   UNL     1       0.742  -0.511   1.242  0.00  0.00    -0.074 C 
ATOM     19  C   UNL     1       2.178   0.019   1.231  0.00  0.00    -0.010 C 
ATOM     20  C   UNL     1       0.026  -0.018   2.500  0.00  0.00    -0.010 C 
BRANCH  18  22
ATOM     21  C   UNL     1      -0.019   1.526   0.010  0.00  0.00    +0.002 C 
ATOM     22  C   UNL     1       0.002  -0.004   0.002  0.00  0.00    -0.016 C 
ENDBRANCH  18  22
ENDBRANCH  15  18
ENDBRANCH  14  15
ENDBRANCH   1  14
TORSDOF 5
