REMARK  Name = ZINC35542491
REMARK  5 active torsions:
REMARK  status: ('A' for Active; 'I' for Inactive)
REMARK    1  A    between atoms: C_1  and  C_2
REMARK    2  A    between atoms: C_2  and  N_3
REMARK    3  A    between atoms: N_3  and  C_4
REMARK    4  A    between atoms: C_4  and  C_6
REMARK    5  A    between atoms: C_4  and  C_15
REMARK                            x       y       z     vdW  Elec       q    Type
REMARK                         _______ _______ _______ _____ _____    ______ ____
ROOT
ATOM      1  C   UNL     1       0.710  -1.947  -1.215  0.00  0.00    -0.009 C 
ENDROOT
BRANCH   1   2
ATOM      2  C   UNL     1       1.520  -2.432  -2.389  0.00  0.00    -0.057 A 
ATOM      3  C   UNL     1       1.425  -1.790  -3.610  0.00  0.00    +0.006 A 
ATOM      4  C   UNL     1       2.167  -2.227  -4.687  0.00  0.00    +0.046 A 
ATOM      5  C   UNL     1       3.021  -3.320  -4.553  0.00  0.00    +0.124 A 
ATOM      6  C   UNL     1       3.102  -3.961  -3.324  0.00  0.00    -0.002 A 
ATOM      7  C   UNL     1       2.367  -3.517  -2.247  0.00  0.00    +0.009 A 
ATOM      8  C   UNL     1       4.077  -5.111  -3.486  0.00  0.00    +0.080 C 
ATOM      9  C   UNL     1       4.180  -5.228  -5.025  0.00  0.00    +0.234 C 
ATOM     10  O   UNL     1       3.843  -3.903  -5.469  0.00  0.00    -0.491 OA
ENDBRANCH   1   2
BRANCH   1  11
ATOM     11  C   UNL     1      -0.700  -2.467  -1.328  0.00  0.00    -0.043 A 
ATOM     12  C   UNL     1      -1.680  -1.687  -1.912  0.00  0.00    +0.006 A 
ATOM     13  C   UNL     1      -2.973  -2.163  -2.017  0.00  0.00    +0.038 A 
ATOM     14  C   UNL     1      -3.287  -3.424  -1.536  0.00  0.00    +0.124 A 
ATOM     15  C   UNL     1      -2.306  -4.205  -0.952  0.00  0.00    +0.053 A 
ATOM     16  C   UNL     1      -1.011  -3.729  -0.853  0.00  0.00    +0.022 A 
ATOM     17 BR   UNL     1       0.332  -4.798  -0.060  0.00  0.00    -0.050 Br
ATOM     18  F   UNL     1      -4.551  -3.890  -1.638  0.00  0.00    -0.205 F 
ENDBRANCH   1  11
BRANCH   1  19
ATOM     19  N   UNL     1       0.690  -0.478  -1.207  0.00  0.00    +0.386 N 
ATOM     20  H   UNL     1       0.202  -0.144  -2.024  0.00  0.00    -0.085 HD
ATOM     21  H   UNL     1       1.636  -0.129  -1.214  0.00  0.00    -0.085 HD
BRANCH  19  23
ATOM     22  C   UNL     1      -0.019   1.526   0.010  0.00  0.00    -0.017 C 
ATOM     23  C   UNL     1       0.002  -0.004   0.002  0.00  0.00    -0.085 C 
ENDBRANCH  19  23
ENDBRANCH   1  19
TORSDOF 4
