REMARK  Name = ZINC36916424
REMARK  9 active torsions:
REMARK  status: ('A' for Active; 'I' for Inactive)
REMARK    1  A    between atoms: C_1  and  C_2
REMARK    2  A    between atoms: C_2  and  C_3
REMARK    3  A    between atoms: C_4  and  C_17
REMARK    4  A    between atoms: N_6  and  C_9
REMARK    5  A    between atoms: C_7  and  N_8
REMARK    6  A    between atoms: C_17  and  C_18
REMARK    7  A    between atoms: C_18  and  C_19
REMARK    8  A    between atoms: C_18  and  C_20
REMARK    9  A    between atoms: C_18  and  C_21
REMARK                            x       y       z     vdW  Elec       q    Type
REMARK                         _______ _______ _______ _____ _____    ______ ____
ROOT
ATOM      1  C   UNL     1      -1.408  -0.925   0.219  0.00  0.00    +0.012 A 
ATOM      2  C   UNL     1      -2.145  -0.660   1.376  0.00  0.00    +0.040 A 
ATOM      3  N   UNL     1      -3.416  -0.655   1.062  0.00  0.00    -0.300 N 
ATOM      4  N   UNL     1      -3.533  -0.918  -0.308  0.00  0.00    -0.268 N 
ATOM      5  C   UNL     1      -2.287  -1.076  -0.810  0.00  0.00    +0.116 A 
ATOM      6  H   UNL     1      -4.151  -0.497   1.675  0.00  0.00    +0.187 HD
ENDROOT
BRANCH   4   7
ATOM      7  C   UNL     1      -4.785  -1.001  -1.066  0.00  0.00    +0.129 C 
ATOM      8  C   UNL     1      -5.666  -2.114  -0.475  0.00  0.00    +0.051 C 
ATOM      9  C   UNL     1      -7.092  -1.975  -1.080  0.00  0.00    +0.168 C 
ATOM     10  S   UNL     1      -7.293  -0.144  -1.052  0.00  0.00    -0.029 S 
ATOM     11  O   UNL     1      -7.926   0.233   0.164  0.00  0.00    -0.174 OA
ATOM     12  O   UNL     1      -7.849   0.279  -2.289  0.00  0.00    -0.174 OA
ATOM     13  C   UNL     1      -5.526   0.355  -0.985  0.00  0.00    +0.192 C 
ENDBRANCH   4   7
BRANCH   5  14
ATOM     14  N   UNL     1      -1.963  -1.347  -2.137  0.00  0.00    -0.343 N 
ATOM     15  H   UNL     1      -1.034  -1.446  -2.398  0.00  0.00    +0.144 HD
ATOM     16  H   UNL     1      -2.666  -1.436  -2.799  0.00  0.00    +0.144 HD
ENDBRANCH   5  14
BRANCH   1  18
ATOM     17  C   UNL     1       0.664   0.331  -0.305  0.00  0.00    +0.009 C 
ATOM     18  C   UNL     1       0.093  -1.021   0.125  0.00  0.00    +0.037 C 
ENDBRANCH   1  18
BRANCH   2  19
ATOM     19  C   UNL     1      -1.575  -0.421   2.750  0.00  0.00    +0.061 C 
BRANCH  19  20
ATOM     20  C   UNL     1      -1.462  -1.753   3.495  0.00  0.00    -0.032 C 
ATOM     21  C   UNL     1      -0.620  -2.728   2.670  0.00  0.00    +0.011 C 
ATOM     22  C   UNL     1      -0.794  -1.524   4.852  0.00  0.00    +0.011 C 
ATOM     23  C   UNL     1      -2.860  -2.338   3.706  0.00  0.00    +0.011 C 
ENDBRANCH  19  20
ENDBRANCH   2  19
TORSDOF 5
