REMARK  Name = ZINC39789436
REMARK  6 active torsions:
REMARK  status: ('A' for Active; 'I' for Inactive)
REMARK    1  A    between atoms: C_1  and  O_2
REMARK    2  A    between atoms: O_2  and  C_3
REMARK    3  A    between atoms: C_8  and  C_9
REMARK    4  A    between atoms: C_9  and  N_10
REMARK    5  A    between atoms: C_14  and  C_17
REMARK    6  A    between atoms: C_15  and  N_16
REMARK                            x       y       z     vdW  Elec       q    Type
REMARK                         _______ _______ _______ _____ _____    ______ ____
ROOT
ATOM      1  N   UNL     1       0.950  -2.876  -1.151  0.00  0.00    -0.306 N 
ATOM      2  C   UNL     1       0.973  -1.925  -2.273  0.00  0.00    +0.186 C 
ATOM      3  C   UNL     1       2.076  -2.430  -3.180  0.00  0.00    +0.183 C 
ATOM      4  O   UNL     1       2.442  -1.942  -4.233  0.00  0.00    -0.290 OA
ATOM      5  C   UNL     1       2.586  -3.566  -2.561  0.00  0.00    +0.074 C 
ATOM      6  C   UNL     1       1.922  -3.805  -1.380  0.00  0.00    +0.095 C 
ENDROOT
BRANCH   5   7
ATOM      7  C   UNL     1       3.709  -4.411  -3.104  0.00  0.00    +0.212 C 
ATOM      8  N   UNL     1       4.905  -3.586  -3.313  0.00  0.00    -0.359 N 
ATOM      9  C   UNL     1       5.198  -3.636  -4.580  0.00  0.00    +0.060 A 
ATOM     10  C   UNL     1       6.267  -3.027  -5.384  0.00  0.00    +0.027 A 
ATOM     11  C   UNL     1       6.320  -3.265  -6.710  0.00  0.00    +0.002 A 
ATOM     12  C   UNL     1       5.386  -4.081  -7.372  0.00  0.00    +0.002 A 
ATOM     13  C   UNL     1       4.367  -4.687  -6.730  0.00  0.00    +0.027 A 
ATOM     14  C   UNL     1       4.210  -4.501  -5.281  0.00  0.00    +0.060 A 
ATOM     15  N   UNL     1       3.343  -4.951  -4.420  0.00  0.00    -0.359 N 
ATOM     16  H   UNL     1       5.388  -3.092  -2.632  0.00  0.00    +0.162 HD
ATOM     17  H   UNL     1       2.594  -5.536  -4.612  0.00  0.00    +0.162 HD
ENDBRANCH   5   7
BRANCH   6  18
ATOM     18  N   UNL     1       2.200  -4.849  -0.540  0.00  0.00    -0.346 N 
ATOM     19  H   UNL     1       1.692  -4.962   0.278  0.00  0.00    +0.143 HD
ATOM     20  H   UNL     1       2.906  -5.476  -0.763  0.00  0.00    +0.143 HD
ENDBRANCH   6  18
BRANCH   1  21
ATOM     21  C   UNL     1       0.052  -2.828   0.005  0.00  0.00    +0.145 C 
BRANCH  21  27
ATOM     22  C   UNL     1       0.626  -0.618   1.042  0.00  0.00    +0.125 A 
ATOM     23  C   UNL     1       1.202   0.139   2.051  0.00  0.00    +0.046 A 
ATOM     24  C   UNL     1       1.835  -0.488   3.107  0.00  0.00    +0.004 A 
ATOM     25  C   UNL     1       1.895  -1.869   3.158  0.00  0.00    +0.001 A 
ATOM     26  C   UNL     1       1.321  -2.625   2.153  0.00  0.00    +0.009 A 
ATOM     27  C   UNL     1       0.682  -2.003   1.097  0.00  0.00    +0.011 A 
BRANCH  22  29
ATOM     28  C   UNL     1      -0.017   1.425   0.010  0.00  0.00    +0.277 C 
ATOM     29  O   UNL     1       0.002  -0.004   0.002  0.00  0.00    -0.495 OA
ENDBRANCH  22  29
ENDBRANCH  21  27
ENDBRANCH   1  21
TORSDOF 5
