REMARK  Name = ZINC39695835
REMARK  6 active torsions:
REMARK  status: ('A' for Active; 'I' for Inactive)
REMARK    1  A    between atoms: C_1  and  C_2
REMARK    2  A    between atoms: C_10  and  C_12
REMARK    3  A    between atoms: C_12  and  C_13
REMARK    4  A    between atoms: C_12  and  N_14
REMARK    5  A    between atoms: C_15  and  C_17
REMARK    6  A    between atoms: C_27  and  C_29
REMARK                            x       y       z     vdW  Elec       q    Type
REMARK                         _______ _______ _______ _____ _____    ______ ____
ROOT
ATOM      1  C   UNL     1      -1.209  -9.241   0.255  0.00  0.00    +0.100 C 
ATOM      2  C   UNL     1      -2.585  -8.557   0.099  0.00  0.00    +0.121 C 
ATOM      3  N   UNL     1      -3.559  -9.674   0.077  0.00  0.00    -0.300 N 
ATOM      4  C   UNL     1      -3.045 -10.630   1.087  0.00  0.00    +0.115 C 
ATOM      5  C   UNL     1      -1.517 -10.600   0.905  0.00  0.00    -0.004 C 
ATOM      6  C   UNL     1      -1.075 -11.737  -0.011  0.00  0.00    -0.010 C 
ATOM      7  C   UNL     1      -1.340 -13.077   0.681  0.00  0.00    -0.082 C 
ATOM      8  N   UNL     1      -0.603 -13.129   1.949  0.00  0.00    +0.379 N 
ATOM      9  C   UNL     1      -1.099 -12.090   2.860  0.00  0.00    -0.082 C 
ATOM     10  C   UNL     1      -0.824 -10.708   2.259  0.00  0.00    -0.010 C 
ATOM     11  C   UNL     1      -4.661  -9.794  -0.689  0.00  0.00    +0.219 C 
ATOM     12  O   UNL     1      -4.908  -8.958  -1.532  0.00  0.00    -0.275 OA
ATOM     13  H   UNL     1      -0.730 -14.035   2.374  0.00  0.00    -0.086 HD
ATOM     14  H   UNL     1       0.379 -12.978   1.772  0.00  0.00    -0.086 HD
ENDROOT
BRANCH  11  15
ATOM     15  C   UNL     1      -5.588 -10.967  -0.497  0.00  0.00    +0.079 C 
ATOM     16  C   UNL     1      -6.363 -11.229  -1.795  0.00  0.00    +0.017 C 
ATOM     17  C   UNL     1      -7.158 -12.526  -1.630  0.00  0.00    +0.027 C 
ATOM     18  C   UNL     1      -7.927 -12.501  -0.342  0.00  0.00    -0.031 C 
ATOM     19  C   UNL     1      -7.678 -11.689   0.635  0.00  0.00    -0.030 C 
ATOM     20  C   UNL     1      -6.593 -10.653   0.612  0.00  0.00    +0.039 C 
ENDBRANCH  11  15
BRANCH   1  22
ATOM     21  N   UNL     1       1.024  -8.479   0.997  0.00  0.00    -0.305 N 
ATOM     22  C   UNL     1      -0.314  -8.423   1.149  0.00  0.00    +0.219 C 
ATOM     23  O   UNL     1      -0.798  -7.714   2.006  0.00  0.00    -0.275 OA
ATOM     24  H   UNL     1       1.411  -9.046   0.312  0.00  0.00    +0.149 HD
BRANCH  21  25
ATOM     25  C   UNL     1       1.894  -7.683   1.867  0.00  0.00    +0.136 C 
ATOM     26  C   UNL     1       2.157  -8.450   3.164  0.00  0.00    +0.036 C 
BRANCH  25  36
ATOM     27  C   UNL     1       8.425  -5.317  -0.804  0.00  0.00    +0.044 C 
ATOM     28  C   UNL     1       7.177  -6.131  -0.580  0.00  0.00    -0.048 A 
ATOM     29  C   UNL     1       6.958  -7.278  -1.331  0.00  0.00    +0.005 A 
ATOM     30  C   UNL     1       5.833  -8.030  -1.142  0.00  0.00    +0.030 A 
ATOM     31  C   UNL     1       4.891  -7.645  -0.185  0.00  0.00    +0.089 A 
ATOM     32  C   UNL     1       5.112  -6.484   0.576  0.00  0.00    +0.067 A 
ATOM     33  C   UNL     1       6.264  -5.735   0.374  0.00  0.00    +0.031 A 
ATOM     34  N   UNL     1       4.026  -6.370   1.421  0.00  0.00    -0.340 N 
ATOM     35  H   UNL     1       3.879  -5.669   2.075  0.00  0.00    +0.167 HD
ATOM     36  C   UNL     1       3.202  -7.421   1.165  0.00  0.00    +0.128 A 
ATOM     37  N   UNL     1       3.707  -8.167   0.226  0.00  0.00    -0.231 NA
ENDBRANCH  25  36
ENDBRANCH  21  25
ENDBRANCH   1  22
TORSDOF 4
