REMARK  Name = ZINC12329690
REMARK  10 active torsions:
REMARK  status: ('A' for Active; 'I' for Inactive)
REMARK    1  A    between atoms: C_1  and  O_2
REMARK    2  A    between atoms: O_2  and  C_3
REMARK    3  A    between atoms: C_6  and  C_11
REMARK    4  A    between atoms: C_8  and  O_9
REMARK    5  A    between atoms: O_9  and  C_10
REMARK    6  A    between atoms: C_11  and  C_13
REMARK    7  A    between atoms: C_11  and  O_31
REMARK    8  A    between atoms: C_13  and  N_59
REMARK    9  A    between atoms: C_20  and  O_30
REMARK   10  A    between atoms: C_24  and  O_29
REMARK                            x       y       z     vdW  Elec       q    Type
REMARK                         _______ _______ _______ _____ _____    ______ ____
ROOT
ATOM      1  C   UNL     1       1.397   1.508   2.423  0.00  0.00    -0.075 C 
ATOM      2  C   UNL     1       2.108   0.969   3.667  0.00  0.00    +0.029 C 
ATOM      3  C   UNL     1       1.498   1.608   4.916  0.00  0.00    +0.110 C 
ATOM      4  C   UNL     1      -0.004   1.321   4.953  0.00  0.00    +0.029 C 
ATOM      5  C   UNL     1      -0.652   1.850   3.671  0.00  0.00    -0.075 C 
ATOM      6  C   UNL     1       2.162   1.022   6.166  0.00  0.00    +0.084 C 
ATOM      7  C   UNL     1       3.675   1.225   6.048  0.00  0.00    +0.152 C 
ATOM      8  C   UNL     1       3.966   2.653   5.658  0.00  0.00    +0.026 A 
ATOM      9  C   UNL     1       5.243   3.149   5.857  0.00  0.00    +0.055 A 
ATOM     10  C   UNL     1       5.549   4.453   5.502  0.00  0.00    +0.117 A 
ATOM     11  C   UNL     1       4.572   5.264   4.944  0.00  0.00    +0.049 A 
ATOM     12  C   UNL     1       3.299   4.771   4.747  0.00  0.00    +0.049 A 
ATOM     13  C   UNL     1       2.990   3.462   5.105  0.00  0.00    +0.127 A 
ATOM     14  O   UNL     1       1.722   3.017   4.898  0.00  0.00    -0.485 OA
ATOM     15  N   UNL     1      -0.041   1.171   2.509  0.00  0.00    +0.382 N 
ATOM     16  H   UNL     1      -0.138   0.156   2.627  0.00  0.00    -0.082 HD
ENDROOT
BRANCH  10  17
ATOM     17  O   UNL     1       6.805   4.936   5.699  0.00  0.00    -0.507 OA
ATOM     18  H   UNL     1       6.936   5.350   6.563  0.00  0.00    +0.292 HD
ENDBRANCH  10  17
BRANCH   7  19
ATOM     19  O   UNL     1       4.292   0.941   7.305  0.00  0.00    -0.387 OA
ATOM     20  H   UNL     1       5.253   1.046   7.305  0.00  0.00    +0.210 HD
ENDBRANCH   7  19
BRANCH  15  21
ATOM     21  C   UNL     1      -0.729   1.579   1.267  0.00  0.00    -0.042 C 
BRANCH  21  22
ATOM     22  C   UNL     1      -2.152   1.017   1.285  0.00  0.00    +0.128 C 
BRANCH  22  26
ATOM     23  C   UNL     1      -4.149   2.075  -2.346  0.00  0.00    +0.162 A 
ATOM     24  C   UNL     1      -3.346   0.946  -2.296  0.00  0.00    +0.050 A 
ATOM     25  C   UNL     1      -2.697   0.610  -1.123  0.00  0.00    +0.010 A 
ATOM     26  C   UNL     1      -2.856   1.391   0.007  0.00  0.00    -0.017 A 
ATOM     27  C   UNL     1      -3.655   2.519  -0.036  0.00  0.00    +0.055 A 
ATOM     28  C   UNL     1      -4.304   2.864  -1.210  0.00  0.00    +0.162 A 
BRANCH  23  30
ATOM     29  C   UNL     1      -4.578   1.553  -4.626  0.00  0.00    +0.277 C 
ATOM     30  O   UNL     1      -4.783   2.410  -3.501  0.00  0.00    -0.491 OA
ENDBRANCH  23  30
BRANCH  28  31
ATOM     31  O   UNL     1      -5.091   3.973  -1.254  0.00  0.00    -0.491 OA
ATOM     32  C   UNL     1      -5.204   4.735  -0.050  0.00  0.00    +0.277 C 
ENDBRANCH  28  31
ENDBRANCH  22  26
BRANCH  22  33
ATOM     33  O   UNL     1      -2.100  -0.406   1.401  0.00  0.00    -0.389 OA
ATOM     34  H   UNL     1      -1.630  -0.843   0.677  0.00  0.00    +0.210 HD
ENDBRANCH  22  33
ENDBRANCH  21  22
ENDBRANCH  15  21
TORSDOF 8
