REMARK  Name = ZINC37035516
REMARK  6 active torsions:
REMARK  status: ('A' for Active; 'I' for Inactive)
REMARK    1  A    between atoms: C_4  and  N_7
REMARK    2  A    between atoms: C_11  and  C_13
REMARK    3  A    between atoms: C_13  and  S_14
REMARK    4  A    between atoms: S_14  and  C_15
REMARK    5  A    between atoms: C_15  and  C_16
REMARK    6  A    between atoms: C_16  and  N_17
REMARK                            x       y       z     vdW  Elec       q    Type
REMARK                         _______ _______ _______ _____ _____    ______ ____
ROOT
ATOM      1  N   UNL     1       2.839  -0.440  -2.473  0.00  0.00    -0.296 N 
ATOM      2  C   UNL     1       3.424  -1.655  -2.483  0.00  0.00    +0.306 C 
ATOM      3  O   UNL     1       3.383  -2.357  -1.493  0.00  0.00    -0.252 OA
ATOM      4  N   UNL     1       4.055  -2.089  -3.592  0.00  0.00    -0.240 N 
ATOM      5  C   UNL     1       4.640  -3.303  -3.603  0.00  0.00    +0.230 C 
ATOM      6  O   UNL     1       4.599  -4.004  -2.614  0.00  0.00    -0.274 OA
ATOM      7  H   UNL     1       2.872   0.121  -3.264  0.00  0.00    +0.151 HD
ATOM      8  H   UNL     1       4.088  -1.528  -4.383  0.00  0.00    +0.159 HD
ENDROOT
BRANCH   1  12
ATOM      9  C   UNL     1      -0.019   1.526   0.010  0.00  0.00    +0.000 C 
ATOM     10  C   UNL     1       1.417   2.055  -0.000  0.00  0.00    +0.002 C 
ATOM     11  C   UNL     1       2.133   1.562  -1.259  0.00  0.00    +0.022 C 
ATOM     12  C   UNL     1       2.154   0.032  -1.268  0.00  0.00    +0.074 C 
ATOM     13  C   UNL     1       0.718  -0.497  -1.257  0.00  0.00    +0.022 C 
ATOM     14  C   UNL     1       0.002  -0.004   0.002  0.00  0.00    +0.002 C 
ENDBRANCH   1  12
BRANCH   5  15
ATOM     15  C   UNL     1       5.346  -3.789  -4.842  0.00  0.00    +0.165 C 
BRANCH  15  16
ATOM     16  S   UNL     1       6.024  -5.445  -4.543  0.00  0.00    -0.153 S 
BRANCH  16  17
ATOM     17  C   UNL     1       6.829  -5.879  -6.109  0.00  0.00    +0.050 C 
BRANCH  17  18
ATOM     18  C   UNL     1       7.452  -7.272  -5.993  0.00  0.00    -0.076 C 
BRANCH  18  19
ATOM     19  N   UNL     1       8.104  -7.624  -7.261  0.00  0.00    +0.379 N 
ATOM     20  H   UNL     1       7.420  -7.622  -8.003  0.00  0.00    -0.090 HD
ATOM     21  H   UNL     1       8.825  -6.949  -7.467  0.00  0.00    -0.090 HD
ATOM     22  H   UNL     1       8.514  -8.543  -7.185  0.00  0.00    -0.090 HD
ENDBRANCH  18  19
ENDBRANCH  17  18
ENDBRANCH  16  17
ENDBRANCH  15  16
ENDBRANCH   5  15
TORSDOF 6
