REMARK  Name = ZINC49646380
REMARK  4 active torsions:
REMARK  status: ('A' for Active; 'I' for Inactive)
REMARK    1  A    between atoms: C_5  and  C_8
REMARK    2  A    between atoms: C_8  and  C_9
REMARK    3  A    between atoms: C_9  and  S_10
REMARK    4  A    between atoms: S_10  and  N_13
REMARK                            x       y       z     vdW  Elec       q    Type
REMARK                         _______ _______ _______ _____ _____    ______ ____
ROOT
ATOM      1  S   UNL     1       1.507  -4.325  -2.530  0.00  0.00    +0.072 S 
ATOM      2  O   UNL     1       2.378  -4.809  -1.517  0.00  0.00    -0.152 OA
ATOM      3  O   UNL     1       0.186  -4.833  -2.653  0.00  0.00    -0.152 OA
ENDROOT
BRANCH   1   4
ATOM      4  N   UNL     1       2.250  -4.728  -3.954  0.00  0.00    -0.108 NA
ATOM      5  C   UNL     1       2.426  -5.988  -4.268  0.00  0.00    +0.191 A 
ATOM      6  N   UNL     1       2.072  -7.115  -3.572  0.00  0.00    -0.336 N 
ATOM      7  C   UNL     1       2.359  -8.368  -4.098  0.00  0.00    +0.028 A 
ATOM      8  C   UNL     1       2.980  -8.410  -5.276  0.00  0.00    +0.012 A 
ATOM      9  S   UNL     1       3.185  -6.699  -5.719  0.00  0.00    -0.053 S 
ATOM     10  C   UNL     1       3.244  -9.815  -5.740  0.00  0.00    +0.044 C 
ATOM     11  C   UNL     1       3.075 -10.679  -4.471  0.00  0.00    +0.011 C 
ATOM     12  C   UNL     1       2.120  -9.808  -3.631  0.00  0.00    +0.054 C 
ATOM     13  H   UNL     1       1.622  -7.037  -2.716  0.00  0.00    +0.168 HD
ENDBRANCH   1   4
BRANCH   1  14
ATOM     14  C   UNL     1       1.480  -2.511  -2.516  0.00  0.00    +0.191 C 
BRANCH  14  15
ATOM     15  C   UNL     1       0.809  -2.021  -1.231  0.00  0.00    +0.009 C 
BRANCH  15  20
ATOM     16  C   UNL     1      -0.019   1.527   0.010  0.00  0.00    -0.003 C 
ATOM     17  C   UNL     1       1.422   2.047  -0.001  0.00  0.00    -0.019 C 
ATOM     18  C   UNL     1       2.152   1.484  -1.221  0.00  0.00    -0.082 C 
ATOM     19  N   UNL     1       2.161   0.018  -1.157  0.00  0.00    +0.381 N 
ATOM     20  C   UNL     1       0.785  -0.491  -1.219  0.00  0.00    -0.070 C 
ATOM     21  C   UNL     1       0.002  -0.004   0.002  0.00  0.00    -0.016 C 
ATOM     22  H   UNL     1       2.689  -0.349  -1.935  0.00  0.00    -0.086 HD
ATOM     23  H   UNL     1       2.589  -0.278  -0.293  0.00  0.00    -0.086 HD
ENDBRANCH  15  20
ENDBRANCH  14  15
ENDBRANCH   1  14
TORSDOF 4
