REMARK  Name = ZINC50517803
REMARK  6 active torsions:
REMARK  status: ('A' for Active; 'I' for Inactive)
REMARK    1  A    between atoms: C_3  and  N_20
REMARK    2  A    between atoms: C_4  and  O_9
REMARK    3  A    between atoms: C_6  and  C_7
REMARK    4  A    between atoms: C_7  and  O_8
REMARK    5  A    between atoms: O_9  and  C_10
REMARK    6  A    between atoms: C_17  and  O_19
REMARK                            x       y       z     vdW  Elec       q    Type
REMARK                         _______ _______ _______ _____ _____    ______ ____
ROOT
ATOM      1  C   UNL     1      -0.011   1.385   0.106  0.00  0.00    +0.008 A 
ATOM      2  C   UNL     1       1.160   2.077  -0.146  0.00  0.00    +0.037 A 
ATOM      3  C   UNL     1       2.365   1.404  -0.194  0.00  0.00    +0.168 A 
ATOM      4  C   UNL     1       2.401   0.032   0.011  0.00  0.00    +0.152 A 
ATOM      5  C   UNL     1       1.226  -0.660   0.263  0.00  0.00    +0.054 A 
ATOM      6  C   UNL     1       0.023   0.018   0.310  0.00  0.00    -0.019 A 
ENDROOT
BRANCH   3   7
ATOM      7  N   UNL     1       3.617   2.146  -0.465  0.00  0.00    +0.060 N 
ATOM      8  O   UNL     1       3.585   3.341  -0.644  0.00  0.00    -0.126 OA
ATOM      9  O   UNL     1       4.672   1.556  -0.507  0.00  0.00    -0.126 OA
ENDBRANCH   3   7
BRANCH   6  10
ATOM     10  C   UNL     1      -1.254  -0.734   0.585  0.00  0.00    +0.191 C 
BRANCH  10  11
ATOM     11  O   UNL     1      -1.823  -1.173  -0.651  0.00  0.00    -0.390 OA
ATOM     12  H   UNL     1      -2.650  -1.665  -0.550  0.00  0.00    +0.210 HD
ENDBRANCH  10  11
ENDBRANCH   6  10
BRANCH   4  13
ATOM     13  O   UNL     1       3.586  -0.632  -0.037  0.00  0.00    -0.482 OA
BRANCH  13  14
ATOM     14  C   UNL     1       3.535  -2.056   0.066  0.00  0.00    +0.224 C 
ATOM     15  C   UNL     1       3.431  -2.439   1.560  0.00  0.00    +0.213 C 
ATOM     16  S   UNL     1       4.462  -3.970   1.612  0.00  0.00    -0.025 S 
ATOM     17  O   UNL     1       5.148  -4.033   2.855  0.00  0.00    -0.174 OA
ATOM     18  O   UNL     1       3.684  -5.076   1.179  0.00  0.00    -0.174 OA
ATOM     19  C   UNL     1       5.652  -3.498   0.281  0.00  0.00    +0.201 C 
ATOM     20  C   UNL     1       4.755  -2.638  -0.632  0.00  0.00    +0.177 C 
BRANCH  20  21
ATOM     21  O   UNL     1       5.538  -1.562  -1.154  0.00  0.00    -0.386 OA
ATOM     22  H   UNL     1       6.338  -1.845  -1.616  0.00  0.00    +0.210 HD
ENDBRANCH  20  21
ENDBRANCH  13  14
ENDBRANCH   4  13
TORSDOF 6
