REMARK  Name = ZINC63570077
REMARK  6 active torsions:
REMARK  status: ('A' for Active; 'I' for Inactive)
REMARK    1  A    between atoms: C_1  and  N_2
REMARK    2  A    between atoms: N_5  and  C_8
REMARK    3  A    between atoms: C_8  and  C_9
REMARK    4  A    between atoms: C_9  and  N_10
REMARK    5  A    between atoms: C_11  and  C_13
REMARK    6  A    between atoms: C_18  and  C_19
REMARK                            x       y       z     vdW  Elec       q    Type
REMARK                         _______ _______ _______ _____ _____    ______ ____
ROOT
ATOM      1  N   UNL     1       1.816  -6.132   1.814  0.00  0.00    -0.313 N 
ATOM      2  C   UNL     1       3.047  -6.648   2.002  0.00  0.00    +0.227 C 
ATOM      3  O   UNL     1       3.993  -5.910   2.180  0.00  0.00    -0.275 OA
ATOM      4  H   UNL     1       1.060  -6.722   1.671  0.00  0.00    +0.149 HD
ENDROOT
BRANCH   2   5
ATOM      5  C   UNL     1       3.248  -8.141   1.990  0.00  0.00    +0.164 C 
ATOM      6  C   UNL     1       3.783  -8.598   0.647  0.00  0.00    +0.126 C 
ATOM      7  N   UNL     1       4.936  -9.130   0.888  0.00  0.00    -0.161 NA
ATOM      8  N   UNL     1       5.265  -9.096   2.239  0.00  0.00    -0.157 NA
ATOM      9  C   UNL     1       4.343  -8.541   2.960  0.00  0.00    +0.061 C 
BRANCH   9  10
ATOM     10  C   UNL     1       4.354  -8.333   4.453  0.00  0.00    +0.033 C 
ATOM     11  C   UNL     1       5.704  -8.778   5.022  0.00  0.00    -0.010 C 
ATOM     12  C   UNL     1       5.680  -8.639   6.545  0.00  0.00    -0.082 C 
ATOM     13  N   UNL     1       4.613  -9.480   7.100  0.00  0.00    +0.379 N 
ATOM     14  C   UNL     1       3.308  -9.013   6.615  0.00  0.00    -0.082 C 
ATOM     15  C   UNL     1       3.241  -9.167   5.094  0.00  0.00    -0.010 C 
ATOM     16  H   UNL     1       4.755 -10.436   6.812  0.00  0.00    -0.086 HD
ATOM     17  H   UNL     1       4.634  -9.427   8.108  0.00  0.00    -0.086 HD
ENDBRANCH   9  10
ENDBRANCH   2   5
BRANCH   1  18
ATOM     18  C   UNL     1       1.621  -4.680   1.825  0.00  0.00    +0.119 C 
BRANCH  18  19
ATOM     19  C   UNL     1       0.142  -4.363   1.590  0.00  0.00    +0.103 C 
BRANCH  19  24
ATOM     20  C   UNL     1      -1.465   0.971   2.434  0.00  0.00    -0.096 C 
ATOM     21  N   UNL     1      -1.309  -0.490   2.460  0.00  0.00    +0.379 N 
ATOM     22  C   UNL     1      -1.550  -1.031   1.116  0.00  0.00    -0.064 C 
ATOM     23  C   UNL     1      -1.406  -2.555   1.147  0.00  0.00    +0.066 C 
ATOM     24  N   UNL     1      -0.054  -2.907   1.601  0.00  0.00    -0.304 NA
ATOM     25  C   UNL     1       0.210  -2.350   2.935  0.00  0.00    +0.066 C 
ATOM     26  C   UNL     1       0.053  -0.829   2.890  0.00  0.00    -0.064 C 
ATOM     27  H   UNL     1      -1.975  -0.887   3.106  0.00  0.00    -0.082 HD
ENDBRANCH  19  24
ENDBRANCH  18  19
ENDBRANCH   1  18
TORSDOF 5
