REMARK  Name = ZINC49126809
REMARK  9 active torsions:
REMARK  status: ('A' for Active; 'I' for Inactive)
REMARK    1  A    between atoms: C_1  and  C_2
REMARK    2  A    between atoms: C_2  and  C_3
REMARK    3  A    between atoms: C_3  and  C_5
REMARK    4  A    between atoms: C_3  and  N_8
REMARK    5  A    between atoms: C_5  and  C_6
REMARK    6  A    between atoms: C_5  and  C_7
REMARK    7  A    between atoms: N_8  and  C_9
REMARK    8  A    between atoms: C_9  and  C_11
REMARK    9  A    between atoms: C_9  and  C_12
REMARK                            x       y       z     vdW  Elec       q    Type
REMARK                         _______ _______ _______ _____ _____    ______ ____
ROOT
ATOM      1  C   UNL     1       1.965   1.481  -1.133  0.00  0.00    -0.044 C 
ATOM      2  C   UNL     1       1.301   1.887   0.184  0.00  0.00    -0.009 C 
ENDROOT
BRANCH   1   3
ATOM      3  C   UNL     1       3.333   2.108  -1.220  0.00  0.00    -0.058 A 
ATOM      4  C   UNL     1       4.398   1.534  -0.551  0.00  0.00    +0.006 A 
ATOM      5  C   UNL     1       5.656   2.103  -0.627  0.00  0.00    +0.049 A 
ATOM      6  C   UNL     1       5.846   3.252  -1.376  0.00  0.00    +0.162 A 
ATOM      7  C   UNL     1       4.777   3.828  -2.048  0.00  0.00    +0.162 A 
ATOM      8  C   UNL     1       3.520   3.253  -1.974  0.00  0.00    +0.051 A 
ATOM      9  O   UNL     1       4.975   4.960  -2.785  0.00  0.00    -0.488 OA
ATOM     10  C   UNL     1       5.282   6.142  -2.044  0.00  0.00    +0.232 C 
ATOM     11  C   UNL     1       6.770   6.215  -1.738  0.00  0.00    +0.082 C 
ATOM     12  C   UNL     1       7.229   5.093  -0.821  0.00  0.00    +0.232 C 
ATOM     13  O   UNL     1       7.082   3.823  -1.461  0.00  0.00    -0.488 OA
ENDBRANCH   1   3
BRANCH   1  14
ATOM     14  N   UNL     1       2.093   0.018  -1.187  0.00  0.00    +0.385 N 
ATOM     15  H   UNL     1       2.571  -0.308  -0.361  0.00  0.00    -0.085 HD
ATOM     16  H   UNL     1       2.619  -0.243  -2.007  0.00  0.00    -0.085 HD
BRANCH  14  17
ATOM     17  C   UNL     1       0.756  -0.587  -1.250  0.00  0.00    -0.069 C 
BRANCH  17  18
ATOM     18  C   UNL     1       0.091  -0.220  -2.578  0.00  0.00    -0.031 C 
ATOM     19  C   UNL     1       0.875  -0.848  -3.732  0.00  0.00    +0.005 C 
ATOM     20  C   UNL     1      -1.346  -0.745  -2.591  0.00  0.00    +0.005 C 
ENDBRANCH  17  18
BRANCH  17  22
ATOM     21  C   UNL     1       1.461  -2.481   0.220  0.00  0.00    +0.002 C 
ATOM     22  C   UNL     1       0.880  -2.109  -1.145  0.00  0.00    -0.019 C 
ENDBRANCH  17  22
ENDBRANCH  14  17
ENDBRANCH   1  14
TORSDOF 5
