REMARK  Name = ZINC48770746
REMARK  6 active torsions:
REMARK  status: ('A' for Active; 'I' for Inactive)
REMARK    1  A    between atoms: C_1  and  O_2
REMARK    2  A    between atoms: O_2  and  C_3
REMARK    3  A    between atoms: C_6  and  N_19
REMARK    4  A    between atoms: C_8  and  C_9
REMARK    5  A    between atoms: C_9  and  C_10
REMARK    6  A    between atoms: C_16  and  N_18
REMARK                            x       y       z     vdW  Elec       q    Type
REMARK                         _______ _______ _______ _____ _____    ______ ____
ROOT
ATOM      1  C   UNL     1       0.606  -0.607  -1.056  0.00  0.00    +0.123 A 
ATOM      2  C   UNL     1       1.173   0.161  -2.062  0.00  0.00    +0.048 A 
ATOM      3  C   UNL     1       1.786  -0.455  -3.136  0.00  0.00    +0.036 A 
ATOM      4  C   UNL     1       1.836  -1.835  -3.208  0.00  0.00    +0.127 A 
ATOM      5  C   UNL     1       1.271  -2.602  -2.207  0.00  0.00    +0.040 A 
ATOM      6  C   UNL     1       0.661  -1.991  -1.128  0.00  0.00    -0.003 A 
ENDROOT
BRANCH   4   7
ATOM      7  N   UNL     1       2.494  -2.491  -4.360  0.00  0.00    +0.056 N 
ATOM      8  O   UNL     1       2.987  -1.821  -5.237  0.00  0.00    -0.126 OA
ATOM      9  O   UNL     1       2.537  -3.698  -4.424  0.00  0.00    -0.126 OA
ENDBRANCH   4   7
BRANCH   1  11
ATOM     10  C   UNL     1      -0.017   1.425   0.010  0.00  0.00    +0.277 C 
ATOM     11  O   UNL     1       0.002  -0.004   0.002  0.00  0.00    -0.495 OA
ENDBRANCH   1  11
BRANCH   6  12
ATOM     12  C   UNL     1       0.051  -2.828  -0.033  0.00  0.00    +0.040 C 
BRANCH  12  13
ATOM     13  C   UNL     1      -1.442  -3.020  -0.309  0.00  0.00    -0.021 C 
ATOM     14  C   UNL     1      -2.153  -1.668  -0.229  0.00  0.00    +0.002 C 
ATOM     15  C   UNL     1      -3.646  -1.860  -0.506  0.00  0.00    +0.000 C 
ATOM     16  C   UNL     1      -4.239  -2.811   0.536  0.00  0.00    -0.002 C 
ATOM     17  C   UNL     1      -3.528  -4.163   0.456  0.00  0.00    -0.016 C 
ATOM     18  C   UNL     1      -2.035  -3.971   0.732  0.00  0.00    -0.072 C 
BRANCH  18  19
ATOM     19  N   UNL     1      -1.352  -5.269   0.655  0.00  0.00    +0.380 N 
ATOM     20  H   UNL     1      -0.368  -5.143   0.837  0.00  0.00    -0.090 HD
ATOM     21  H   UNL     1      -1.744  -5.896   1.342  0.00  0.00    -0.090 HD
ATOM     22  H   UNL     1      -1.476  -5.660  -0.267  0.00  0.00    -0.090 HD
ENDBRANCH  18  19
ENDBRANCH  12  13
ENDBRANCH   6  12
TORSDOF 5
