REMARK  Name = ZINC37803228
REMARK  5 active torsions:
REMARK  status: ('A' for Active; 'I' for Inactive)
REMARK    1  A    between atoms: C_6  and  C_20
REMARK    2  A    between atoms: C_11  and  C_13
REMARK    3  A    between atoms: C_13  and  C_15
REMARK    4  A    between atoms: C_13  and  N_19
REMARK    5  A    between atoms: C_15  and  C_16
REMARK                            x       y       z     vdW  Elec       q    Type
REMARK                         _______ _______ _______ _____ _____    ______ ____
ROOT
ATOM      1  C   UNL     1      -0.298   1.492   0.337  0.00  0.00    +0.013 A 
ATOM      2  C   UNL     1       0.780   2.302   0.446  0.00  0.00    +0.046 A 
ATOM      3  S   UNL     1       2.129   1.137   0.324  0.00  0.00    -0.101 S 
ATOM      4  C   UNL     1       1.157  -0.335   0.134  0.00  0.00    -0.004 A 
ATOM      5  C   UNL     1      -0.125   0.118   0.176  0.00  0.00    -0.017 A 
ATOM      6  C   UNL     1      -1.289  -0.863   0.055  0.00  0.00    +0.110 C 
ATOM      7  N   UNL     1      -0.747  -2.148  -0.407  0.00  0.00    -0.295 N 
ATOM      8  C   UNL     1       0.454  -2.692   0.245  0.00  0.00    +0.113 C 
ATOM      9  C   UNL     1       1.628  -1.742  -0.036  0.00  0.00    +0.061 C 
ATOM     10  C   UNL     1      -1.341  -2.819  -1.413  0.00  0.00    +0.202 C 
ATOM     11  O   UNL     1      -2.251  -2.307  -2.029  0.00  0.00    -0.277 OA
ENDROOT
BRANCH   6  12
ATOM     12  C   UNL     1      -2.308  -0.336  -0.958  0.00  0.00    +0.014 C 
ATOM     13  C   UNL     1      -1.892   0.854  -1.825  0.00  0.00    +0.006 C 
ATOM     14  C   UNL     1      -2.910   1.046  -0.700  0.00  0.00    +0.006 C 
ENDBRANCH   6  12
BRANCH  10  15
ATOM     15  C   UNL     1      -0.875  -4.207  -1.772  0.00  0.00    +0.022 C 
BRANCH  15  16
ATOM     16  N   UNL     1      -1.930  -4.898  -2.525  0.00  0.00    +0.386 N 
ATOM     17  H   UNL     1      -1.618  -5.827  -2.766  0.00  0.00    -0.089 HD
ATOM     18  H   UNL     1      -2.763  -4.959  -1.959  0.00  0.00    -0.089 HD
ATOM     19  H   UNL     1      -2.134  -4.383  -3.369  0.00  0.00    -0.089 HD
ENDBRANCH  15  16
BRANCH  15  20
ATOM     20  C   UNL     1       0.388  -4.114  -2.631  0.00  0.00    +0.088 C 
BRANCH  20  21
ATOM     21  C   UNL     1       0.923  -5.499  -2.888  0.00  0.00    +0.209 C 
ATOM     22  O   UNL     1       0.351  -6.465  -2.429  0.00  0.00    -0.276 OA
ATOM     23  N   UNL     1       2.038  -5.664  -3.627  0.00  0.00    -0.329 N 
ATOM     24  H   UNL     1       2.495  -4.892  -3.994  0.00  0.00    +0.145 HD
ATOM     25  H   UNL     1       2.382  -6.556  -3.793  0.00  0.00    +0.145 HD
ENDBRANCH  20  21
ENDBRANCH  15  20
ENDBRANCH  10  15
TORSDOF 5
