REMARK  Name = ZINC39709605
REMARK  6 active torsions:
REMARK  status: ('A' for Active; 'I' for Inactive)
REMARK    1  A    between atoms: C_7  and  C_10
REMARK    2  A    between atoms: C_10  and  C_11
REMARK    3  A    between atoms: C_11  and  N_12
REMARK    4  A    between atoms: C_13  and  C_15
REMARK    5  A    between atoms: C_21  and  C_32
REMARK    6  A    between atoms: C_24  and  C_28
REMARK                            x       y       z     vdW  Elec       q    Type
REMARK                         _______ _______ _______ _____ _____    ______ ____
ROOT
ATOM      1  C   UNL     1      -5.660   7.126  -2.507  0.00  0.00    +0.155 C 
ATOM      2  C   UNL     1      -7.208   7.104  -2.393  0.00  0.00    +0.030 C 
ATOM      3  C   UNL     1      -7.608   8.246  -3.346  0.00  0.00    +0.019 C 
ATOM      4  N   UNL     1      -8.948   8.099  -3.909  0.00  0.00    +0.397 N 
ATOM      5  C   UNL     1      -9.169   9.218  -4.843  0.00  0.00    -0.000 C 
ATOM      6  C   UNL     1      -8.122   9.217  -5.956  0.00  0.00    +0.021 C 
ATOM      7  C   UNL     1      -6.705   9.189  -5.361  0.00  0.00    +0.174 C 
ATOM      8  N   UNL     1      -6.623   8.062  -4.446  0.00  0.00    -0.245 NA
ATOM      9  N   UNL     1      -5.357   7.803  -3.794  0.00  0.00    -0.243 NA
ATOM     10  H   UNL     1      -9.016   7.222  -4.404  0.00  0.00    -0.082 HD
ATOM     11  H   UNL     1      -4.846   8.659  -3.641  0.00  0.00    +0.142 HD
ATOM     12  H   UNL     1      -9.634   8.129  -3.170  0.00  0.00    -0.082 HD
ENDROOT
BRANCH   5  13
ATOM     13  C   UNL     1     -10.540   9.089  -5.454  0.00  0.00    +0.091 A 
ATOM     14  C   UNL     1     -11.391  10.102  -5.698  0.00  0.00    +0.043 A 
ATOM     15  C   UNL     1     -12.551   9.533  -6.272  0.00  0.00    +0.041 A 
ATOM     16  C   UNL     1     -12.340   8.207  -6.345  0.00  0.00    +0.195 A 
ATOM     17  O   UNL     1     -11.118   7.944  -5.853  0.00  0.00    -0.469 OA
ENDBRANCH   5  13
BRANCH   1  19
ATOM     18  N   UNL     1      -4.962   5.047  -1.362  0.00  0.00    -0.314 N 
ATOM     19  C   UNL     1      -5.120   5.719  -2.519  0.00  0.00    +0.231 C 
ATOM     20  O   UNL     1      -4.826   5.191  -3.571  0.00  0.00    -0.274 OA
ATOM     21  H   UNL     1      -5.197   5.469  -0.520  0.00  0.00    +0.149 HD
BRANCH  18  22
ATOM     22  C   UNL     1      -4.437   3.680  -1.374  0.00  0.00    +0.109 C 
BRANCH  22  23
ATOM     23  C   UNL     1      -4.358   3.151   0.060  0.00  0.00    +0.056 C 
BRANCH  23  30
ATOM     24  C   UNL     1      -0.017   1.384   0.010  0.00  0.00    +0.001 A 
ATOM     25  C   UNL     1       0.002  -0.004   0.002  0.00  0.00    +0.002 A 
ATOM     26  C   UNL     1      -1.173  -0.723   0.009  0.00  0.00    +0.026 A 
ATOM     27  C   UNL     1      -2.392  -0.053   0.024  0.00  0.00    +0.047 A 
ATOM     28  N   UNL     1      -3.704  -0.472   0.034  0.00  0.00    -0.360 N 
ATOM     29  C   UNL     1      -4.539   0.612   0.047  0.00  0.00    +0.087 A 
ATOM     30  C   UNL     1      -3.818   1.744   0.047  0.00  0.00    -0.021 A 
ATOM     31  C   UNL     1      -2.406   1.353   0.032  0.00  0.00    +0.003 A 
ATOM     32  C   UNL     1      -1.203   2.062   0.030  0.00  0.00    +0.010 A 
ATOM     33  H   UNL     1      -3.993  -1.398   0.030  0.00  0.00    +0.165 HD
ENDBRANCH  23  30
ENDBRANCH  22  23
ENDBRANCH  18  22
ENDBRANCH   1  19
BRANCH   7  34
ATOM     34  C   UNL     1      -5.673   9.030  -6.480  0.00  0.00    +0.406 C 
ATOM     35  F   UNL     1      -5.779  10.104  -7.369  0.00  0.00    -0.169 F 
ATOM     36  F   UNL     1      -4.388   9.005  -5.929  0.00  0.00    -0.169 F 
ATOM     37  F   UNL     1      -5.910   7.833  -7.164  0.00  0.00    -0.169 F 
ENDBRANCH   7  34
TORSDOF 6
