REMARK  Name = ZINC43091448
REMARK  7 active torsions:
REMARK  status: ('A' for Active; 'I' for Inactive)
REMARK    1  A    between atoms: C_1  and  N_2
REMARK    2  A    between atoms: N_2  and  C_3
REMARK    3  A    between atoms: N_2  and  C_7
REMARK    4  A    between atoms: C_3  and  C_4
REMARK    5  A    between atoms: C_7  and  C_9
REMARK    6  A    between atoms: C_7  and  C_11
REMARK    7  A    between atoms: C_9  and  N_10
REMARK                            x       y       z     vdW  Elec       q    Type
REMARK                         _______ _______ _______ _____ _____    ______ ____
ROOT
ATOM      1  C   UNL     1      -1.334  -0.496  -0.281  0.00  0.00    +0.071 C 
ENDROOT
BRANCH   1   2
ATOM      2  C   UNL     1      -1.714   0.108  -1.609  0.00  0.00    -0.018 A 
ATOM      3  C   UNL     1      -0.729   0.516  -2.489  0.00  0.00    +0.006 A 
ATOM      4  C   UNL     1      -1.077   1.070  -3.707  0.00  0.00    +0.000 A 
ATOM      5  C   UNL     1      -2.410   1.215  -4.045  0.00  0.00    +0.001 A 
ATOM      6  C   UNL     1      -3.395   0.807  -3.165  0.00  0.00    +0.015 A 
ATOM      7  C   UNL     1      -3.047   0.248  -1.948  0.00  0.00    +0.022 A 
ATOM      8 BR   UNL     1      -4.394  -0.317  -0.747  0.00  0.00    -0.050 Br
ENDBRANCH   1   2
BRANCH   1  10
ATOM      9  C   UNL     1       0.006   1.443   0.271  0.00  0.00    +0.106 C 
ATOM     10  N   UNL     1      -0.002  -0.017   0.112  0.00  0.00    -0.292 NA
BRANCH  10  11
ATOM     11  C   UNL     1       0.456  -0.683   1.339  0.00  0.00    +0.180 C 
BRANCH  11  12
ATOM     12  C   UNL     1       1.953  -0.548   1.454  0.00  0.00    +0.225 C 
ATOM     13  O   UNL     1       2.576   0.044   0.599  0.00  0.00    -0.275 OA
ATOM     14  N   UNL     1       2.598  -1.086   2.508  0.00  0.00    -0.328 N 
ATOM     15  H   UNL     1       2.100  -1.559   3.192  0.00  0.00    +0.145 HD
ATOM     16  H   UNL     1       3.562  -0.999   2.583  0.00  0.00    +0.145 HD
ENDBRANCH  11  12
ENDBRANCH  10  11
ENDBRANCH   1  10
BRANCH   1  17
ATOM     17  C   UNL     1      -1.312  -2.021  -0.402  0.00  0.00    -0.063 C 
BRANCH  17  18
ATOM     18  N   UNL     1      -0.229  -2.425  -1.309  0.00  0.00    +0.379 N 
ATOM     19  H   UNL     1      -0.156  -3.431  -1.319  0.00  0.00    -0.090 HD
ATOM     20  H   UNL     1      -0.428  -2.093  -2.240  0.00  0.00    -0.090 HD
ATOM     21  H   UNL     1       0.642  -2.028  -0.990  0.00  0.00    -0.090 HD
ENDBRANCH  17  18
ENDBRANCH   1  17
TORSDOF 6
