REMARK  Name = ZINC43467680
REMARK  9 active torsions:
REMARK  status: ('A' for Active; 'I' for Inactive)
REMARK    1  A    between atoms: C_1  and  C_2
REMARK    2  A    between atoms: C_2  and  C_3
REMARK    3  A    between atoms: C_3  and  C_4
REMARK    4  A    between atoms: C_3  and  C_5
REMARK    5  A    between atoms: C_3  and  C_6
REMARK    6  A    between atoms: C_9  and  C_12
REMARK    7  A    between atoms: C_9  and  N_19
REMARK    8  A    between atoms: N_15  and  C_17
REMARK    9  A    between atoms: C_17  and  C_18
REMARK                            x       y       z     vdW  Elec       q    Type
REMARK                         _______ _______ _______ _____ _____    ______ ____
ROOT
ATOM      1  C   UNL     1       0.947  -2.046   1.340  0.00  0.00    -0.005 C 
ATOM      2  C   UNL     1      -0.518  -2.487   1.300  0.00  0.00    +0.003 C 
ATOM      3  C   UNL     1      -0.589  -4.014   1.238  0.00  0.00    -0.008 C 
ATOM      4  C   UNL     1       0.088  -4.607   2.475  0.00  0.00    -0.042 C 
ATOM      5  C   UNL     1       1.553  -4.166   2.515  0.00  0.00    -0.008 C 
ATOM      6  C   UNL     1       1.624  -2.639   2.577  0.00  0.00    +0.003 C 
ENDROOT
BRANCH   4   7
ATOM      7  C   UNL     1      -0.617  -4.121   3.715  0.00  0.00    -0.021 A 
ATOM      8  C   UNL     1      -1.970  -3.778   3.811  0.00  0.00    +0.136 A 
ATOM      9  N   UNL     1      -2.210  -3.405   5.042  0.00  0.00    -0.179 NA
ATOM     10  N   UNL     1      -1.016  -3.498   5.769  0.00  0.00    -0.271 N 
ATOM     11  C   UNL     1      -0.055  -3.945   4.933  0.00  0.00    +0.110 A 
BRANCH  10  12
ATOM     12  C   UNL     1      -0.843  -3.173   7.187  0.00  0.00    +0.140 C 
ATOM     13  C   UNL     1      -1.321  -1.743   7.444  0.00  0.00    +0.029 C 
ENDBRANCH  10  12
ENDBRANCH   4   7
BRANCH   4  14
ATOM     14  N   UNL     1       0.020  -6.073   2.416  0.00  0.00    +0.385 N 
ATOM     15  H   UNL     1       0.492  -6.399   1.586  0.00  0.00    -0.089 HD
ATOM     16  H   UNL     1       0.466  -6.464   3.232  0.00  0.00    -0.089 HD
ATOM     17  H   UNL     1      -0.946  -6.364   2.389  0.00  0.00    -0.089 HD
ENDBRANCH   4  14
BRANCH   1  18
ATOM     18  C   UNL     1       1.018  -0.519   1.402  0.00  0.00    -0.032 C 
ATOM     19  C   UNL     1       2.482  -0.078   1.442  0.00  0.00    +0.011 C 
ATOM     20  C   UNL     1       0.302  -0.026   2.660  0.00  0.00    +0.011 C 
BRANCH  18  22
ATOM     21  C   UNL     1       0.412   1.601   0.226  0.00  0.00    +0.004 C 
ATOM     22  C   UNL     1       0.341   0.073   0.164  0.00  0.00    +0.003 C 
ENDBRANCH  18  22
ENDBRANCH   1  18
TORSDOF 5
