REMARK  Name = ZINC36977301
REMARK  6 active torsions:
REMARK  status: ('A' for Active; 'I' for Inactive)
REMARK    1  A    between atoms: C_1  and  C_2
REMARK    2  A    between atoms: C_2  and  C_3
REMARK    3  A    between atoms: C_3  and  C_5
REMARK    4  A    between atoms: C_3  and  N_13
REMARK    5  A    between atoms: C_10  and  O_11
REMARK    6  A    between atoms: N_13  and  C_14
REMARK                            x       y       z     vdW  Elec       q    Type
REMARK                         _______ _______ _______ _____ _____    ______ ____
ROOT
ATOM      1  C   UNL     1      -1.940  -0.642  -0.002  0.00  0.00    -0.037 C 
ENDROOT
BRANCH   1   2
ATOM      2  C   UNL     1      -3.251  -0.490  -0.729  0.00  0.00    -0.019 A 
ATOM      3  C   UNL     1      -4.436  -0.465  -0.020  0.00  0.00    +0.020 A 
ATOM      4  C   UNL     1      -5.640  -0.325  -0.686  0.00  0.00    +0.018 A 
ATOM      5  C   UNL     1      -5.660  -0.209  -2.065  0.00  0.00    +0.019 A 
ATOM      6  C   UNL     1      -4.477  -0.234  -2.778  0.00  0.00    +0.047 A 
ATOM      7  C   UNL     1      -3.268  -0.369  -2.111  0.00  0.00    +0.119 A 
ATOM      8 BR   UNL     1      -7.260  -0.291   0.288  0.00  0.00    -0.050 Br
BRANCH   7   9
ATOM      9  O   UNL     1      -2.103  -0.388  -2.811  0.00  0.00    -0.507 OA
ATOM     10  H   UNL     1      -1.826  -1.272  -3.089  0.00  0.00    +0.292 HD
ENDBRANCH   7   9
ENDBRANCH   1   2
BRANCH   1  11
ATOM     11  N   UNL     1      -2.117  -0.276   1.409  0.00  0.00    +0.391 N 
ATOM     12  H   UNL     1      -2.869  -0.819   1.806  0.00  0.00    -0.084 HD
ATOM     13  H   UNL     1      -1.264  -0.463   1.915  0.00  0.00    -0.084 HD
BRANCH  11  14
ATOM     14  C   UNL     1      -2.441   1.154   1.507  0.00  0.00    +0.017 C 
ATOM     15  C   UNL     1      -1.149   1.969   1.604  0.00  0.00    -0.007 C 
ATOM     16  C   UNL     1      -0.093   1.212   2.389  0.00  0.00    +0.000 C 
ATOM     17  C   UNL     1      -0.435   1.027   3.856  0.00  0.00    +0.019 C 
ATOM     18  C   UNL     1      -1.642   0.101   4.022  0.00  0.00    +0.104 C 
ATOM     19  N   UNL     1      -2.870   0.906   3.927  0.00  0.00    -0.317 N 
ATOM     20  C   UNL     1      -3.266   1.404   2.752  0.00  0.00    +0.199 C 
ATOM     21  O   UNL     1      -4.282   2.062   2.681  0.00  0.00    -0.278 OA
ATOM     22  H   UNL     1      -3.399   1.074   4.723  0.00  0.00    +0.149 HD
ENDBRANCH  11  14
ENDBRANCH   1  11
BRANCH   1  24
ATOM     23  C   UNL     1      -0.074  -2.221   0.517  0.00  0.00    +0.002 C 
ATOM     24  C   UNL     1      -1.470  -2.095  -0.097  0.00  0.00    -0.014 C 
ENDBRANCH   1  24
TORSDOF 5
