REMARK  Name = ZINC47274341
REMARK  11 active torsions:
REMARK  status: ('A' for Active; 'I' for Inactive)
REMARK    1  A    between atoms: C_1  and  C_2
REMARK    2  A    between atoms: C_3  and  C_25
REMARK    3  A    between atoms: C_5  and  N_11
REMARK    4  A    between atoms: C_6  and  C_7
REMARK    5  A    between atoms: C_7  and  O_9
REMARK    6  A    between atoms: O_9  and  C_10
REMARK    7  A    between atoms: C_12  and  C_14
REMARK    8  A    between atoms: C_14  and  N_15
REMARK    9  A    between atoms: N_15  and  C_16
REMARK   10  A    between atoms: N_15  and  C_20
REMARK   11  A    between atoms: C_16  and  C_17
REMARK                            x       y       z     vdW  Elec       q    Type
REMARK                         _______ _______ _______ _____ _____    ______ ____
ROOT
ATOM      1  N   UNL     1      -0.425  -3.253   1.507  0.00  0.00    -0.281 N 
ATOM      2  C   UNL     1      -0.408  -4.599   1.433  0.00  0.00    +0.201 C 
ATOM      3  O   UNL     1      -0.706  -5.153   0.395  0.00  0.00    -0.278 OA
ATOM      4  H   UNL     1      -0.187  -2.811   2.336  0.00  0.00    +0.155 HD
ENDROOT
BRANCH   1   9
ATOM      5  C   UNL     1      -1.380   0.887  -1.248  0.00  0.00    +0.045 C 
ATOM      6  C   UNL     1      -1.260  -0.593  -0.993  0.00  0.00    -0.025 A 
ATOM      7  C   UNL     1      -1.522  -1.506  -1.946  0.00  0.00    -0.008 A 
ATOM      8  S   UNL     1      -1.227  -3.055  -1.122  0.00  0.00    -0.078 S 
ATOM      9  C   UNL     1      -0.783  -2.503   0.398  0.00  0.00    +0.086 A 
ATOM     10  C   UNL     1      -0.850  -1.120   0.289  0.00  0.00    +0.091 A 
ATOM     11  C   UNL     1      -1.960  -1.272  -3.369  0.00  0.00    +0.052 C 
BRANCH  10  12
ATOM     12  C   UNL     1      -0.528  -0.242   1.416  0.00  0.00    +0.342 C 
ATOM     13  O   UNL     1      -1.400   0.095   2.194  0.00  0.00    -0.245 OA
BRANCH  12  14
ATOM     14  O   UNL     1       0.737   0.194   1.591  0.00  0.00    -0.464 OA
ATOM     15  C   UNL     1       0.980   1.047   2.711  0.00  0.00    +0.280 C 
ENDBRANCH  12  14
ENDBRANCH  10  12
ENDBRANCH   1   9
BRANCH   2  16
ATOM     16  C   UNL     1      -0.019  -5.416   2.638  0.00  0.00    +0.020 C 
BRANCH  16  17
ATOM     17  N   UNL     1       0.076  -6.832   2.260  0.00  0.00    +0.393 N 
ATOM     18  H   UNL     1      -0.613  -7.038   1.552  0.00  0.00    -0.080 HD
BRANCH  17  19
ATOM     19  C   UNL     1       1.419  -7.109   1.732  0.00  0.00    -0.067 C 
ATOM     20  C   UNL     1       1.787  -6.089   0.626  0.00  0.00    -0.015 C 
ATOM     21  C   UNL     1       3.336  -6.121   0.634  0.00  0.00    -0.002 C 
ATOM     22  C   UNL     1       3.704  -6.256   2.126  0.00  0.00    -0.002 C 
ATOM     23  C   UNL     1       2.485  -6.884   2.824  0.00  0.00    -0.015 C 
ENDBRANCH  17  19
BRANCH  17  24
ATOM     24  C   UNL     1      -0.168  -7.671   3.441  0.00  0.00    +0.019 C 
BRANCH  24  25
ATOM     25  C   UNL     1      -0.237  -9.118   3.023  0.00  0.00    +0.194 C 
ATOM     26  O   UNL     1      -0.074  -9.422   1.860  0.00  0.00    -0.278 OA
ATOM     27  N   UNL     1      -0.480 -10.073   3.942  0.00  0.00    -0.331 N 
ATOM     28  H   UNL     1      -0.611  -9.830   4.872  0.00  0.00    +0.145 HD
ATOM     29  H   UNL     1      -0.524 -11.004   3.673  0.00  0.00    +0.145 HD
ENDBRANCH  24  25
ENDBRANCH  17  24
ENDBRANCH  16  17
ENDBRANCH   2  16
TORSDOF 8
