REMARK  Name = ZINC64137634
REMARK  8 active torsions:
REMARK  status: ('A' for Active; 'I' for Inactive)
REMARK    1  A    between atoms: C_4  and  C_7
REMARK    2  A    between atoms: C_7  and  N_8
REMARK    3  A    between atoms: C_9  and  C_11
REMARK    4  A    between atoms: C_11  and  S_12
REMARK    5  A    between atoms: S_12  and  C_13
REMARK    6  A    between atoms: C_17  and  C_25
REMARK    7  A    between atoms: N_18  and  C_19
REMARK    8  A    between atoms: C_19  and  C_20
REMARK                            x       y       z     vdW  Elec       q    Type
REMARK                         _______ _______ _______ _____ _____    ______ ____
ROOT
ATOM      1  C   UNL     1       8.098  -3.125   4.470  0.00  0.00    +0.237 C 
ATOM      2  N   UNL     1       6.897  -3.865   4.890  0.00  0.00    -0.237 N 
ATOM      3  N   UNL     1       6.283  -3.095   5.885  0.00  0.00    -0.169 NA
ATOM      4  C   UNL     1       6.953  -1.997   6.117  0.00  0.00    +0.147 C 
ATOM      5  N   UNL     1       8.090  -1.911   5.303  0.00  0.00    -0.278 N 
ATOM      6  H   UNL     1       6.591  -4.718   4.545  0.00  0.00    +0.171 HD
ENDROOT
BRANCH   4   7
ATOM      7  C   UNL     1       6.582  -1.028   7.061  0.00  0.00    +0.022 C 
ATOM      8  C   UNL     1       5.528  -1.098   7.973  0.00  0.00    +0.006 A 
ATOM      9  C   UNL     1       4.559  -2.090   8.234  0.00  0.00    +0.010 A 
ATOM     10  C   UNL     1       3.631  -1.886   9.204  0.00  0.00    +0.001 A 
ATOM     11  C   UNL     1       3.609  -0.711   9.959  0.00  0.00    +0.002 A 
ATOM     12  C   UNL     1       4.509   0.283   9.762  0.00  0.00    +0.026 A 
ATOM     13  C   UNL     1       5.509   0.142   8.765  0.00  0.00    +0.043 A 
ATOM     14  N   UNL     1       6.482   0.947   8.386  0.00  0.00    -0.380 N 
ATOM     15  C   UNL     1       7.243   0.310   7.306  0.00  0.00    +0.152 C 
ATOM     16  H   UNL     1       6.667   1.821   8.764  0.00  0.00    +0.160 HD
ENDBRANCH   4   7
BRANCH   1  17
ATOM     17  S   UNL     1       7.992  -2.688   2.712  0.00  0.00    -0.109 S 
BRANCH  17  18
ATOM     18  C   UNL     1       6.448  -1.744   2.587  0.00  0.00    +0.168 C 
BRANCH  18  20
ATOM     19  N   UNL     1       5.146  -0.596   0.825  0.00  0.00    -0.311 N 
ATOM     20  C   UNL     1       6.237  -1.315   1.158  0.00  0.00    +0.223 C 
ATOM     21  O   UNL     1       7.048  -1.616   0.308  0.00  0.00    -0.275 OA
ATOM     22  H   UNL     1       4.498  -0.355   1.505  0.00  0.00    +0.149 HD
BRANCH  19  23
ATOM     23  C   UNL     1       4.940  -0.178  -0.564  0.00  0.00    +0.139 C 
BRANCH  23  27
ATOM     24  C   UNL     1       1.305   2.045  -0.861  0.00  0.00    +0.000 A 
ATOM     25  C   UNL     1       2.494   2.697  -0.597  0.00  0.00    +0.000 A 
ATOM     26  C   UNL     1       3.671   1.978  -0.500  0.00  0.00    +0.005 A 
ATOM     27  C   UNL     1       3.658   0.606  -0.668  0.00  0.00    -0.030 A 
ATOM     28  C   UNL     1       2.468  -0.047  -0.931  0.00  0.00    +0.005 A 
ATOM     29  C   UNL     1       1.292   0.672  -1.029  0.00  0.00    +0.000 A 
ENDBRANCH  23  27
ENDBRANCH  19  23
ENDBRANCH  18  20
ENDBRANCH  17  18
ENDBRANCH   1  17
BRANCH   5  30
ATOM     30  C   UNL     1       9.077  -0.829   5.284  0.00  0.00    +0.183 C 
BRANCH  30  31
ATOM     31  C   UNL     1      10.231  -1.185   6.185  0.00  0.00    +0.122 A 
ATOM     32  C   UNL     1      11.296  -1.932   5.841  0.00  0.00    +0.046 A 
ATOM     33  C   UNL     1      12.126  -2.012   6.983  0.00  0.00    +0.041 A 
ATOM     34  C   UNL     1      11.518  -1.309   7.956  0.00  0.00    +0.195 A 
ATOM     35  O   UNL     1      10.374  -0.806   7.465  0.00  0.00    -0.466 OA
ENDBRANCH  30  31
ENDBRANCH   5  30
TORSDOF 8
