REMARK  Name = ZINC62185765
REMARK  6 active torsions:
REMARK  status: ('A' for Active; 'I' for Inactive)
REMARK    1  A    between atoms: C_1  and  C_2
REMARK    2  A    between atoms: C_7  and  C_8
REMARK    3  A    between atoms: C_11  and  C_16
REMARK    4  A    between atoms: C_13  and  N_15
REMARK    5  A    between atoms: C_16  and  N_17
REMARK    6  A    between atoms: C_22  and  C_24
REMARK                            x       y       z     vdW  Elec       q    Type
REMARK                         _______ _______ _______ _____ _____    ______ ____
ROOT
ATOM      1  C   UNL     1      -0.018   1.503   0.010  0.00  0.00    +0.044 C 
ATOM      2  C   UNL     1       0.002  -0.004   0.002  0.00  0.00    -0.044 A 
ATOM      3  C   UNL     1       0.006  -0.689  -1.199  0.00  0.00    +0.004 A 
ATOM      4  C   UNL     1       0.022  -2.070  -1.206  0.00  0.00    +0.006 A 
ATOM      5  C   UNL     1       0.036  -2.775  -0.013  0.00  0.00    -0.020 A 
ATOM      6  C   UNL     1       0.036  -2.092   1.190  0.00  0.00    +0.125 A 
ATOM      7  C   UNL     1       0.023  -0.701   1.193  0.00  0.00    -0.006 A 
ATOM      8  C   UNL     1       0.025   0.048   2.501  0.00  0.00    +0.048 C 
ATOM      9  O   UNL     1       0.061  -2.743   2.382  0.00  0.00    -0.491 OA
ATOM     10  C   UNL     1      -0.288  -4.128   2.394  0.00  0.00    +0.229 C 
ATOM     11  C   UNL     1       0.506  -4.837   1.290  0.00  0.00    -0.000 C 
ATOM     12  C   UNL     1       0.049  -4.282  -0.062  0.00  0.00    -0.036 C 
ENDROOT
BRANCH  12  13
ATOM     13  N   UNL     1       0.974  -4.730  -1.111  0.00  0.00    +0.383 N 
ATOM     14  H   UNL     1       1.903  -4.391  -0.908  0.00  0.00    -0.089 HD
ATOM     15  H   UNL     1       0.983  -5.738  -1.144  0.00  0.00    -0.089 HD
ATOM     16  H   UNL     1       0.672  -4.367  -2.003  0.00  0.00    -0.089 HD
ENDBRANCH  12  13
BRANCH  11  17
ATOM     17  C   UNL     1       2.001  -4.573   1.479  0.00  0.00    -0.073 C 
BRANCH  17  18
ATOM     18  N   UNL     1       2.452  -5.188   2.734  0.00  0.00    +0.382 N 
ATOM     19  C   UNL     1       2.316  -6.646   2.639  0.00  0.00    -0.078 C 
ATOM     20  C   UNL     1       2.708  -7.286   3.973  0.00  0.00    -0.019 C 
ATOM     21  C   UNL     1       4.161  -6.928   4.297  0.00  0.00    -0.003 C 
ATOM     22  C   UNL     1       4.308  -5.404   4.320  0.00  0.00    -0.016 C 
ATOM     23  C   UNL     1       3.856  -4.833   2.974  0.00  0.00    -0.072 C 
ATOM     24  C   UNL     1       4.001  -3.310   2.992  0.00  0.00    -0.013 C 
ATOM     25  H   UNL     1       1.886  -4.848   3.497  0.00  0.00    -0.081 HD
ENDBRANCH  17  18
ENDBRANCH  11  17
TORSDOF 3
