REMARK  Name = ZINC07923983
REMARK  11 active torsions:
REMARK  status: ('A' for Active; 'I' for Inactive)
REMARK    1  A    between atoms: C_1  and  C_2
REMARK    2  A    between atoms: C_5  and  N_9
REMARK    3  A    between atoms: C_6  and  C_8
REMARK    4  A    between atoms: C_13  and  C_15
REMARK    5  A    between atoms: C_15  and  N_50
REMARK    6  A    between atoms: C_16  and  N_50
REMARK    7  A    between atoms: C_17  and  C_18
REMARK    8  A    between atoms: C_17  and  N_50
REMARK    9  A    between atoms: N_20  and  C_21
REMARK   10  A    between atoms: C_21  and  C_22
REMARK   11  A    between atoms: C_21  and  C_23
REMARK                            x       y       z     vdW  Elec       q    Type
REMARK                         _______ _______ _______ _____ _____    ______ ____
ROOT
ATOM      1  N   UNL     1      -1.191   1.869   0.018  0.00  0.00    -0.269 N 
ATOM      2  C   UNL     1      -0.014   1.212   0.005  0.00  0.00    +0.310 C 
ATOM      3  O   UNL     1       0.003  -0.004   0.006  0.00  0.00    -0.252 OA
ATOM      4  N   UNL     1       1.143   1.901  -0.015  0.00  0.00    -0.241 N 
ATOM      5  C   UNL     1       2.320   1.244  -0.034  0.00  0.00    +0.204 C 
ATOM      6  O   UNL     1       2.336   0.032  -0.032  0.00  0.00    -0.277 OA
ATOM      7  H   UNL     1      -1.205   2.836   0.099  0.00  0.00    +0.156 HD
ATOM      8  H   UNL     1       1.130   2.871  -0.016  0.00  0.00    +0.159 HD
ENDROOT
BRANCH   1  13
ATOM      9  C   UNL     1      -6.057  -1.016  -0.401  0.00  0.00    +0.044 C 
ATOM     10  C   UNL     1      -4.765  -0.250  -0.290  0.00  0.00    -0.050 A 
ATOM     11  C   UNL     1      -3.597  -0.788  -0.799  0.00  0.00    +0.005 A 
ATOM     12  C   UNL     1      -2.411  -0.089  -0.699  0.00  0.00    +0.024 A 
ATOM     13  C   UNL     1      -2.391   1.158  -0.086  0.00  0.00    +0.038 A 
ATOM     14  C   UNL     1      -3.564   1.694   0.428  0.00  0.00    -0.029 A 
ATOM     15  C   UNL     1      -4.748   0.991   0.321  0.00  0.00    +0.008 A 
ATOM     16  C   UNL     1      -3.546   3.043   1.099  0.00  0.00    +0.045 C 
ENDBRANCH   1  13
BRANCH   5  17
ATOM     17  C   UNL     1       3.614   2.015  -0.056  0.00  0.00    +0.019 C 
BRANCH  17  19
ATOM     18  C   UNL     1       4.813   0.313   1.180  0.00  0.00    -0.095 C 
ATOM     19  N   UNL     1       4.739   1.058  -0.095  0.00  0.00    +0.389 N 
ATOM     20  H   UNL     1       4.584   0.392  -0.861  0.00  0.00    -0.081 HD
BRANCH  19  21
ATOM     21  C   UNL     1       6.008   1.778  -0.333  0.00  0.00    +0.019 C 
BRANCH  21  22
ATOM     22  C   UNL     1       7.099   0.770  -0.587  0.00  0.00    +0.197 C 
ATOM     23  O   UNL     1       6.848  -0.416  -0.555  0.00  0.00    -0.278 OA
ATOM     24  N   UNL     1       8.353   1.187  -0.851  0.00  0.00    -0.315 N 
ATOM     25  H   UNL     1       8.554   2.136  -0.876  0.00  0.00    +0.149 HD
BRANCH  24  26
ATOM     26  C   UNL     1       9.414   0.207  -1.097  0.00  0.00    +0.067 C 
ATOM     27  C   UNL     1       9.397  -0.202  -2.572  0.00  0.00    +0.027 C 
ATOM     28  C   UNL     1      10.770   0.827  -0.755  0.00  0.00    +0.027 C 
ENDBRANCH  24  26
ENDBRANCH  21  22
ENDBRANCH  19  21
ENDBRANCH  17  19
ENDBRANCH   5  17
TORSDOF 6
