REMARK  Name = ZINC61595717
REMARK  7 active torsions:
REMARK  status: ('A' for Active; 'I' for Inactive)
REMARK    1  A    between atoms: C_1  and  C_2
REMARK    2  A    between atoms: C_2  and  C_3
REMARK    3  A    between atoms: C_3  and  N_4
REMARK    4  A    between atoms: C_10  and  S_11
REMARK    5  A    between atoms: S_11  and  C_12
REMARK    6  A    between atoms: C_12  and  C_13
REMARK    7  A    between atoms: C_18  and  C_19
REMARK                            x       y       z     vdW  Elec       q    Type
REMARK                         _______ _______ _______ _____ _____    ______ ____
ROOT
ATOM      1  C   UNL     1      -3.788  -3.494  -3.845  0.00  0.00    -0.027 A 
ATOM      2  C   UNL     1      -4.974  -3.451  -3.141  0.00  0.00    +0.005 A 
ATOM      3  C   UNL     1      -6.149  -3.099  -3.780  0.00  0.00    +0.000 A 
ATOM      4  C   UNL     1      -6.144  -2.787  -5.128  0.00  0.00    +0.001 A 
ATOM      5  C   UNL     1      -4.965  -2.826  -5.843  0.00  0.00    +0.011 A 
ATOM      6  C   UNL     1      -3.775  -3.176  -5.203  0.00  0.00    +0.016 A 
ENDROOT
BRANCH   6   7
ATOM      7  C   UNL     1      -2.506  -3.214  -5.963  0.00  0.00    +0.095 C 
ATOM      8  N   UNL     1      -1.788  -4.335  -6.003  0.00  0.00    -0.387 N 
ATOM      9  N   UNL     1      -2.082  -2.128  -6.606  0.00  0.00    -0.345 N 
ATOM     10  H   UNL     1      -2.134  -5.147  -5.603  0.00  0.00    +0.157 HD
ATOM     11  H   UNL     1      -2.605  -1.312  -6.576  0.00  0.00    +0.144 HD
ATOM     12  H   UNL     1      -1.250  -2.153  -7.104  0.00  0.00    +0.144 HD
ATOM     13  H   UNL     1      -0.918  -4.338  -6.433  0.00  0.00    +0.157 HD
ENDBRANCH   6   7
BRANCH   1  14
ATOM     14  C   UNL     1      -2.509  -3.878  -3.147  0.00  0.00    +0.113 C 
BRANCH  14  15
ATOM     15  S   UNL     1      -1.635  -2.378  -2.619  0.00  0.00    -0.081 S 
BRANCH  15  22
ATOM     16  N   UNL     1       0.806  -2.216  -1.262  0.00  0.00    -0.271 N 
ATOM     17  C   UNL     1       1.748  -3.038  -0.756  0.00  0.00    +0.345 A 
ATOM     18  O   UNL     1       2.764  -2.698  -0.176  0.00  0.00    -0.245 OA
ATOM     19  N   UNL     1       1.361  -4.305  -1.009  0.00  0.00    -0.226 N 
ATOM     20  H   UNL     1       1.839  -5.112  -0.762  0.00  0.00    +0.194 HD
ATOM     21  N   UNL     1       0.139  -4.242  -1.693  0.00  0.00    -0.145 NA
ATOM     22  C   UNL     1      -0.181  -2.987  -1.831  0.00  0.00    +0.192 A 
BRANCH  16  23
ATOM     23  C   UNL     1       0.828  -0.752  -1.209  0.00  0.00    +0.129 C 
BRANCH  23  25
ATOM     24  C   UNL     1       0.158   1.251   0.126  0.00  0.00    +0.005 C 
ATOM     25  C   UNL     1       0.136  -0.278   0.071  0.00  0.00    +0.018 C 
ENDBRANCH  23  25
ENDBRANCH  16  23
ENDBRANCH  15  22
ENDBRANCH  14  15
ENDBRANCH   1  14
TORSDOF 6
