REMARK  Name = ZINC44101671
REMARK  6 active torsions:
REMARK  status: ('A' for Active; 'I' for Inactive)
REMARK    1  A    between atoms: C_1  and  C_2
REMARK    2  A    between atoms: C_2  and  C_3
REMARK    3  A    between atoms: C_8  and  O_9
REMARK    4  A    between atoms: O_9  and  C_10
REMARK    5  A    between atoms: C_16  and  N_18
REMARK    6  A    between atoms: N_18  and  C_19
REMARK                            x       y       z     vdW  Elec       q    Type
REMARK                         _______ _______ _______ _____ _____    ______ ____
ROOT
ATOM      1  C   UNL     1      -2.259  -0.592  -3.550  0.00  0.00    +0.165 C 
ATOM      2  C   UNL     1      -3.025   0.665  -3.969  0.00  0.00    +0.107 C 
ATOM      3  C   UNL     1      -2.035   1.801  -4.230  0.00  0.00    +0.173 C 
ATOM      4  C   UNL     1      -1.063   1.399  -5.340  0.00  0.00    +0.063 C 
ATOM      5  C   UNL     1      -0.301   0.141  -4.919  0.00  0.00    -0.007 C 
ATOM      6  C   UNL     1      -1.293  -0.996  -4.665  0.00  0.00    -0.030 C 
ATOM      7  O   UNL     1      -2.754   2.980  -4.627  0.00  0.00    -0.346 OA
ATOM      8  C   UNL     1      -2.921   3.740  -3.406  0.00  0.00    +0.191 C 
ATOM      9  C   UNL     1      -1.587   3.455  -2.673  0.00  0.00    +0.191 C 
ATOM     10  O   UNL     1      -1.304   2.087  -3.031  0.00  0.00    -0.346 OA
ENDROOT
BRANCH   6  11
ATOM     11  N   UNL     1      -0.560  -2.205  -4.264  0.00  0.00    +0.381 N 
ATOM     12  C   UNL     1       0.279  -2.662  -5.380  0.00  0.00    -0.100 C 
ATOM     13  H   UNL     1       0.024  -1.996  -3.468  0.00  0.00    -0.086 HD
ATOM     14  H   UNL     1      -1.217  -2.930  -4.018  0.00  0.00    -0.086 HD
ENDBRANCH   6  11
BRANCH   1  15
ATOM     15  O   UNL     1      -1.522  -0.324  -2.355  0.00  0.00    -0.490 OA
BRANCH  15  21
ATOM     16  C   UNL     1      -1.498  -0.349   0.024  0.00  0.00    -0.006 A 
ATOM     17  C   UNL     1      -2.173  -0.491   1.220  0.00  0.00    +0.007 A 
ATOM     18  C   UNL     1      -3.529  -0.759   1.223  0.00  0.00    +0.000 A 
ATOM     19  C   UNL     1      -4.213  -0.885   0.027  0.00  0.00    +0.004 A 
ATOM     20  C   UNL     1      -3.543  -0.743  -1.172  0.00  0.00    +0.046 A 
ATOM     21  C   UNL     1      -2.183  -0.469  -1.177  0.00  0.00    +0.124 A 
BRANCH  16  23
ATOM     22  C   UNL     1       0.203   1.453  -0.087  0.00  0.00    +0.009 C 
ATOM     23  C   UNL     1      -0.019  -0.057   0.022  0.00  0.00    +0.035 C 
ENDBRANCH  16  23
ENDBRANCH  15  21
ENDBRANCH   1  15
TORSDOF 4
