REMARK  Name = ZINC23989802
REMARK  10 active torsions:
REMARK  status: ('A' for Active; 'I' for Inactive)
REMARK    1  A    between atoms: C_1  and  C_2
REMARK    2  A    between atoms: C_3  and  C_24
REMARK    3  A    between atoms: N_9  and  C_10
REMARK    4  A    between atoms: C_10  and  C_11
REMARK    5  A    between atoms: C_11  and  N_12
REMARK    6  A    between atoms: N_12  and  C_13
REMARK    7  A    between atoms: C_13  and  C_14
REMARK    8  A    between atoms: C_14  and  O_15
REMARK    9  A    between atoms: N_16  and  C_23
REMARK   10  A    between atoms: N_19  and  C_22
REMARK                            x       y       z     vdW  Elec       q    Type
REMARK                         _______ _______ _______ _____ _____    ______ ____
ROOT
ATOM      1  C   UNL     1      -1.248   2.193   0.020  0.00  0.00    +0.065 C 
ATOM      2  C   UNL     1      -0.016   1.326   0.009  0.00  0.00    +0.038 A 
ATOM      3  C   UNL     1       0.002  -0.004   0.002  0.00  0.00    +0.043 A 
ATOM      4  N   UNL     1       1.321  -0.421  -0.013  0.00  0.00    -0.275 N 
ATOM      5  C   UNL     1       2.162  -1.525  -0.027  0.00  0.00    +0.157 A 
ATOM      6  C   UNL     1       3.463  -1.025  -0.036  0.00  0.00    +0.170 A 
ATOM      7  N   UNL     1       3.382   0.303  -0.029  0.00  0.00    -0.193 NA
ATOM      8  C   UNL     1       2.111   0.677  -0.015  0.00  0.00    +0.218 A 
ATOM      9  N   UNL     1       1.291   1.774  -0.001  0.00  0.00    -0.315 N 
ATOM     10  N   UNL     1       4.522  -1.921  -0.052  0.00  0.00    -0.280 N 
ATOM     11  C   UNL     1       4.283  -3.246  -0.057  0.00  0.00    +0.333 A 
ATOM     12  O   UNL     1       5.223  -4.018  -0.070  0.00  0.00    -0.246 OA
ATOM     13  N   UNL     1       3.032  -3.736  -0.047  0.00  0.00    -0.262 N 
ATOM     14  C   UNL     1       1.962  -2.915  -0.032  0.00  0.00    +0.283 A 
ATOM     15  O   UNL     1       0.833  -3.374  -0.024  0.00  0.00    -0.265 OA
ATOM     16  C   UNL     1       2.826  -5.187  -0.053  0.00  0.00    +0.157 C 
ATOM     17  C   UNL     1       5.901  -1.425  -0.063  0.00  0.00    +0.155 C 
ATOM     18  C   UNL     1      -1.208  -0.903   0.009  0.00  0.00    +0.066 C 
ENDROOT
BRANCH   9  19
ATOM     19  C   UNL     1       1.722   3.174   0.002  0.00  0.00    +0.106 C 
BRANCH  19  20
ATOM     20  C   UNL     1       1.886   3.655   1.446  0.00  0.00    -0.061 C 
BRANCH  20  21
ATOM     21  N   UNL     1       2.319   5.058   1.449  0.00  0.00    +0.382 N 
ATOM     22  H   UNL     1       3.280   5.147   0.921  0.00  0.00    -0.086 HD
ATOM     23  H   UNL     1       1.564   5.676   0.940  0.00  0.00    -0.086 HD
BRANCH  21  24
ATOM     24  C   UNL     1       2.487   5.555   2.821  0.00  0.00    -0.054 C 
BRANCH  24  25
ATOM     25  C   UNL     1       2.937   7.016   2.783  0.00  0.00    +0.137 C 
BRANCH  25  26
ATOM     26  O   UNL     1       1.901   7.819   2.215  0.00  0.00    -0.397 OA
ATOM     27  H   UNL     1       2.043   8.905   2.106  0.00  0.00    +0.209 HD
ENDBRANCH  25  26
ENDBRANCH  24  25
ENDBRANCH  21  24
ENDBRANCH  20  21
ENDBRANCH  19  20
ENDBRANCH   9  19
TORSDOF 6
