REMARK  Name = ZINC66561994
REMARK  7 active torsions:
REMARK  status: ('A' for Active; 'I' for Inactive)
REMARK    1  A    between atoms: C_1  and  C_2
REMARK    2  A    between atoms: C_2  and  N_3
REMARK    3  A    between atoms: C_7  and  C_9
REMARK    4  A    between atoms: C_9  and  C_11
REMARK    5  A    between atoms: C_9  and  N_12
REMARK    6  A    between atoms: C_15  and  N_18
REMARK    7  A    between atoms: C_22  and  C_25
REMARK                            x       y       z     vdW  Elec       q    Type
REMARK                         _______ _______ _______ _____ _____    ______ ____
ROOT
ATOM      1  N   UNL     1      -4.490  -5.619  -0.106  0.00  0.00    +0.387 N 
ATOM      2  C   UNL     1      -5.868  -6.116  -0.207  0.00  0.00    -0.076 C 
ATOM      3  C   UNL     1      -5.860  -7.645  -0.260  0.00  0.00    +0.000 C 
ATOM      4  C   UNL     1      -5.059  -8.104  -1.482  0.00  0.00    +0.053 C 
ATOM      5  C   UNL     1      -3.646  -7.519  -1.403  0.00  0.00    +0.000 C 
ATOM      6  C   UNL     1      -3.736  -5.994  -1.308  0.00  0.00    -0.076 C 
ATOM      7  H   UNL     1      -4.048  -6.022   0.707  0.00  0.00    -0.081 HD
ENDROOT
BRANCH   4   8
ATOM      8  N   UNL     1      -4.983  -9.571  -1.496  0.00  0.00    -0.295 NA
ATOM      9  C   UNL     1      -4.294 -10.075  -0.300  0.00  0.00    +0.113 C 
ATOM     10  C   UNL     1      -4.290 -11.606  -0.326  0.00  0.00    +0.175 C 
ATOM     11  O   UNL     1      -3.673 -12.055  -1.536  0.00  0.00    -0.374 OA
ATOM     12  C   UNL     1      -4.319 -11.583  -2.721  0.00  0.00    +0.129 C 
ATOM     13  C   UNL     1      -4.323 -10.052  -2.719  0.00  0.00    +0.116 C 
ATOM     14  C   UNL     1      -3.564 -12.091  -3.951  0.00  0.00    +0.039 C 
ENDBRANCH   4   8
BRANCH   1  15
ATOM     15  C   UNL     1      -4.507  -4.156   0.023  0.00  0.00    +0.017 C 
ATOM     16  C   UNL     1      -5.285  -3.764   1.281  0.00  0.00    -0.004 C 
BRANCH  15  21
ATOM     17  N   UNL     1      -1.224  -0.711  -0.659  0.00  0.00    -0.299 N 
ATOM     18  C   UNL     1      -1.526  -1.949  -0.220  0.00  0.00    +0.306 C 
ATOM     19  O   UNL     1      -0.659  -2.653   0.259  0.00  0.00    -0.252 OA
ATOM     20  N   UNL     1      -2.791  -2.406  -0.312  0.00  0.00    -0.242 N 
ATOM     21  C   UNL     1      -3.093  -3.644   0.126  0.00  0.00    +0.207 C 
ATOM     22  O   UNL     1      -2.228  -4.346   0.604  0.00  0.00    -0.277 OA
ATOM     23  H   UNL     1      -1.916  -0.149  -1.041  0.00  0.00    +0.150 HD
ATOM     24  H   UNL     1      -3.483  -1.845  -0.695  0.00  0.00    +0.159 HD
BRANCH  17  26
ATOM     25  C   UNL     1       0.221   1.207  -1.123  0.00  0.00    +0.024 C 
ATOM     26  C   UNL     1       0.150  -0.214  -0.558  0.00  0.00    +0.102 C 
ENDBRANCH  17  26
ENDBRANCH  15  21
ENDBRANCH   1  15
TORSDOF 4
