REMARK  Name = ZINC15735695
REMARK  19 active torsions:
REMARK  status: ('A' for Active; 'I' for Inactive)
REMARK    1  A    between atoms: C_1  and  C_2
REMARK    2  A    between atoms: C_2  and  C_3
REMARK    3  A    between atoms: C_3  and  N_4
REMARK    4  A    between atoms: C_8  and  C_23
REMARK    5  A    between atoms: C_13  and  C_14
REMARK    6  A    between atoms: C_13  and  C_15
REMARK    7  A    between atoms: N_17  and  C_18
REMARK    8  A    between atoms: C_18  and  C_19
REMARK    9  A    between atoms: C_19  and  C_20
REMARK   10  A    between atoms: C_20  and  C_21
REMARK   11  A    between atoms: C_20  and  C_22
REMARK   12  A    between atoms: N_25  and  C_26
REMARK   13  A    between atoms: C_26  and  C_27
REMARK   14  A    between atoms: C_29  and  O_37
REMARK   15  A    between atoms: C_30  and  O_35
REMARK   16  A    between atoms: C_31  and  O_33
REMARK   17  A    between atoms: O_33  and  C_34
REMARK   18  A    between atoms: O_35  and  C_36
REMARK   19  A    between atoms: O_37  and  C_38
REMARK                            x       y       z     vdW  Elec       q    Type
REMARK                         _______ _______ _______ _____ _____    ______ ____
ROOT
ATOM      1  N   UNL     1      -1.207   3.116   0.878  0.00  0.00    -0.281 N 
ATOM      2  C   UNL     1      -0.625   4.261   0.445  0.00  0.00    +0.266 C 
ATOM      3  O   UNL     1      -0.337   5.164   1.207  0.00  0.00    -0.268 OA
ATOM      4  C   UNL     1      -0.360   4.349  -1.000  0.00  0.00    +0.137 A 
ATOM      5  C   UNL     1       0.359   5.244  -1.750  0.00  0.00    +0.155 A 
ATOM      6  N   UNL     1       0.287   4.826  -3.031  0.00  0.00    -0.230 NA
ATOM      7  C   UNL     1      -0.434   3.735  -3.098  0.00  0.00    +0.200 A 
ATOM      8  N   UNL     1      -0.861   3.407  -1.878  0.00  0.00    -0.323 N 
ATOM      9  C   UNL     1      -1.705   2.303  -1.419  0.00  0.00    +0.158 C 
ATOM     10  C   UNL     1      -1.330   1.944   0.019  0.00  0.00    +0.128 C 
ATOM     11  C   UNL     1      -2.406   1.022   0.596  0.00  0.00    +0.043 C 
ENDROOT
BRANCH  10  12
ATOM     12  C   UNL     1      -0.014   1.209   0.009  0.00  0.00    +0.238 C 
ATOM     13  O   UNL     1       0.002  -0.004   0.002  0.00  0.00    -0.273 OA
ATOM     14  N   UNL     1       1.143   1.898   0.001  0.00  0.00    -0.313 N 
ATOM     15  H   UNL     1       1.130   2.868   0.007  0.00  0.00    +0.149 HD
BRANCH  14  16
ATOM     16  C   UNL     1       2.422   1.183  -0.015  0.00  0.00    +0.104 C 
BRANCH  16  17
ATOM     17  C   UNL     1       3.571   2.193  -0.020  0.00  0.00    +0.022 C 
BRANCH  17  18
ATOM     18  C   UNL     1       4.907   1.446  -0.037  0.00  0.00    -0.016 C 
ATOM     19  C   UNL     1       6.052   2.452  -0.168  0.00  0.00    +0.007 C 
ATOM     20  C   UNL     1       5.066   0.658   1.265  0.00  0.00    +0.007 C 
ENDBRANCH  17  18
ENDBRANCH  16  17
ENDBRANCH  14  16
ENDBRANCH  10  12
BRANCH   5  21
ATOM     21  C   UNL     1       1.074   6.437  -1.251  0.00  0.00    +0.265 C 
ATOM     22  O   UNL     1       1.060   6.702  -0.065  0.00  0.00    -0.268 OA
ATOM     23  N   UNL     1       1.743   7.231  -2.111  0.00  0.00    -0.306 N 
ATOM     24  H   UNL     1       1.754   7.019  -3.057  0.00  0.00    +0.149 HD
BRANCH  23  25
ATOM     25  C   UNL     1       2.452   8.413  -1.616  0.00  0.00    +0.140 C 
BRANCH  25  26
ATOM     26  C   UNL     1       3.112   9.123  -2.770  0.00  0.00    -0.023 A 
ATOM     27  C   UNL     1       4.404   8.792  -3.135  0.00  0.00    +0.054 A 
ATOM     28  C   UNL     1       5.012   9.439  -4.200  0.00  0.00    +0.165 A 
ATOM     29  C   UNL     1       4.326  10.428  -4.894  0.00  0.00    +0.204 A 
ATOM     30  C   UNL     1       3.029  10.761  -4.521  0.00  0.00    +0.165 A 
ATOM     31  C   UNL     1       2.426  10.107  -3.458  0.00  0.00    +0.054 A 
BRANCH  30  32
ATOM     32  O   UNL     1       2.353  11.729  -5.196  0.00  0.00    -0.491 OA
ATOM     33  C   UNL     1       1.025  12.020  -4.757  0.00  0.00    +0.277 C 
ENDBRANCH  30  32
BRANCH  29  34
ATOM     34  O   UNL     1       4.921  11.068  -5.937  0.00  0.00    -0.488 OA
ATOM     35  C   UNL     1       5.662  12.252  -5.634  0.00  0.00    +0.277 C 
ENDBRANCH  29  34
BRANCH  28  36
ATOM     36  O   UNL     1       6.281   9.109  -4.562  0.00  0.00    -0.491 OA
ATOM     37  C   UNL     1       6.926   8.083  -3.804  0.00  0.00    +0.277 C 
ENDBRANCH  28  36
ENDBRANCH  25  26
ENDBRANCH  23  25
ENDBRANCH   5  21
BRANCH   1  38
ATOM     38  C   UNL     1      -1.727   3.055   2.247  0.00  0.00    +0.109 C 
BRANCH  38  40
ATOM     39  C   UNL     1      -1.170   2.494   4.617  0.00  0.00    +0.005 C 
ATOM     40  C   UNL     1      -0.627   2.558   3.188  0.00  0.00    +0.016 C 
ENDBRANCH  38  40
ENDBRANCH   1  38
TORSDOF 12
