REMARK  Name = ZINC24676282
REMARK  10 active torsions:
REMARK  status: ('A' for Active; 'I' for Inactive)
REMARK    1  A    between atoms: C_1  and  C_2
REMARK    2  A    between atoms: C_2  and  C_3
REMARK    3  A    between atoms: C_2  and  C_4
REMARK    4  A    between atoms: C_2  and  N_5
REMARK    5  A    between atoms: C_9  and  C_11
REMARK    6  A    between atoms: C_11  and  N_12
REMARK    7  A    between atoms: N_16  and  C_19
REMARK    8  A    between atoms: C_19  and  C_20
REMARK    9  A    between atoms: N_22  and  C_23
REMARK   10  A    between atoms: N_22  and  C_24
REMARK                            x       y       z     vdW  Elec       q    Type
REMARK                         _______ _______ _______ _____ _____    ______ ____
ROOT
ATOM      1  N   UNL     1       0.714  -0.553   1.212  0.00  0.00    -0.296 NA
ATOM      2  C   UNL     1       2.137  -0.512   0.987  0.00  0.00    +0.083 C 
ATOM      3  C   UNL     1       2.794   0.756   1.571  0.00  0.00    -0.003 C 
ATOM      4  C   UNL     1       1.932   2.012   1.324  0.00  0.00    -0.077 C 
ATOM      5  N   UNL     1       1.352   2.035   0.004  0.00  0.00    +0.386 N 
ATOM      6  C   UNL     1      -0.013   1.463   0.042  0.00  0.00    -0.063 C 
ATOM      7  C   UNL     1       0.002   0.002   0.038  0.00  0.00    +0.066 C 
ATOM      8  H   UNL     1       1.993   1.421  -0.646  0.00  0.00    -0.081 HD
ENDROOT
BRANCH   1   9
ATOM      9  C   UNL     1       0.265  -1.921   1.502  0.00  0.00    +0.180 C 
BRANCH   9  14
ATOM     10  N   UNL     1       0.752  -5.213   4.971  0.00  0.00    -0.294 N 
ATOM     11  C   UNL     1       1.034  -3.984   4.496  0.00  0.00    +0.306 C 
ATOM     12  O   UNL     1       1.736  -3.230   5.141  0.00  0.00    -0.252 OA
ATOM     13  N   UNL     1       0.538  -3.591   3.307  0.00  0.00    -0.239 N 
ATOM     14  C   UNL     1       0.820  -2.361   2.832  0.00  0.00    +0.234 C 
ATOM     15  O   UNL     1       1.520  -1.609   3.475  0.00  0.00    -0.274 OA
ATOM     16  H   UNL     1       0.117  -5.896   4.387  0.00  0.00    +0.151 HD
ATOM     17  H   UNL     1      -0.097  -4.273   2.723  0.00  0.00    +0.159 HD
BRANCH  10  19
ATOM     18  C   UNL     1       0.794  -4.698   7.361  0.00  0.00    +0.031 C 
ATOM     19  C   UNL     1       1.292  -5.641   6.264  0.00  0.00    +0.028 C 
ATOM     20  C   UNL     1       0.825  -7.066   6.565  0.00  0.00    +0.031 C 
ATOM     21  C   UNL     1       2.821  -5.605   6.216  0.00  0.00    +0.031 C 
ENDBRANCH  10  19
ENDBRANCH   9  14
ENDBRANCH   1   9
BRANCH   5  22
ATOM     22  C   UNL     1       1.336   3.400  -0.540  0.00  0.00    +0.019 C 
BRANCH  22  23
ATOM     23  C   UNL     1       0.550   4.298   0.380  0.00  0.00    +0.199 C 
ATOM     24  O   UNL     1       0.124   3.866   1.431  0.00  0.00    -0.278 OA
ATOM     25  N   UNL     1       0.319   5.580   0.036  0.00  0.00    -0.309 N 
ATOM     26  C   UNL     1      -0.445   6.453   0.930  0.00  0.00    +0.131 C 
ATOM     27  C   UNL     1       0.833   6.101  -1.233  0.00  0.00    +0.131 C 
ENDBRANCH  22  23
ENDBRANCH   5  22
TORSDOF 5
