REMARK  Name = ZINC37070939
REMARK  8 active torsions:
REMARK  status: ('A' for Active; 'I' for Inactive)
REMARK    1  A    between atoms: C_1  and  C_2
REMARK    2  A    between atoms: C_4  and  C_8
REMARK    3  A    between atoms: C_5  and  C_7
REMARK    4  A    between atoms: C_8  and  C_10
REMARK    5  A    between atoms: C_8  and  N_11
REMARK    6  A    between atoms: N_11  and  C_12
REMARK    7  A    between atoms: C_12  and  C_14
REMARK    8  A    between atoms: C_12  and  C_15
REMARK                            x       y       z     vdW  Elec       q    Type
REMARK                         _______ _______ _______ _____ _____    ______ ____
ROOT
ATOM      1  N   UNL     1      -2.756  -3.098  -0.587  0.00  0.00    +0.390 N 
ATOM      2  H   UNL     1      -3.248  -2.450   0.009  0.00  0.00    -0.084 HD
ATOM      3  H   UNL     1      -2.639  -2.691  -1.503  0.00  0.00    -0.084 HD
ENDROOT
BRANCH   1   4
ATOM      4  C   UNL     1      -1.437  -3.390  -0.009  0.00  0.00    -0.040 C 
ATOM      5  C   UNL     1      -1.609  -3.892   1.426  0.00  0.00    -0.009 C 
BRANCH   4   9
ATOM      6  C   UNL     1      -0.018   1.503   0.010  0.00  0.00    +0.086 C 
ATOM      7  C   UNL     1       0.002  -0.004   0.002  0.00  0.00    +0.102 A 
ATOM      8  C   UNL     1      -1.078  -0.805   0.003  0.00  0.00    +0.046 A 
ATOM      9  C   UNL     1      -0.601  -2.136  -0.007  0.00  0.00    -0.021 A 
ATOM     10  C   UNL     1       0.742  -2.069  -0.013  0.00  0.00    +0.104 A 
ATOM     11  O   UNL     1       1.102  -0.775  -0.013  0.00  0.00    -0.465 OA
ATOM     12  C   UNL     1       1.684  -3.245  -0.023  0.00  0.00    +0.086 C 
ENDBRANCH   4   9
ENDBRANCH   1   4
BRANCH   1  13
ATOM     13  C   UNL     1      -3.527  -4.343  -0.700  0.00  0.00    -0.006 C 
ATOM     14  C   UNL     1      -2.845  -5.277  -1.701  0.00  0.00    -0.006 C 
BRANCH  13  15
ATOM     15  C   UNL     1      -4.922  -4.028  -1.177  0.00  0.00    +0.092 A 
ATOM     16  C   UNL     1      -6.038  -4.612  -0.721  0.00  0.00    +0.051 A 
ATOM     17  C   UNL     1      -7.150  -4.002  -1.460  0.00  0.00    +0.020 A 
ATOM     18  C   UNL     1      -8.534  -4.169  -1.453  0.00  0.00    +0.011 A 
ATOM     19  C   UNL     1      -9.312  -3.421  -2.293  0.00  0.00    +0.001 A 
ATOM     20  C   UNL     1      -8.732  -2.499  -3.152  0.00  0.00    +0.004 A 
ATOM     21  C   UNL     1      -7.365  -2.320  -3.173  0.00  0.00    +0.047 A 
ATOM     22  C   UNL     1      -6.557  -3.069  -2.327  0.00  0.00    +0.135 A 
ATOM     23  O   UNL     1      -5.226  -3.117  -2.118  0.00  0.00    -0.461 OA
ENDBRANCH  13  15
ENDBRANCH   1  13
TORSDOF 4
