REMARK  Name = ZINC42339615
REMARK  4 active torsions:
REMARK  status: ('A' for Active; 'I' for Inactive)
REMARK    1  A    between atoms: C_3  and  C_4
REMARK    2  A    between atoms: C_4  and  N_5
REMARK    3  A    between atoms: N_8  and  C_11
REMARK    4  A    between atoms: C_18  and  O_20
REMARK                            x       y       z     vdW  Elec       q    Type
REMARK                         _______ _______ _______ _____ _____    ______ ____
ROOT
ATOM      1  N   UNL     1      -0.441  -2.161  -1.070  0.00  0.00    +0.382 N 
ATOM      2  C   UNL     1       0.916  -2.641  -0.777  0.00  0.00    -0.063 C 
ATOM      3  C   UNL     1       0.880  -4.151  -0.527  0.00  0.00    +0.066 C 
ATOM      4  N   UNL     1       0.347  -4.829  -1.718  0.00  0.00    -0.299 NA
ATOM      5  C   UNL     1      -1.001  -4.340  -2.038  0.00  0.00    +0.066 C 
ATOM      6  C   UNL     1      -0.950  -2.829  -2.275  0.00  0.00    -0.063 C 
ATOM      7  H   UNL     1      -1.046  -2.368  -0.290  0.00  0.00    -0.082 HD
ENDROOT
BRANCH   4   8
ATOM      8  C   UNL     1       0.350  -6.287  -1.538  0.00  0.00    +0.107 C 
ATOM      9  C   UNL     1      -0.698  -6.653  -0.463  0.00  0.00    +0.187 C 
ATOM     10  S   UNL     1      -2.126  -7.168  -1.513  0.00  0.00    -0.027 S 
ATOM     11  O   UNL     1      -2.834  -6.013  -1.944  0.00  0.00    -0.174 OA
ATOM     12  O   UNL     1      -2.826  -8.225  -0.871  0.00  0.00    -0.174 OA
ATOM     13  C   UNL     1      -1.149  -7.848  -2.924  0.00  0.00    +0.198 C 
ATOM     14  C   UNL     1       0.098  -6.943  -2.887  0.00  0.00    +0.154 C 
BRANCH  14  15
ATOM     15  O   UNL     1       1.240  -7.731  -3.231  0.00  0.00    -0.389 OA
ATOM     16  H   UNL     1       1.162  -8.185  -4.081  0.00  0.00    +0.210 HD
ENDBRANCH  14  15
ENDBRANCH   4   8
BRANCH   1  17
ATOM     17  C   UNL     1      -0.408  -0.709  -1.292  0.00  0.00    -0.075 C 
BRANCH  17  20
ATOM     18  C   UNL     1      -0.019   1.526   0.010  0.00  0.00    +0.002 C 
ATOM     19  C   UNL     1       1.317   0.779  -0.006  0.00  0.00    +0.002 C 
ATOM     20  C   UNL     1       0.002  -0.004   0.002  0.00  0.00    -0.028 C 
ENDBRANCH  17  20
ENDBRANCH   1  17
TORSDOF 4
