REMARK  Name = ZINC35727684
REMARK  7 active torsions:
REMARK  status: ('A' for Active; 'I' for Inactive)
REMARK    1  A    between atoms: C_1  and  C_2
REMARK    2  A    between atoms: C_2  and  C_3
REMARK    3  A    between atoms: C_3  and  C_5
REMARK    4  A    between atoms: C_3  and  C_6
REMARK    5  A    between atoms: C_6  and  C_8
REMARK    6  A    between atoms: C_6  and  N_25
REMARK    7  A    between atoms: C_14  and  C_16
REMARK                            x       y       z     vdW  Elec       q    Type
REMARK                         _______ _______ _______ _____ _____    ______ ____
ROOT
ATOM      1  C   UNL     1       1.555  -2.507  -2.445  0.00  0.00    +0.204 C 
ATOM      2  O   UNL     1       2.736  -2.780  -2.403  0.00  0.00    -0.277 OA
ATOM      3  N   UNL     1       0.873  -2.639  -3.600  0.00  0.00    -0.265 N 
ATOM      4  C   UNL     1       1.524  -3.087  -4.744  0.00  0.00    +0.188 A 
ATOM      5  N   UNL     1       2.789  -3.442  -4.920  0.00  0.00    -0.125 NA
ATOM      6  N   UNL     1       3.223  -3.831  -6.038  0.00  0.00    -0.140 NA
ATOM      7  C   UNL     1       2.438  -3.909  -7.106  0.00  0.00    +0.134 A 
ATOM      8  S   UNL     1       0.890  -3.357  -6.396  0.00  0.00    -0.030 S 
ATOM      9  H   UNL     1      -0.071  -2.421  -3.633  0.00  0.00    +0.157 HD
ENDROOT
BRANCH   7  10
ATOM     10  C   UNL     1       2.751  -4.335  -8.486  0.00  0.00    +0.013 A 
ATOM     11  C   UNL     1       1.754  -4.331  -9.463  0.00  0.00    +0.014 A 
ATOM     12  C   UNL     1       2.049  -4.729 -10.751  0.00  0.00    +0.050 A 
ATOM     13  C   UNL     1       3.334  -5.133 -11.080  0.00  0.00    +0.166 A 
ATOM     14  C   UNL     1       4.335  -5.140 -10.109  0.00  0.00    +0.167 A 
ATOM     15  C   UNL     1       4.046  -4.737  -8.818  0.00  0.00    +0.060 A 
ATOM     16  O   UNL     1       5.495  -5.574 -10.681  0.00  0.00    -0.453 OA
ATOM     17  C   UNL     1       5.101  -6.221 -11.906  0.00  0.00    +0.466 C 
ATOM     18  O   UNL     1       3.870  -5.564 -12.259  0.00  0.00    -0.453 OA
ENDBRANCH   7  10
BRANCH   1  19
ATOM     19  C   UNL     1       0.849  -2.021  -1.205  0.00  0.00    +0.016 C 
BRANCH  19  20
ATOM     20  N   UNL     1       1.625  -2.406  -0.018  0.00  0.00    +0.386 N 
ATOM     21  H   UNL     1       1.152  -2.080   0.812  0.00  0.00    -0.089 HD
ATOM     22  H   UNL     1       1.711  -3.410   0.016  0.00  0.00    -0.089 HD
ATOM     23  H   UNL     1       2.543  -1.991  -0.067  0.00  0.00    -0.089 HD
ENDBRANCH  19  20
BRANCH  19  24
ATOM     24  C   UNL     1       0.718  -0.497  -1.257  0.00  0.00    -0.020 C 
ATOM     25  C   UNL     1      -0.089  -0.097  -2.493  0.00  0.00    +0.006 C 
BRANCH  24  27
ATOM     26  C   UNL     1      -0.019   1.526   0.010  0.00  0.00    +0.004 C 
ATOM     27  C   UNL     1       0.002  -0.004   0.002  0.00  0.00    -0.001 C 
ENDBRANCH  24  27
ENDBRANCH  19  24
ENDBRANCH   1  19
TORSDOF 5
