REMARK  Name = ZINC32203989
REMARK  9 active torsions:
REMARK  status: ('A' for Active; 'I' for Inactive)
REMARK    1  A    between atoms: C_1  and  C_2
REMARK    2  A    between atoms: C_5  and  O_21
REMARK    3  A    between atoms: C_6  and  C_8
REMARK    4  A    between atoms: C_8  and  C_10
REMARK    5  A    between atoms: C_8  and  O_12
REMARK    6  A    between atoms: C_10  and  N_11
REMARK    7  A    between atoms: O_12  and  C_13
REMARK    8  A    between atoms: C_16  and  C_20
REMARK    9  A    between atoms: O_21  and  C_22
REMARK                            x       y       z     vdW  Elec       q    Type
REMARK                         _______ _______ _______ _____ _____    ______ ____
ROOT
ATOM      1  C   UNL     1       2.514  -2.667  -0.148  0.00  0.00    +0.190 C 
ENDROOT
BRANCH   1   7
ATOM      2  C   UNL     1      -0.118  -6.709   1.183  0.00  0.00    +0.044 C 
ATOM      3  C   UNL     1       1.198  -5.981   1.093  0.00  0.00    -0.050 A 
ATOM      4  C   UNL     1       2.352  -6.582   1.563  0.00  0.00    +0.007 A 
ATOM      5  C   UNL     1       3.560  -5.917   1.481  0.00  0.00    +0.046 A 
ATOM      6  C   UNL     1       3.616  -4.647   0.926  0.00  0.00    +0.127 A 
ATOM      7  C   UNL     1       2.457  -4.047   0.455  0.00  0.00    +0.033 A 
ATOM      8  C   UNL     1       1.250  -4.714   0.544  0.00  0.00    +0.014 A 
BRANCH   6   9
ATOM      9  O   UNL     1       4.803  -3.991   0.845  0.00  0.00    -0.495 OA
ATOM     10  C   UNL     1       5.955  -4.669   1.350  0.00  0.00    +0.277 C 
ENDBRANCH   6   9
ENDBRANCH   1   7
BRANCH   1  11
ATOM     11  C   UNL     1       2.886  -2.772  -1.628  0.00  0.00    -0.036 C 
BRANCH  11  12
ATOM     12  N   UNL     1       3.058  -1.424  -2.186  0.00  0.00    +0.381 N 
ATOM     13  H   UNL     1       3.326  -1.500  -3.250  0.00  0.00    -0.090 HD
ATOM     14  H   UNL     1       3.859  -0.902  -1.643  0.00  0.00    -0.090 HD
ATOM     15  H   UNL     1       2.118  -0.862  -2.083  0.00  0.00    -0.090 HD
ENDBRANCH  11  12
ENDBRANCH   1  11
BRANCH   1  16
ATOM     16  O   UNL     1       1.236  -2.039  -0.021  0.00  0.00    -0.485 OA
BRANCH  16  17
ATOM     17  C   UNL     1       1.222  -0.684   0.090  0.00  0.00    +0.140 A 
ATOM     18  C   UNL     1       2.416   0.017   0.181  0.00  0.00    +0.047 A 
ATOM     19  C   UNL     1       2.399   1.394   0.294  0.00  0.00    +0.007 A 
ATOM     20  C   UNL     1       1.195   2.073   0.316  0.00  0.00    -0.049 A 
ATOM     21  C   UNL     1       0.004   1.377   0.225  0.00  0.00    +0.027 A 
ATOM     22  C   UNL     1       0.015  -0.001   0.112  0.00  0.00    +0.083 A 
ATOM     23 CL   UNL     1      -1.481  -0.875  -0.002  0.00  0.00    -0.080 Cl
ATOM     24  C   UNL     1       1.181   3.575   0.438  0.00  0.00    +0.044 C 
ENDBRANCH  16  17
ENDBRANCH   1  16
TORSDOF 6
