REMARK  Name = ZINC62825505
REMARK  3 active torsions:
REMARK  status: ('A' for Active; 'I' for Inactive)
REMARK    1  A    between atoms: C_5  and  N_10
REMARK    2  A    between atoms: C_6  and  C_7
REMARK    3  A    between atoms: C_16  and  O_19
REMARK                            x       y       z     vdW  Elec       q    Type
REMARK                         _______ _______ _______ _____ _____    ______ ____
ROOT
ATOM      1  N   UNL     1       0.814  -1.963   0.173  0.00  0.00    -0.268 N 
ATOM      2  C   UNL     1       1.887  -2.741   0.423  0.00  0.00    +0.306 C 
ATOM      3  O   UNL     1       2.968  -2.232   0.646  0.00  0.00    -0.252 OA
ATOM      4  N   UNL     1       1.760  -4.083   0.425  0.00  0.00    -0.285 N 
ATOM      5  C   UNL     1       0.441  -4.710   0.263  0.00  0.00    +0.112 C 
ATOM      6  C   UNL     1       0.513  -5.715  -0.891  0.00  0.00    +0.050 C 
ATOM      7  C   UNL     1       1.652  -6.704  -0.632  0.00  0.00    +0.118 C 
ATOM      8  C   UNL     1       2.981  -5.948  -0.567  0.00  0.00    +0.050 C 
ATOM      9  C   UNL     1       2.938  -4.946   0.585  0.00  0.00    +0.112 C 
ATOM     10  H   UNL     1      -0.058  -2.367   0.044  0.00  0.00    +0.156 HD
ENDROOT
BRANCH   1  15
ATOM     11  C   UNL     1       0.193   1.648   0.662  0.00  0.00    +0.032 A 
ATOM     12  C   UNL     1       1.249   2.180  -0.046  0.00  0.00    +0.020 A 
ATOM     13  C   UNL     1       2.158   1.346  -0.681  0.00  0.00    +0.032 A 
ATOM     14  C   UNL     1       2.016  -0.026  -0.609  0.00  0.00    +0.041 A 
ATOM     15  C   UNL     1       0.959  -0.581   0.101  0.00  0.00    +0.063 A 
ATOM     16  C   UNL     1       0.037   0.260   0.744  0.00  0.00    +0.086 A 
ATOM     17 BR   UNL     1       3.263  -1.150  -1.479  0.00  0.00    -0.048 Br
ATOM     18 BR   UNL     1       1.458   4.056  -0.155  0.00  0.00    -0.050 Br
BRANCH  16  19
ATOM     19  C   UNL     1      -1.087  -0.315   1.500  0.00  0.00    +0.388 C 
ATOM     20  O   UNL     1      -1.944   0.419   1.974  0.00  0.00    -0.241 OA
ATOM     21  O   UNL     1      -1.165  -1.526   1.654  0.00  0.00    -0.241 OA
ENDBRANCH  16  19
ENDBRANCH   1  15
BRANCH   7  22
ATOM     22  O   UNL     1       1.700  -7.663  -1.690  0.00  0.00    -0.392 OA
ATOM     23  H   UNL     1       2.401  -8.322  -1.592  0.00  0.00    +0.210 HD
ENDBRANCH   7  22
TORSDOF 3
