REMARK  Name = ZINC04102756
REMARK  7 active torsions:
REMARK  status: ('A' for Active; 'I' for Inactive)
REMARK    1  A    between atoms: C_1  and  O_2
REMARK    2  A    between atoms: O_2  and  C_3
REMARK    3  A    between atoms: C_3  and  C_4
REMARK    4  A    between atoms: C_4  and  N_5
REMARK    5  A    between atoms: N_5  and  C_6
REMARK    6  A    between atoms: C_7  and  C_16
REMARK    7  A    between atoms: C_19  and  O_22
REMARK                            x       y       z     vdW  Elec       q    Type
REMARK                         _______ _______ _______ _____ _____    ______ ____
ROOT
ATOM      1  C   UNL     1       1.509  -3.888  -0.473  0.00  0.00    +0.129 A 
ATOM      2  C   UNL     1       2.199  -4.436  -1.534  0.00  0.00    +0.087 A 
ATOM      3  N   UNL     1       2.055  -5.773  -1.479  0.00  0.00    -0.338 N 
ATOM      4  C   UNL     1       1.308  -6.088  -0.433  0.00  0.00    +0.117 A 
ATOM      5  N   UNL     1       0.956  -4.929   0.220  0.00  0.00    -0.288 N 
ATOM      6  C   UNL     1       0.182  -4.979   1.349  0.00  0.00    +0.114 A 
ATOM      7  C   UNL     1      -0.243  -6.161   1.838  0.00  0.00    +0.058 A 
ATOM      8  C   UNL     1       0.104  -7.363   1.194  0.00  0.00    +0.025 A 
ATOM      9  C   UNL     1       0.864  -7.331   0.067  0.00  0.00    +0.046 A 
ATOM     10 CL   UNL     1      -1.223  -6.201   3.271  0.00  0.00    -0.082 Cl
ATOM     11  H   UNL     1       2.438  -6.405  -2.107  0.00  0.00    +0.167 HD
ENDROOT
BRANCH   2  12
ATOM     12  C   UNL     1       2.963  -3.684  -2.557  0.00  0.00    +0.002 A 
ATOM     13  C   UNL     1       2.418  -2.538  -3.135  0.00  0.00    +0.013 A 
ATOM     14  C   UNL     1       3.133  -1.840  -4.086  0.00  0.00    +0.046 A 
ATOM     15  C   UNL     1       4.393  -2.278  -4.469  0.00  0.00    +0.117 A 
ATOM     16  C   UNL     1       4.939  -3.418  -3.896  0.00  0.00    +0.046 A 
ATOM     17  C   UNL     1       4.232  -4.117  -2.940  0.00  0.00    +0.013 A 
BRANCH  15  18
ATOM     18  O   UNL     1       5.095  -1.588  -5.407  0.00  0.00    -0.507 OA
ATOM     19  H   UNL     1       5.662  -0.895  -5.043  0.00  0.00    +0.292 HD
ENDBRANCH  15  18
ENDBRANCH   2  12
BRANCH   1  20
ATOM     20  N   UNL     1       1.401  -2.532  -0.162  0.00  0.00    -0.326 N 
ATOM     21  H   UNL     1       1.835  -1.870  -0.723  0.00  0.00    +0.148 HD
BRANCH  20  22
ATOM     22  C   UNL     1       0.633  -2.108   1.011  0.00  0.00    +0.131 C 
BRANCH  22  23
ATOM     23  C   UNL     1       0.673  -0.582   1.123  0.00  0.00    +0.178 C 
BRANCH  23  25
ATOM     24  C   UNL     1      -0.017   1.425   0.010  0.00  0.00    +0.194 C 
ATOM     25  O   UNL     1       0.002  -0.004   0.002  0.00  0.00    -0.381 OA
ENDBRANCH  23  25
ENDBRANCH  22  23
ENDBRANCH  20  22
ENDBRANCH   1  20
TORSDOF 6
