REMARK  Name = ZINC44458160
REMARK  5 active torsions:
REMARK  status: ('A' for Active; 'I' for Inactive)
REMARK    1  A    between atoms: C_1  and  N_2
REMARK    2  A    between atoms: C_5  and  N_8
REMARK    3  A    between atoms: N_8  and  C_9
REMARK    4  A    between atoms: C_10  and  C_12
REMARK    5  A    between atoms: N_21  and  C_22
REMARK                            x       y       z     vdW  Elec       q    Type
REMARK                         _______ _______ _______ _____ _____    ______ ____
ROOT
ATOM      1  C   UNL     1       2.249  -6.303   0.039  0.00  0.00    +0.093 C 
ATOM      2  C   UNL     1       3.652  -6.913   0.034  0.00  0.00    +0.016 C 
ATOM      3  C   UNL     1       3.546  -8.440   0.003  0.00  0.00    +0.020 C 
ATOM      4  C   UNL     1       2.814  -8.922   1.259  0.00  0.00    +0.109 C 
ATOM      5  N   UNL     1       1.522  -8.229   1.348  0.00  0.00    -0.285 N 
ATOM      6  C   UNL     1       1.501  -6.761   1.295  0.00  0.00    +0.122 C 
ATOM      7  C   UNL     1       0.376  -8.927   1.476  0.00  0.00    +0.302 C 
ATOM      8  O   UNL     1      -0.693  -8.348   1.466  0.00  0.00    -0.253 OA
ATOM      9  N   UNL     1       0.415 -10.267   1.615  0.00  0.00    -0.296 N 
ATOM     10  H   UNL     1       1.268 -10.722   1.692  0.00  0.00    +0.151 HD
ENDROOT
BRANCH   1  13
ATOM     11  N   UNL     1       1.275  -4.049  -0.260  0.00  0.00    -0.301 N 
ATOM     12  C   UNL     1       1.406  -2.595  -0.383  0.00  0.00    +0.132 C 
ATOM     13  C   UNL     1       2.354  -4.799   0.037  0.00  0.00    +0.220 C 
ATOM     14  O   UNL     1       3.410  -4.265   0.303  0.00  0.00    -0.275 OA
BRANCH  11  19
ATOM     15  C   UNL     1      -4.222  -4.915  -1.182  0.00  0.00    -0.096 C 
ATOM     16  N   UNL     1      -2.865  -4.393  -0.968  0.00  0.00    +0.378 N 
ATOM     17  C   UNL     1      -2.385  -4.812   0.354  0.00  0.00    -0.077 C 
ATOM     18  C   UNL     1      -1.005  -4.205   0.616  0.00  0.00    +0.004 C 
ATOM     19  C   UNL     1      -0.028  -4.687  -0.461  0.00  0.00    +0.072 C 
ATOM     20  C   UNL     1      -0.577  -4.309  -1.840  0.00  0.00    +0.004 C 
ATOM     21  C   UNL     1      -1.972  -4.913  -2.010  0.00  0.00    -0.077 C 
ATOM     22  H   UNL     1      -2.883  -3.385  -1.013  0.00  0.00    -0.082 HD
ENDBRANCH  11  19
ENDBRANCH   1  13
BRANCH   9  23
ATOM     23  C   UNL     1      -0.832 -11.037   1.650  0.00  0.00    +0.075 C 
ATOM     24  C   UNL     1      -0.950 -12.142   2.701  0.00  0.00    +0.024 C 
ATOM     25  C   UNL     1      -0.767 -12.505   1.226  0.00  0.00    +0.024 C 
ENDBRANCH   9  23
TORSDOF 3
