REMARK  Name = ZINC63375797
REMARK  7 active torsions:
REMARK  status: ('A' for Active; 'I' for Inactive)
REMARK    1  A    between atoms: C_1  and  C_2
REMARK    2  A    between atoms: N_20  and  C_23
REMARK    3  A    between atoms: C_28  and  C_29
REMARK    4  A    between atoms: N_31  and  C_32
REMARK    5  A    between atoms: C_32  and  C_33
REMARK    6  A    between atoms: C_33  and  C_34
REMARK    7  A    between atoms: C_33  and  C_35
REMARK                            x       y       z     vdW  Elec       q    Type
REMARK                         _______ _______ _______ _____ _____    ______ ____
ROOT
ATOM      1  C   UNL     1      -0.019   1.526   0.010  0.00  0.00    +0.030 C 
ATOM      2  C   UNL     1       0.002  -0.004   0.002  0.00  0.00    +0.102 C 
ATOM      3  C   UNL     1       0.730  -0.503  -1.251  0.00  0.00    +0.126 C 
ATOM      4  C   UNL     1       2.189  -0.722  -0.888  0.00  0.00    -0.035 C 
ATOM      5  C   UNL     1       2.898   0.063  -1.696  0.00  0.00    -0.001 A 
ATOM      6  C   UNL     1       4.350   0.254  -1.844  0.00  0.00    +0.010 A 
ATOM      7  C   UNL     1       4.743   1.157  -2.781  0.00  0.00    +0.001 A 
ATOM      8  C   UNL     1       3.847   1.880  -3.575  0.00  0.00    +0.002 A 
ATOM      9  C   UNL     1       2.496   1.765  -3.508  0.00  0.00    +0.026 A 
ATOM     10  C   UNL     1       1.963   0.843  -2.561  0.00  0.00    +0.043 A 
ATOM     11  N   UNL     1       0.710   0.521  -2.302  0.00  0.00    -0.376 N 
ATOM     12  C   UNL     1       2.656  -1.638   0.216  0.00  0.00    +0.065 C 
ATOM     13  C   UNL     1       1.523  -1.730   1.250  0.00  0.00    +0.169 C 
ATOM     14  N   UNL     1       0.721  -0.494   1.181  0.00  0.00    -0.268 N 
ATOM     15  C   UNL     1       0.791   0.082   2.391  0.00  0.00    +0.317 C 
ATOM     16  O   UNL     1       0.192   1.095   2.694  0.00  0.00    -0.252 OA
ATOM     17  N   UNL     1       1.595  -0.587   3.227  0.00  0.00    -0.192 N 
ATOM     18  C   UNL     1       2.110  -1.715   2.646  0.00  0.00    +0.248 C 
ATOM     19  O   UNL     1       2.871  -2.527   3.129  0.00  0.00    -0.273 OA
ATOM     20  H   UNL     1      -0.085   0.890  -2.719  0.00  0.00    +0.160 HD
ENDROOT
BRANCH  17  21
ATOM     21  C   UNL     1       1.870  -0.190   4.537  0.00  0.00    +0.058 A 
ATOM     22  C   UNL     1       1.073  -0.636   5.583  0.00  0.00    +0.025 A 
ATOM     23  C   UNL     1       1.347  -0.242   6.877  0.00  0.00    +0.002 A 
ATOM     24  C   UNL     1       2.415   0.598   7.144  0.00  0.00    +0.001 A 
ATOM     25  C   UNL     1       3.216   1.051   6.118  0.00  0.00    +0.015 A 
ATOM     26  C   UNL     1       2.955   0.657   4.804  0.00  0.00    +0.059 A 
BRANCH  26  27
ATOM     27  C   UNL     1       3.813   1.133   3.701  0.00  0.00    +0.246 C 
ATOM     28  O   UNL     1       3.579   0.791   2.558  0.00  0.00    -0.270 OA
ATOM     29  N   UNL     1       4.855   1.947   3.962  0.00  0.00    -0.311 N 
ATOM     30  H   UNL     1       5.041   2.220   4.874  0.00  0.00    +0.149 HD
BRANCH  29  31
ATOM     31  C   UNL     1       5.706   2.420   2.867  0.00  0.00    +0.107 C 
BRANCH  31  32
ATOM     32  C   UNL     1       6.807   3.321   3.430  0.00  0.00    -0.000 C 
ATOM     33  C   UNL     1       7.768   3.715   2.307  0.00  0.00    +0.009 C 
ATOM     34  C   UNL     1       6.178   4.582   4.027  0.00  0.00    +0.009 C 
ENDBRANCH  31  32
ENDBRANCH  29  31
ENDBRANCH  26  27
ENDBRANCH  17  21
TORSDOF 4
