REMARK  Name = ZINC49186624
REMARK  8 active torsions:
REMARK  status: ('A' for Active; 'I' for Inactive)
REMARK    1  A    between atoms: C_1  and  C_2
REMARK    2  A    between atoms: C_5  and  C_7
REMARK    3  A    between atoms: C_7  and  C_9
REMARK    4  A    between atoms: C_7  and  N_10
REMARK    5  A    between atoms: N_10  and  S_11
REMARK    6  A    between atoms: S_11  and  C_14
REMARK    7  A    between atoms: C_19  and  N_20
REMARK    8  A    between atoms: N_20  and  N_21
REMARK                            x       y       z     vdW  Elec       q    Type
REMARK                         _______ _______ _______ _____ _____    ______ ____
ROOT
ATOM      1  S   UNL     1       2.360  -5.397   1.685  0.00  0.00    +0.062 S 
ATOM      2  O   UNL     1       3.418  -5.208   2.615  0.00  0.00    -0.153 OA
ATOM      3  O   UNL     1       1.013  -5.594   2.094  0.00  0.00    -0.153 OA
ENDROOT
BRANCH   1   4
ATOM      4  C   UNL     1       2.797  -6.793   0.702  0.00  0.00    +0.147 A 
ATOM      5  C   UNL     1       1.895  -7.823   0.508  0.00  0.00    +0.048 A 
ATOM      6  C   UNL     1       2.281  -8.904  -0.275  0.00  0.00    +0.038 A 
ATOM      7  C   UNL     1       3.546  -8.918  -0.831  0.00  0.00    +0.128 A 
ATOM      8  N   UNL     1       4.385  -7.920  -0.628  0.00  0.00    -0.236 NA
ATOM      9  C   UNL     1       4.051  -6.870   0.107  0.00  0.00    +0.159 A 
ATOM     10 BR   UNL     1       1.090 -10.341  -0.574  0.00  0.00    -0.049 Br
BRANCH   9  11
ATOM     11  N   UNL     1       4.965  -5.838   0.289  0.00  0.00    -0.266 N 
ATOM     12  H   UNL     1       4.719  -5.059   0.812  0.00  0.00    +0.167 HD
BRANCH  11  13
ATOM     13  N   UNL     1       6.210  -5.922  -0.268  0.00  0.00    -0.255 NA
ATOM     14  H   UNL     1       6.759  -5.104  -0.051  0.00  0.00    +0.140 HD
ATOM     15  H   UNL     1       6.683  -6.763   0.028  0.00  0.00    +0.140 HD
ENDBRANCH  11  13
ENDBRANCH   9  11
ENDBRANCH   1   4
BRANCH   1  16
ATOM     16  N   UNL     1       2.364  -4.075   0.688  0.00  0.00    -0.182 NA
ATOM     17  H   UNL     1       3.000  -3.358   0.836  0.00  0.00    +0.149 HD
BRANCH  16  18
ATOM     18  C   UNL     1       1.407  -3.989  -0.418  0.00  0.00    +0.110 C 
ATOM     19  C   UNL     1       2.165  -3.813  -1.735  0.00  0.00    +0.031 C 
BRANCH  18  24
ATOM     20  C   UNL     1      -1.206   0.910   0.704  0.00  0.00    +0.051 C 
ATOM     21  C   UNL     1      -0.750  -0.477   0.333  0.00  0.00    -0.013 A 
ATOM     22  C   UNL     1      -1.477  -1.514  -0.151  0.00  0.00    +0.011 A 
ATOM     23  C   UNL     1      -0.839  -2.709  -0.425  0.00  0.00    +0.013 A 
ATOM     24  C   UNL     1       0.494  -2.809  -0.202  0.00  0.00    +0.008 A 
ATOM     25  S   UNL     1       0.890  -1.179   0.407  0.00  0.00    -0.097 S 
ENDBRANCH  18  24
ENDBRANCH  16  18
ENDBRANCH   1  16
TORSDOF 6
