REMARK  Name = ZINC50635575
REMARK  7 active torsions:
REMARK  status: ('A' for Active; 'I' for Inactive)
REMARK    1  A    between atoms: C_1  and  C_2
REMARK    2  A    between atoms: C_2  and  N_3
REMARK    3  A    between atoms: C_7  and  S_10
REMARK    4  A    between atoms: S_10  and  N_13
REMARK    5  A    between atoms: N_13  and  C_14
REMARK    6  A    between atoms: C_17  and  C_21
REMARK    7  A    between atoms: C_18  and  C_20
REMARK                            x       y       z     vdW  Elec       q    Type
REMARK                         _______ _______ _______ _____ _____    ______ ____
ROOT
ATOM      1  S   UNL     1      -2.833  -5.637   0.450  0.00  0.00    +0.074 S 
ATOM      2  O   UNL     1      -4.101  -6.002  -0.079  0.00  0.00    -0.150 OA
ATOM      3  O   UNL     1      -1.689  -5.453  -0.371  0.00  0.00    -0.150 OA
ENDROOT
BRANCH   1   8
ATOM      4  N   UNL     1      -3.757  -0.647   3.408  0.00  0.00    -0.331 N 
ATOM      5  C   UNL     1      -3.514  -1.821   2.704  0.00  0.00    +0.096 A 
ATOM      6  C   UNL     1      -2.261  -2.040   2.141  0.00  0.00    +0.043 A 
ATOM      7  C   UNL     1      -2.033  -3.212   1.442  0.00  0.00    +0.033 A 
ATOM      8  C   UNL     1      -3.070  -4.129   1.330  0.00  0.00    +0.124 A 
ATOM      9  C   UNL     1      -4.289  -3.846   1.913  0.00  0.00    +0.113 A 
ATOM     10  N   UNL     1      -4.476  -2.722   2.579  0.00  0.00    -0.348 N 
ATOM     11  H   UNL     1      -4.628  -0.491   3.805  0.00  0.00    +0.147 HD
ATOM     12  H   UNL     1      -5.341  -2.550   2.982  0.00  0.00    +0.167 HD
BRANCH   4  14
ATOM     13  C   UNL     1      -3.221   1.540   4.363  0.00  0.00    +0.024 C 
ATOM     14  C   UNL     1      -2.697   0.354   3.550  0.00  0.00    +0.099 C 
ENDBRANCH   4  14
ENDBRANCH   1   8
BRANCH   1  15
ATOM     15  N   UNL     1      -2.435  -6.796   1.564  0.00  0.00    -0.216 N 
ATOM     16  H   UNL     1      -3.017  -7.560   1.698  0.00  0.00    +0.174 HD
BRANCH  15  17
ATOM     17  C   UNL     1      -1.260  -6.673   2.310  0.00  0.00    +0.048 A 
ATOM     18  C   UNL     1      -0.030  -6.929   1.719  0.00  0.00    +0.025 A 
ATOM     19  C   UNL     1       1.129  -6.806   2.459  0.00  0.00    +0.005 A 
ATOM     20  C   UNL     1       1.066  -6.428   3.788  0.00  0.00    -0.047 A 
ATOM     21  C   UNL     1      -0.157  -6.172   4.380  0.00  0.00    -0.046 A 
ATOM     22  C   UNL     1      -1.320  -6.288   3.643  0.00  0.00    +0.028 A 
ATOM     23  C   UNL     1      -0.222  -5.762   5.829  0.00  0.00    +0.044 C 
ATOM     24  C   UNL     1       2.333  -6.295   4.593  0.00  0.00    +0.044 C 
ENDBRANCH  15  17
ENDBRANCH   1  15
TORSDOF 4
