REMARK  Name = ZINC08643721
REMARK  10 active torsions:
REMARK  status: ('A' for Active; 'I' for Inactive)
REMARK    1  A    between atoms: C_1  and  C_2
REMARK    2  A    between atoms: C_8  and  C_10
REMARK    3  A    between atoms: C_10  and  C_11
REMARK    4  A    between atoms: C_13  and  O_29
REMARK    5  A    between atoms: C_15  and  O_28
REMARK    6  A    between atoms: C_17  and  C_20
REMARK    7  A    between atoms: C_20  and  N_21
REMARK    8  A    between atoms: C_23  and  C_26
REMARK    9  A    between atoms: C_26  and  N_54
REMARK   10  A    between atoms: C_27  and  N_54
REMARK                            x       y       z     vdW  Elec       q    Type
REMARK                         _______ _______ _______ _____ _____    ______ ____
ROOT
ATOM      1  C   UNL     1      -0.753   1.593  -1.232  0.00  0.00    +0.159 C 
ATOM      2  C   UNL     1       0.025   1.201  -2.503  0.00  0.00    +0.175 C 
ATOM      3  C   UNL     1      -0.982   0.352  -3.317  0.00  0.00    +0.176 C 
ATOM      4  C   UNL     1      -2.340   0.796  -2.717  0.00  0.00    +0.171 C 
ATOM      5  O   UNL     1      -2.049   0.977  -1.313  0.00  0.00    -0.366 OA
ENDROOT
BRANCH   3   6
ATOM      6  O   UNL     1      -0.909   0.671  -4.708  0.00  0.00    -0.387 OA
ATOM      7  H   UNL     1      -0.046   0.494  -5.108  0.00  0.00    +0.210 HD
ENDBRANCH   3   6
BRANCH   2   8
ATOM      8  O   UNL     1       0.405   2.367  -3.236  0.00  0.00    -0.387 OA
ATOM      9  H   UNL     1       0.897   2.179  -4.047  0.00  0.00    +0.210 HD
ENDBRANCH   2   8
BRANCH   1  10
ATOM     10  C   UNL     1      -0.013   1.086   0.008  0.00  0.00    +0.130 C 
BRANCH  10  18
ATOM     11  C   UNL     1       2.297   2.193   5.747  0.00  0.00    +0.007 C 
ATOM     12  C   UNL     1       1.290   1.495   4.830  0.00  0.00    -0.011 C 
ATOM     13  C   UNL     1       0.104   2.427   4.573  0.00  0.00    +0.022 C 
ATOM     14  C   UNL     1      -0.918   1.712   3.684  0.00  0.00    +0.108 C 
ATOM     15  N   UNL     1      -0.242   1.246   2.466  0.00  0.00    -0.301 N 
ATOM     16  C   UNL     1       0.961   0.413   2.601  0.00  0.00    +0.108 C 
ATOM     17  C   UNL     1       1.965   1.147   3.502  0.00  0.00    +0.022 C 
ATOM     18  C   UNL     1      -0.718   1.572   1.248  0.00  0.00    +0.218 C 
ATOM     19  O   UNL     1      -1.714   2.256   1.150  0.00  0.00    -0.276 OA
ENDBRANCH  10  18
ENDBRANCH   1  10
BRANCH   4  20
ATOM     20  C   UNL     1      -3.397  -0.292  -2.914  0.00  0.00    +0.179 C 
BRANCH  20  21
ATOM     21  N   UNL     1      -4.696   0.199  -2.447  0.00  0.00    -0.249 N 
ATOM     22  C   UNL     1      -5.837   0.238  -3.174  0.00  0.00    +0.131 A 
ATOM     23  C   UNL     1      -6.785   0.757  -2.360  0.00  0.00    +0.066 A 
ATOM     24  N   UNL     1      -6.185   1.014  -1.192  0.00  0.00    -0.136 NA
ATOM     25  N   UNL     1      -4.947   0.672  -1.276  0.00  0.00    -0.065 NA
BRANCH  23  26
ATOM     26  C   UNL     1      -8.232   1.003  -2.703  0.00  0.00    -0.023 C 
BRANCH  26  28
ATOM     27  C   UNL     1     -10.461   0.065  -2.578  0.00  0.00    -0.100 C 
ATOM     28  N   UNL     1      -9.037  -0.148  -2.254  0.00  0.00    +0.381 N 
ATOM     29  H   UNL     1      -8.934  -0.260  -1.239  0.00  0.00    -0.086 HD
ATOM     30  H   UNL     1      -8.706  -0.998  -2.727  0.00  0.00    -0.086 HD
ENDBRANCH  26  28
ENDBRANCH  23  26
ENDBRANCH  20  21
ENDBRANCH   4  20
TORSDOF 8
