REMARK  Name = ZINC43899994
REMARK  9 active torsions:
REMARK  status: ('A' for Active; 'I' for Inactive)
REMARK    1  A    between atoms: C_1  and  C_2
REMARK    2  A    between atoms: C_2  and  N_3
REMARK    3  A    between atoms: N_3  and  C_4
REMARK    4  A    between atoms: C_4  and  C_6
REMARK    5  A    between atoms: C_4  and  C_19
REMARK    6  A    between atoms: C_6  and  N_7
REMARK    7  A    between atoms: C_19  and  C_20
REMARK    8  A    between atoms: C_19  and  C_21
REMARK    9  A    between atoms: C_19  and  C_22
REMARK                            x       y       z     vdW  Elec       q    Type
REMARK                         _______ _______ _______ _____ _____    ______ ____
ROOT
ATOM      1  C   UNL     1      -2.464  -2.924   0.263  0.00  0.00    -0.094 C 
ENDROOT
BRANCH   1   2
ATOM      2  N   UNL     1      -3.162  -2.363   1.427  0.00  0.00    +0.379 N 
ATOM      3  C   UNL     1      -2.285  -2.434   2.602  0.00  0.00    -0.079 C 
ATOM      4  C   UNL     1      -2.975  -1.782   3.802  0.00  0.00    -0.015 C 
ATOM      5  C   UNL     1      -4.282  -2.529   4.094  0.00  0.00    -0.011 C 
ATOM      6  C   UNL     1      -3.956  -3.976   4.472  0.00  0.00    +0.004 C 
ATOM      7  C   UNL     1      -5.253  -4.745   4.729  0.00  0.00    +0.000 C 
ATOM      8  C   UNL     1      -6.108  -4.736   3.460  0.00  0.00    +0.000 C 
ATOM      9  C   UNL     1      -6.442  -3.292   3.083  0.00  0.00    +0.002 C 
ATOM     10  C   UNL     1      -5.158  -2.499   2.839  0.00  0.00    -0.025 C 
ATOM     11  C   UNL     1      -4.391  -3.126   1.673  0.00  0.00    -0.075 C 
ATOM     12  H   UNL     1      -3.397  -1.399   1.244  0.00  0.00    -0.082 HD
ENDBRANCH   1   2
BRANCH   1  13
ATOM     13  C   UNL     1      -1.277  -2.029  -0.101  0.00  0.00    -0.083 C 
BRANCH  13  14
ATOM     14  C   UNL     1      -0.506  -2.653  -1.266  0.00  0.00    -0.052 C 
ATOM     15  C   UNL     1       0.747  -1.823  -1.551  0.00  0.00    +0.009 C 
ATOM     16  C   UNL     1      -0.099  -4.082  -0.900  0.00  0.00    +0.009 C 
ATOM     17  C   UNL     1      -1.395  -2.679  -2.511  0.00  0.00    +0.009 C 
ENDBRANCH  13  14
BRANCH  13  18
ATOM     18  N   UNL     1      -1.768  -0.702  -0.495  0.00  0.00    +0.380 N 
ATOM     19  H   UNL     1      -2.678  -0.792  -0.921  0.00  0.00    -0.086 HD
ATOM     20  H   UNL     1      -1.127  -0.288  -1.155  0.00  0.00    -0.086 HD
BRANCH  18  22
ATOM     21  C   UNL     1      -2.511   1.489   0.309  0.00  0.00    -0.017 C 
ATOM     22  C   UNL     1      -1.868   0.156   0.694  0.00  0.00    -0.086 C 
ENDBRANCH  18  22
ENDBRANCH  13  18
ENDBRANCH   1  13
TORSDOF 5
