REMARK  Name = ZINC62039471
REMARK  10 active torsions:
REMARK  status: ('A' for Active; 'I' for Inactive)
REMARK    1  A    between atoms: C_1  and  C_2
REMARK    2  A    between atoms: C_3  and  C_33
REMARK    3  A    between atoms: C_5  and  N_10
REMARK    4  A    between atoms: C_6  and  C_7
REMARK    5  A    between atoms: C_11  and  C_13
REMARK    6  A    between atoms: C_13  and  C_14
REMARK    7  A    between atoms: C_17  and  C_19
REMARK    8  A    between atoms: C_22  and  C_25
REMARK    9  A    between atoms: C_25  and  N_26
REMARK   10  A    between atoms: N_29  and  C_32
REMARK                            x       y       z     vdW  Elec       q    Type
REMARK                         _______ _______ _______ _____ _____    ______ ____
ROOT
ATOM      1  C   UNL     1       0.106  -6.842   2.230  0.00  0.00    +0.058 A 
ATOM      2  C   UNL     1       1.081  -7.728   2.565  0.00  0.00    +0.071 A 
ATOM      3  S   UNL     1       0.610  -9.131   1.560  0.00  0.00    -0.075 S 
ATOM      4  C   UNL     1      -0.830  -8.385   0.806  0.00  0.00    +0.109 A 
ATOM      5  N   UNL     1      -0.824  -7.186   1.370  0.00  0.00    -0.243 NA
ENDROOT
BRANCH   4   6
ATOM      6  C   UNL     1      -1.775  -8.955  -0.178  0.00  0.00    +0.007 A 
ATOM      7  C   UNL     1      -2.843  -8.190  -0.648  0.00  0.00    +0.011 A 
ATOM      8  C   UNL     1      -3.722  -8.727  -1.566  0.00  0.00    +0.005 A 
ATOM      9  C   UNL     1      -3.546 -10.022  -2.020  0.00  0.00    -0.033 A 
ATOM     10  C   UNL     1      -2.489 -10.786  -1.558  0.00  0.00    +0.005 A 
ATOM     11  C   UNL     1      -1.600 -10.258  -0.645  0.00  0.00    +0.011 A 
BRANCH   9  12
ATOM     12  C   UNL     1      -4.510 -10.603  -3.022  0.00  0.00    +0.119 C 
BRANCH  12  13
ATOM     13  N   UNL     1      -4.031 -10.322  -4.382  0.00  0.00    -0.302 NA
ATOM     14  C   UNL     1      -4.067  -8.880  -4.665  0.00  0.00    +0.066 C 
ATOM     15  C   UNL     1      -3.506  -8.624  -6.066  0.00  0.00    -0.064 C 
ATOM     16  N   UNL     1      -4.308  -9.355  -7.056  0.00  0.00    +0.379 N 
ATOM     17  C   UNL     1      -4.242 -10.795  -6.775  0.00  0.00    -0.064 C 
ATOM     18  C   UNL     1      -4.809 -11.069  -5.380  0.00  0.00    +0.066 C 
ATOM     19  C   UNL     1      -3.780  -9.095  -8.402  0.00  0.00    -0.096 C 
ATOM     20  H   UNL     1      -5.267  -9.046  -7.006  0.00  0.00    -0.082 HD
ENDBRANCH  12  13
ENDBRANCH   9  12
ENDBRANCH   4   6
BRANCH   1  21
ATOM     21  C   UNL     1       0.089  -5.468   2.850  0.00  0.00    +0.152 C 
BRANCH  21  23
ATOM     22  N   UNL     1       0.054  -3.117   2.083  0.00  0.00    -0.279 N 
ATOM     23  C   UNL     1       0.070  -4.426   1.762  0.00  0.00    +0.223 C 
ATOM     24  O   UNL     1       0.070  -4.765   0.597  0.00  0.00    -0.275 OA
ATOM     25  H   UNL     1       0.054  -2.846   3.014  0.00  0.00    +0.155 HD
BRANCH  22  30
ATOM     26  C   UNL     1      -0.018   1.503   0.010  0.00  0.00    +0.045 C 
ATOM     27  C   UNL     1       0.002  -0.004   0.002  0.00  0.00    -0.027 A 
ATOM     28  C   UNL     1       0.006  -0.713  -1.142  0.00  0.00    -0.008 A 
ATOM     29  S   UNL     1       0.032  -2.400  -0.579  0.00  0.00    -0.078 S 
ATOM     30  C   UNL     1       0.036  -2.158   1.081  0.00  0.00    +0.084 A 
ATOM     31  C   UNL     1       0.024  -0.778   1.222  0.00  0.00    +0.068 A 
ATOM     32  C   UNL     1      -0.007  -0.200  -2.559  0.00  0.00    +0.052 C 
BRANCH  31  33
ATOM     33  C   UNL     1       0.028  -0.138   2.541  0.00  0.00    +0.244 C 
ATOM     34  O   UNL     1      -1.024   0.114   3.099  0.00  0.00    -0.270 OA
ATOM     35  N   UNL     1       1.197   0.172   3.136  0.00  0.00    -0.325 N 
ATOM     36  H   UNL     1       2.035  -0.028   2.692  0.00  0.00    +0.145 HD
ATOM     37  H   UNL     1       1.199   0.596   4.009  0.00  0.00    +0.145 HD
ENDBRANCH  31  33
ENDBRANCH  22  30
ENDBRANCH  21  23
ENDBRANCH   1  21
TORSDOF 7
