REMARK  Name = ZINC37629239
REMARK  7 active torsions:
REMARK  status: ('A' for Active; 'I' for Inactive)
REMARK    1  A    between atoms: C_1  and  C_2
REMARK    2  A    between atoms: C_2  and  C_4
REMARK    3  A    between atoms: C_2  and  N_14
REMARK    4  A    between atoms: C_15  and  C_17
REMARK    5  A    between atoms: C_17  and  N_18
REMARK    6  A    between atoms: C_19  and  C_21
REMARK    7  A    between atoms: C_21  and  N_22
REMARK                            x       y       z     vdW  Elec       q    Type
REMARK                         _______ _______ _______ _____ _____    ______ ____
ROOT
ATOM      1  N   UNL     1       0.711  -0.489   1.189  0.00  0.00    -0.307 N 
ATOM      2  C   UNL     1       2.054  -0.600   1.174  0.00  0.00    +0.231 C 
ATOM      3  O   UNL     1       2.676  -0.297   0.177  0.00  0.00    -0.274 OA
ATOM      4  H   UNL     1       0.213  -0.731   1.986  0.00  0.00    +0.149 HD
ENDROOT
BRANCH   1   6
ATOM      5  C   UNL     1      -0.019   1.526   0.010  0.00  0.00    +0.033 C 
ATOM      6  C   UNL     1       0.002  -0.004   0.002  0.00  0.00    +0.100 C 
BRANCH   6   7
ATOM      7  C   UNL     1      -1.412  -0.526   0.013  0.00  0.00    -0.027 A 
ATOM      8  C   UNL     1      -2.125  -0.572   1.196  0.00  0.00    +0.006 A 
ATOM      9  C   UNL     1      -3.418  -1.054   1.198  0.00  0.00    +0.004 A 
ATOM     10  C   UNL     1      -4.010  -1.491   0.021  0.00  0.00    -0.044 A 
ATOM     11  C   UNL     1      -3.301  -1.440  -1.159  0.00  0.00    -0.044 A 
ATOM     12  C   UNL     1      -2.001  -0.953  -1.159  0.00  0.00    +0.009 A 
ATOM     13  C   UNL     1      -3.885  -1.883  -2.475  0.00  0.00    +0.035 C 
ATOM     14  C   UNL     1      -5.113  -2.762  -2.249  0.00  0.00    +0.005 C 
ATOM     15  C   UNL     1      -6.061  -2.033  -1.290  0.00  0.00    +0.005 C 
ATOM     16  C   UNL     1      -5.421  -2.012   0.097  0.00  0.00    +0.035 C 
ENDBRANCH   6   7
ENDBRANCH   1   6
BRANCH   2  17
ATOM     17  C   UNL     1       2.783  -1.099   2.395  0.00  0.00    +0.200 C 
BRANCH  17  18
ATOM     18  N   UNL     1       4.223  -1.127   2.126  0.00  0.00    -0.308 N 
ATOM     19  C   UNL     1       5.078  -1.542   3.081  0.00  0.00    +0.196 C 
ATOM     20  O   UNL     1       4.656  -1.893   4.163  0.00  0.00    -0.278 OA
ATOM     21  H   UNL     1       4.560  -0.847   1.261  0.00  0.00    +0.149 HD
BRANCH  19  22
ATOM     22  C   UNL     1       6.559  -1.571   2.805  0.00  0.00    +0.011 C 
BRANCH  22  23
ATOM     23  N   UNL     1       7.270  -2.058   3.995  0.00  0.00    +0.384 N 
ATOM     24  H   UNL     1       7.085  -1.442   4.773  0.00  0.00    -0.089 HD
ATOM     25  H   UNL     1       6.951  -2.989   4.220  0.00  0.00    -0.089 HD
ATOM     26  H   UNL     1       8.261  -2.078   3.810  0.00  0.00    -0.089 HD
ENDBRANCH  22  23
ENDBRANCH  19  22
ENDBRANCH  17  18
ENDBRANCH   2  17
TORSDOF 6
