REMARK  Name = ZINC39733174
REMARK  6 active torsions:
REMARK  status: ('A' for Active; 'I' for Inactive)
REMARK    1  A    between atoms: C_1  and  C_2
REMARK    2  A    between atoms: C_4  and  C_10
REMARK    3  A    between atoms: C_5  and  C_9
REMARK    4  A    between atoms: N_7  and  C_8
REMARK    5  A    between atoms: C_10  and  C_11
REMARK    6  A    between atoms: C_16  and  C_19
REMARK                            x       y       z     vdW  Elec       q    Type
REMARK                         _______ _______ _______ _____ _____    ______ ____
ROOT
ATOM      1  C   UNL     1      -3.206   0.965  -0.661  0.00  0.00    +0.223 C 
ATOM      2  O   UNL     1      -2.859   1.642   0.283  0.00  0.00    -0.275 OA
ATOM      3  N   UNL     1      -4.225   1.371  -1.444  0.00  0.00    -0.264 N 
ATOM      4  C   UNL     1      -4.878   2.566  -1.169  0.00  0.00    +0.165 A 
ATOM      5  N   UNL     1      -5.887   3.127  -1.804  0.00  0.00    -0.223 NA
ATOM      6  C   UNL     1      -6.398   4.291  -1.400  0.00  0.00    +0.095 A 
ATOM      7  C   UNL     1      -5.854   4.910  -0.298  0.00  0.00    +0.078 A 
ATOM      8  S   UNL     1      -4.574   3.742   0.142  0.00  0.00    -0.060 S 
ATOM      9  H   UNL     1      -4.503   0.830  -2.199  0.00  0.00    +0.157 HD
ENDROOT
BRANCH   6  10
ATOM     10  C   UNL     1      -7.521   4.902  -2.119  0.00  0.00    +0.071 C 
ATOM     11  N   UNL     1      -8.111   6.032  -1.838  0.00  0.00    -0.258 NA
ATOM     12  C   UNL     1      -9.117   6.331  -2.684  0.00  0.00    +0.107 C 
ATOM     13  C   UNL     1      -9.287   5.402  -3.622  0.00  0.00    -0.001 C 
ATOM     14  C   UNL     1      -8.228   4.351  -3.342  0.00  0.00    +0.086 C 
ENDBRANCH   6  10
BRANCH   1  15
ATOM     15  C   UNL     1      -2.498  -0.332  -0.959  0.00  0.00    +0.130 C 
BRANCH  15  18
ATOM     16  C   UNL     1      -0.019   1.526   0.010  0.00  0.00    +0.030 C 
ATOM     17  C   UNL     1       0.002  -0.004   0.002  0.00  0.00    +0.100 C 
ATOM     18  C   UNL     1      -1.407  -0.553   0.057  0.00  0.00    -0.025 C 
ATOM     19  C   UNL     1      -1.497  -1.261   1.165  0.00  0.00    +0.017 C 
ATOM     20  N   UNL     1      -0.311  -1.258   1.871  0.00  0.00    -0.282 N 
ATOM     21  N   UNL     1       0.644  -0.519   1.228  0.00  0.00    -0.226 NA
ATOM     22  C   UNL     1       1.818  -1.339   0.903  0.00  0.00    +0.128 C 
ATOM     23  C   UNL     1      -2.743  -1.985   1.607  0.00  0.00    +0.062 C 
ATOM     24  H   UNL     1      -0.172  -1.720   2.713  0.00  0.00    +0.166 HD
ENDBRANCH  15  18
ENDBRANCH   1  15
TORSDOF 3
