REMARK  Name = ZINC41162057
REMARK  4 active torsions:
REMARK  status: ('A' for Active; 'I' for Inactive)
REMARK    1  A    between atoms: C_1  and  N_2
REMARK    2  A    between atoms: N_7  and  C_10
REMARK    3  A    between atoms: C_19  and  C_22
REMARK    4  A    between atoms: C_22  and  N_23
REMARK                            x       y       z     vdW  Elec       q    Type
REMARK                         _______ _______ _______ _____ _____    ______ ____
ROOT
ATOM      1  C   UNL     1      -0.018   1.461   0.010  0.00  0.00    +0.155 C 
ATOM      2  N   UNL     1       0.002  -0.004   0.002  0.00  0.00    -0.280 N 
ATOM      3  C   UNL     1      -1.189  -0.713   0.004  0.00  0.00    +0.170 A 
ATOM      4  C   UNL     1      -1.141  -2.102  -0.004  0.00  0.00    +0.150 A 
ATOM      5  C   UNL     1       0.108  -2.747  -0.015  0.00  0.00    +0.282 A 
ATOM      6  O   UNL     1       0.173  -3.964  -0.022  0.00  0.00    -0.265 OA
ATOM      7  N   UNL     1       1.234  -2.004  -0.016  0.00  0.00    -0.262 N 
ATOM      8  C   UNL     1       1.177  -0.661  -0.013  0.00  0.00    +0.333 A 
ATOM      9  O   UNL     1       2.213  -0.023  -0.019  0.00  0.00    -0.246 OA
ATOM     10  C   UNL     1       2.539  -2.671  -0.027  0.00  0.00    +0.157 C 
ATOM     11  N   UNL     1      -2.460  -2.538   0.000  0.00  0.00    -0.320 N 
ATOM     12  H   UNL     1      -2.765  -3.459  -0.003  0.00  0.00    +0.169 HD
ATOM     13  C   UNL     1      -3.240  -1.425   0.011  0.00  0.00    +0.198 A 
ATOM     14  N   UNL     1      -2.474  -0.354   0.013  0.00  0.00    -0.196 NA
ATOM     15  N   UNL     1      -4.616  -1.419   0.017  0.00  0.00    -0.297 N 
ATOM     16  C   UNL     1      -5.379  -2.677   0.020  0.00  0.00    +0.136 C 
ATOM     17  C   UNL     1      -6.427  -2.609  -1.098  0.00  0.00    +0.179 C 
ATOM     18  O   UNL     1      -7.186  -1.406  -0.959  0.00  0.00    -0.375 OA
ATOM     19  C   UNL     1      -6.415  -0.209  -1.095  0.00  0.00    +0.118 C 
ATOM     20  C   UNL     1      -5.367  -0.154   0.029  0.00  0.00    +0.137 C 
ENDROOT
BRANCH  19  21
ATOM     21  C   UNL     1      -7.338   1.007  -0.992  0.00  0.00    -0.053 C 
BRANCH  21  22
ATOM     22  N   UNL     1      -8.345   0.949  -2.060  0.00  0.00    +0.380 N 
ATOM     23  H   UNL     1      -7.883   0.952  -2.958  0.00  0.00    -0.090 HD
ATOM     24  H   UNL     1      -8.889   0.105  -1.964  0.00  0.00    -0.090 HD
ATOM     25  H   UNL     1      -8.953   1.751  -1.993  0.00  0.00    -0.090 HD
ENDBRANCH  21  22
ENDBRANCH  19  21
TORSDOF 2
