REMARK  Name = ZINC40461970
REMARK  3 active torsions:
REMARK  status: ('A' for Active; 'I' for Inactive)
REMARK    1  A    between atoms: C_1  and  N_2
REMARK    2  A    between atoms: N_2  and  C_3
REMARK    3  A    between atoms: C_11  and  C_13
REMARK                            x       y       z     vdW  Elec       q    Type
REMARK                         _______ _______ _______ _____ _____    ______ ____
ROOT
ATOM      1  C   UNL     1      -0.018   1.461   0.010  0.00  0.00    +0.132 C 
ATOM      2  N   UNL     1       0.002  -0.004   0.002  0.00  0.00    -0.298 N 
ATOM      3  C   UNL     1       0.000  -0.672  -1.169  0.00  0.00    +0.236 C 
ATOM      4  O   UNL     1       0.017  -1.884  -1.175  0.00  0.00    -0.274 OA
ENDROOT
BRANCH   3   5
ATOM      5  C   UNL     1      -0.023   0.089  -2.470  0.00  0.00    +0.161 C 
ATOM      6  C   UNL     1      -1.458   0.525  -2.807  0.00  0.00    +0.068 C 
ATOM      7  C   UNL     1      -1.762  -0.156  -4.122  0.00  0.00    -0.024 A 
ATOM      8  C   UNL     1      -2.896  -0.137  -4.912  0.00  0.00    +0.005 A 
ATOM      9  C   UNL     1      -2.933  -0.856  -6.092  0.00  0.00    +0.000 A 
ATOM     10  C   UNL     1      -1.831  -1.596  -6.481  0.00  0.00    +0.002 A 
ATOM     11  C   UNL     1      -0.698  -1.618  -5.697  0.00  0.00    +0.023 A 
ATOM     12  C   UNL     1      -0.653  -0.894  -4.504  0.00  0.00    +0.031 A 
ATOM     13  N   UNL     1       0.386  -0.782  -3.575  0.00  0.00    -0.332 N 
ATOM     14  H   UNL     1       1.250  -1.217  -3.650  0.00  0.00    +0.147 HD
ENDBRANCH   3   5
BRANCH   2  15
ATOM     15  C   UNL     1       0.024  -0.743   1.267  0.00  0.00    +0.098 C 
ATOM     16  C   UNL     1      -1.209  -0.372   2.107  0.00  0.00    +0.046 C 
ATOM     17  C   UNL     1      -1.036  -0.889   3.555  0.00  0.00    +0.168 C 
ATOM     18  S   UNL     1       0.791  -0.893   3.767  0.00  0.00    -0.029 S 
ATOM     19  O   UNL     1       1.229  -2.228   3.981  0.00  0.00    -0.174 OA
ATOM     20  O   UNL     1       1.151   0.119   4.698  0.00  0.00    -0.174 OA
ATOM     21  C   UNL     1       1.295  -0.360   2.077  0.00  0.00    +0.188 C 
ENDBRANCH   2  15
TORSDOF 2
