REMARK  Name = ZINC33589156
REMARK  6 active torsions:
REMARK  status: ('A' for Active; 'I' for Inactive)
REMARK    1  A    between atoms: C_3  and  C_6
REMARK    2  A    between atoms: N_10  and  C_14
REMARK    3  A    between atoms: C_14  and  C_15
REMARK    4  A    between atoms: N_17  and  C_18
REMARK    5  A    between atoms: C_21  and  O_27
REMARK    6  A    between atoms: C_22  and  C_24
REMARK                            x       y       z     vdW  Elec       q    Type
REMARK                         _______ _______ _______ _____ _____    ______ ____
ROOT
ATOM      1  C   UNL     1       3.761  -4.809  -1.242  0.00  0.00    +0.235 C 
ATOM      2  O   UNL     1       3.913  -4.066  -2.189  0.00  0.00    -0.274 OA
ATOM      3  N   UNL     1       3.516  -6.118  -1.445  0.00  0.00    -0.284 N 
ATOM      4  H   UNL     1       3.315  -6.696  -0.692  0.00  0.00    +0.155 HD
ENDROOT
BRANCH   3   5
ATOM      5  C   UNL     1       3.552  -6.645  -2.743  0.00  0.00    +0.034 A 
ATOM      6  C   UNL     1       4.456  -6.139  -3.672  0.00  0.00    +0.027 A 
ATOM      7  C   UNL     1       4.499  -6.651  -4.953  0.00  0.00    +0.048 A 
ATOM      8  C   UNL     1       3.639  -7.674  -5.324  0.00  0.00    +0.131 A 
ATOM      9  C   UNL     1       2.725  -8.190  -4.393  0.00  0.00    +0.106 A 
ATOM     10  C   UNL     1       2.692  -7.669  -3.095  0.00  0.00    +0.042 A 
BRANCH   9  11
ATOM     11  C   UNL     1       1.810  -9.276  -4.779  0.00  0.00    +0.390 C 
ATOM     12  O   UNL     1       1.014  -9.723  -3.964  0.00  0.00    -0.240 OA
ATOM     13  O   UNL     1       1.845  -9.732  -5.913  0.00  0.00    -0.240 OA
ENDBRANCH   9  11
BRANCH   8  14
ATOM     14  O   UNL     1       3.683  -8.176  -6.584  0.00  0.00    -0.506 OA
ATOM     15  H   UNL     1       4.295  -8.917  -6.691  0.00  0.00    +0.292 HD
ENDBRANCH   8  14
ENDBRANCH   3   5
BRANCH   1  16
ATOM     16  C   UNL     1       3.845  -4.266   0.162  0.00  0.00    +0.211 C 
BRANCH  16  21
ATOM     17  C   UNL     1       2.618   0.540  -0.011  0.00  0.00    +0.066 C 
ATOM     18  C   UNL     1       3.442  -0.546   0.032  0.00  0.00    +0.080 C 
ATOM     19  C   UNL     1       3.104  -1.979   0.078  0.00  0.00    +0.259 C 
ATOM     20  O   UNL     1       1.948  -2.363   0.083  0.00  0.00    -0.269 OA
ATOM     21  N   UNL     1       4.117  -2.828   0.114  0.00  0.00    -0.246 N 
ATOM     22  C   UNL     1       5.396  -2.398   0.108  0.00  0.00    +0.121 C 
ATOM     23  S   UNL     1       6.831  -3.330   0.149  0.00  0.00    -0.027 S 
ATOM     24  S   UNL     1       5.228  -0.622   0.038  0.00  0.00    -0.061 S 
BRANCH  17  27
ATOM     25  C   UNL     1      -0.967   0.759   0.325  0.00  0.00    +0.042 A 
ATOM     26  C   UNL     1       0.267   1.362   0.038  0.00  0.00    +0.049 A 
ATOM     27  C   UNL     1       1.227   0.380   0.181  0.00  0.00    +0.129 A 
ATOM     28  O   UNL     1       0.599  -0.760   0.537  0.00  0.00    -0.463 OA
ATOM     29  C   UNL     1      -0.720  -0.535   0.624  0.00  0.00    +0.195 A 
ENDBRANCH  17  27
ENDBRANCH  16  21
ENDBRANCH   1  16
TORSDOF 6
