REMARK  Name = ZINC67525781
REMARK  11 active torsions:
REMARK  status: ('A' for Active; 'I' for Inactive)
REMARK    1  A    between atoms: C_1  and  C_2
REMARK    2  A    between atoms: C_2  and  C_3
REMARK    3  A    between atoms: C_3  and  C_4
REMARK    4  A    between atoms: C_4  and  N_5
REMARK    5  A    between atoms: C_11  and  N_14
REMARK    6  A    between atoms: C_15  and  C_17
REMARK    7  A    between atoms: N_19  and  C_20
REMARK    8  A    between atoms: C_20  and  C_21
REMARK    9  A    between atoms: C_23  and  C_29
REMARK   10  A    between atoms: C_24  and  O_28
REMARK   11  A    between atoms: C_25  and  C_27
REMARK                            x       y       z     vdW  Elec       q    Type
REMARK                         _______ _______ _______ _____ _____    ______ ____
ROOT
ATOM      1  N   UNL     1      -2.100  -6.855  -0.978  0.00  0.00    -0.278 N 
ATOM      2  C   UNL     1      -1.341  -7.862  -1.456  0.00  0.00    +0.303 C 
ATOM      3  O   UNL     1      -0.922  -7.818  -2.594  0.00  0.00    -0.265 OA
ATOM      4  H   UNL     1      -2.368  -6.851  -0.045  0.00  0.00    +0.155 HD
ENDROOT
BRANCH   1  11
ATOM      5  N   UNL     1      -2.808  -2.571  -0.001  0.00  0.00    +0.385 N 
ATOM      6  C   UNL     1      -3.475  -2.320  -1.298  0.00  0.00    -0.042 C 
ATOM      7  C   UNL     1      -3.205  -3.547  -2.140  0.00  0.00    -0.061 A 
ATOM      8  C   UNL     1      -3.291  -3.765  -3.502  0.00  0.00    +0.002 A 
ATOM      9  C   UNL     1      -2.983  -5.006  -4.029  0.00  0.00    +0.002 A 
ATOM     10  C   UNL     1      -2.587  -6.034  -3.194  0.00  0.00    +0.023 A 
ATOM     11  C   UNL     1      -2.499  -5.819  -1.825  0.00  0.00    +0.035 A 
ATOM     12  C   UNL     1      -2.810  -4.571  -1.299  0.00  0.00    -0.041 A 
ATOM     13  C   UNL     1      -2.808  -4.047   0.119  0.00  0.00    -0.040 C 
ATOM     14  H   UNL     1      -3.331  -2.155   0.755  0.00  0.00    -0.081 HD
BRANCH   5  15
ATOM     15  C   UNL     1      -1.432  -2.056  -0.020  0.00  0.00    -0.078 C 
BRANCH  15  16
ATOM     16  C   UNL     1      -1.461  -0.526  -0.018  0.00  0.00    -0.019 C 
BRANCH  16  18
ATOM     17  C   UNL     1      -0.057   1.540  -0.036  0.00  0.00    +0.004 C 
ATOM     18  C   UNL     1      -0.028   0.011  -0.038  0.00  0.00    -0.005 C 
ENDBRANCH  16  18
ENDBRANCH  15  16
ENDBRANCH   5  15
ENDBRANCH   1  11
BRANCH   2  19
ATOM     19  C   UNL     1      -1.017  -9.031  -0.585  0.00  0.00    +0.300 C 
ATOM     20  O   UNL     1      -1.436  -9.075   0.553  0.00  0.00    -0.265 OA
ATOM     21  N   UNL     1      -0.259 -10.038  -1.063  0.00  0.00    -0.303 N 
ATOM     22  H   UNL     1       0.076 -10.002  -1.973  0.00  0.00    +0.149 HD
BRANCH  21  23
ATOM     23  C   UNL     1       0.059 -11.185  -0.209  0.00  0.00    +0.140 C 
BRANCH  23  24
ATOM     24  C   UNL     1       0.913 -12.161  -0.977  0.00  0.00    -0.030 A 
ATOM     25  C   UNL     1       0.317 -13.165  -1.718  0.00  0.00    +0.012 A 
ATOM     26  C   UNL     1       1.098 -14.061  -2.422  0.00  0.00    -0.008 A 
ATOM     27  C   UNL     1       2.481 -13.953  -2.385  0.00  0.00    +0.123 A 
ATOM     28  C   UNL     1       3.076 -12.945  -1.641  0.00  0.00    -0.008 A 
ATOM     29  C   UNL     1       2.291 -12.048  -0.943  0.00  0.00    +0.012 A 
ATOM     30  C   UNL     1       4.577 -12.824  -1.599  0.00  0.00    +0.047 C 
ATOM     31  C   UNL     1       0.448 -15.155  -3.229  0.00  0.00    +0.047 C 
BRANCH  27  32
ATOM     32  O   UNL     1       3.251 -14.834  -3.077  0.00  0.00    -0.506 OA
ATOM     33  H   UNL     1       3.450 -14.556  -3.981  0.00  0.00    +0.292 HD
ENDBRANCH  27  32
ENDBRANCH  23  24
ENDBRANCH  21  23
ENDBRANCH   2  19
TORSDOF 8
