REMARK  Name = ZINC47980129
REMARK  5 active torsions:
REMARK  status: ('A' for Active; 'I' for Inactive)
REMARK    1  A    between atoms: C_1  and  C_2
REMARK    2  A    between atoms: C_8  and  N_10
REMARK    3  A    between atoms: N_10  and  C_11
REMARK    4  A    between atoms: C_11  and  C_12
REMARK    5  A    between atoms: N_14  and  C_15
REMARK                            x       y       z     vdW  Elec       q    Type
REMARK                         _______ _______ _______ _____ _____    ______ ____
ROOT
ATOM      1  C   UNL     1       2.794  -0.389   2.478  0.00  0.00    +0.015 C 
ENDROOT
BRANCH   1   2
ATOM      2  C   UNL     1       4.208   0.133   2.467  0.00  0.00    +0.196 C 
ATOM      3  O   UNL     1       4.614   0.764   1.515  0.00  0.00    -0.278 OA
ATOM      4  N   UNL     1       5.021  -0.102   3.516  0.00  0.00    -0.314 N 
ATOM      5  H   UNL     1       4.696  -0.607   4.278  0.00  0.00    +0.149 HD
BRANCH   4   6
ATOM      6  C   UNL     1       6.395   0.405   3.506  0.00  0.00    +0.073 C 
ATOM      7  C   UNL     1       7.280  -0.568   2.700  0.00  0.00    +0.022 C 
ATOM      8  C   UNL     1       8.517   0.167   2.256  0.00  0.00    +0.002 C 
ATOM      9  C   UNL     1       9.695  -0.020   3.231  0.00  0.00    +0.000 C 
ATOM     10  C   UNL     1       9.266   0.055   4.708  0.00  0.00    +0.000 C 
ATOM     11  C   UNL     1       8.271   1.155   4.964  0.00  0.00    +0.002 C 
ATOM     12  C   UNL     1       6.851   0.560   4.879  0.00  0.00    +0.022 C 
ENDBRANCH   4   6
ENDBRANCH   1   2
BRANCH   1  13
ATOM     13  N   UNL     1       2.120  -0.002   1.231  0.00  0.00    +0.387 N 
ATOM     14  H   UNL     1       2.617  -0.394   0.445  0.00  0.00    -0.085 HD
ATOM     15  H   UNL     1       2.107   1.004   1.154  0.00  0.00    -0.085 HD
BRANCH  13  22
ATOM     16  C   UNL     1      -0.019   1.526   0.010  0.00  0.00    +0.006 C 
ATOM     17  C   UNL     1       0.002  -0.004   0.002  0.00  0.00    -0.028 C 
ATOM     18  C   UNL     1      -1.433  -0.534   0.013  0.00  0.00    +0.002 C 
ATOM     19  C   UNL     1      -1.413  -2.063   0.004  0.00  0.00    +0.000 C 
ATOM     20  C   UNL     1      -0.673  -2.570   1.244  0.00  0.00    -0.002 C 
ATOM     21  C   UNL     1       0.763  -2.041   1.233  0.00  0.00    -0.015 C 
ATOM     22  C   UNL     1       0.742  -0.511   1.242  0.00  0.00    -0.068 C 
ENDBRANCH  13  22
ENDBRANCH   1  13
TORSDOF 4
