REMARK  Name = ZINC57789482
REMARK  11 active torsions:
REMARK  status: ('A' for Active; 'I' for Inactive)
REMARK    1  A    between atoms: C_1  and  C_2
REMARK    2  A    between atoms: C_2  and  C_4
REMARK    3  A    between atoms: C_2  and  N_6
REMARK    4  A    between atoms: C_4  and  N_5
REMARK    5  A    between atoms: C_9  and  C_21
REMARK    6  A    between atoms: C_14  and  C_18
REMARK    7  A    between atoms: C_18  and  C_19
REMARK    8  A    between atoms: C_18  and  C_20
REMARK    9  A    between atoms: C_21  and  C_22
REMARK   10  A    between atoms: C_21  and  C_23
REMARK   11  A    between atoms: C_21  and  C_24
REMARK                            x       y       z     vdW  Elec       q    Type
REMARK                         _______ _______ _______ _____ _____    ______ ____
ROOT
ATOM      1  N   UNL     1       0.688  -0.476  -1.203  0.00  0.00    -0.264 N 
ATOM      2  C   UNL     1       0.017  -1.282  -2.134  0.00  0.00    +0.079 A 
ATOM      3  C   UNL     1      -1.364  -1.389  -2.114  0.00  0.00    +0.031 A 
ATOM      4  C   UNL     1      -2.006  -2.190  -3.040  0.00  0.00    -0.040 A 
ATOM      5  C   UNL     1      -1.273  -2.884  -3.985  0.00  0.00    +0.008 A 
ATOM      6  C   UNL     1       0.106  -2.782  -4.011  0.00  0.00    +0.048 A 
ATOM      7  C   UNL     1       0.755  -1.981  -3.088  0.00  0.00    +0.143 A 
ATOM      8  O   UNL     1       2.110  -1.867  -3.101  0.00  0.00    -0.477 OA
ATOM      9  C   UNL     1       2.652  -0.606  -2.700  0.00  0.00    +0.262 C 
ATOM     10  C   UNL     1       1.974  -0.138  -1.438  0.00  0.00    +0.261 C 
ATOM     11  O   UNL     1       2.583   0.537  -0.634  0.00  0.00    -0.271 OA
ENDROOT
BRANCH   4  12
ATOM     12  C   UNL     1      -3.508  -2.307  -3.019  0.00  0.00    -0.013 C 
ATOM     13  C   UNL     1      -4.130  -0.925  -3.229  0.00  0.00    +0.015 C 
ATOM     14  C   UNL     1      -3.962  -3.246  -4.138  0.00  0.00    +0.015 C 
ATOM     15  C   UNL     1      -3.957  -2.869  -1.668  0.00  0.00    +0.015 C 
ENDBRANCH   4  12
BRANCH   9  16
ATOM     16  C   UNL     1       2.420   0.424  -3.808  0.00  0.00    +0.033 C 
ATOM     17  C   UNL     1       3.110  -0.043  -5.091  0.00  0.00    +0.011 C 
ATOM     18  C   UNL     1       0.918   0.571  -4.060  0.00  0.00    +0.011 C 
ENDBRANCH   9  16
BRANCH   1  20
ATOM     19  C   UNL     1      -0.019   1.526   0.010  0.00  0.00    +0.026 C 
ATOM     20  C   UNL     1       0.002  -0.004   0.002  0.00  0.00    +0.061 C 
BRANCH  20  21
ATOM     21  C   UNL     1       0.742  -0.511   1.242  0.00  0.00    -0.064 C 
BRANCH  21  22
ATOM     22  N   UNL     1       0.867  -1.973   1.174  0.00  0.00    +0.379 N 
ATOM     23  H   UNL     1      -0.052  -2.388   1.138  0.00  0.00    -0.090 HD
ATOM     24  H   UNL     1       1.384  -2.228   0.346  0.00  0.00    -0.090 HD
ATOM     25  H   UNL     1       1.355  -2.307   1.991  0.00  0.00    -0.090 HD
ENDBRANCH  21  22
ENDBRANCH  20  21
ENDBRANCH   1  20
TORSDOF 5
