REMARK  Name = ZINC12760438
REMARK  11 active torsions:
REMARK  status: ('A' for Active; 'I' for Inactive)
REMARK    1  A    between atoms: C_1  and  C_2
REMARK    2  A    between atoms: C_6  and  N_9
REMARK    3  A    between atoms: C_7  and  C_8
REMARK    4  A    between atoms: C_10  and  C_12
REMARK    5  A    between atoms: C_12  and  N_51
REMARK    6  A    between atoms: C_13  and  N_51
REMARK    7  A    between atoms: C_14  and  C_15
REMARK    8  A    between atoms: C_14  and  N_51
REMARK    9  A    between atoms: C_15  and  C_16
REMARK   10  A    between atoms: N_18  and  C_19
REMARK   11  A    between atoms: C_24  and  C_25
REMARK                            x       y       z     vdW  Elec       q    Type
REMARK                         _______ _______ _______ _____ _____    ______ ____
ROOT
ATOM      1  C   UNL     1       3.762   3.357  -1.297  0.00  0.00    -0.096 C 
ATOM      2  N   UNL     1       3.709   2.591  -0.034  0.00  0.00    +0.384 N 
ATOM      3  H   UNL     1       3.554   3.242   0.744  0.00  0.00    -0.082 HD
ENDROOT
BRANCH   2   4
ATOM      4  C   UNL     1       4.988   1.881   0.180  0.00  0.00    +0.018 C 
BRANCH   4   6
ATOM      5  N   UNL     1       7.331   2.491   0.684  0.00  0.00    -0.287 N 
ATOM      6  C   UNL     1       6.070   2.897   0.440  0.00  0.00    +0.201 C 
ATOM      7  O   UNL     1       5.805   4.081   0.430  0.00  0.00    -0.278 OA
ATOM      8  H   UNL     1       7.555   1.549   0.635  0.00  0.00    +0.155 HD
BRANCH   5  14
ATOM      9  C   UNL     1      11.600   3.556   2.879  0.00  0.00    +0.044 C 
ATOM     10  C   UNL     1      10.398   3.972   2.071  0.00  0.00    -0.046 A 
ATOM     11  C   UNL     1      10.270   5.283   1.648  0.00  0.00    +0.004 A 
ATOM     12  C   UNL     1       9.168   5.669   0.907  0.00  0.00    +0.002 A 
ATOM     13  C   UNL     1       8.192   4.745   0.585  0.00  0.00    +0.023 A 
ATOM     14  C   UNL     1       8.318   3.429   1.008  0.00  0.00    +0.036 A 
ATOM     15  C   UNL     1       9.423   3.046   1.758  0.00  0.00    -0.026 A 
ATOM     16  C   UNL     1       9.560   1.619   2.225  0.00  0.00    +0.046 C 
ENDBRANCH   5  14
ENDBRANCH   4   6
ENDBRANCH   2   4
BRANCH   2  17
ATOM     17  C   UNL     1       2.594   1.621  -0.078  0.00  0.00    -0.069 C 
BRANCH  17  18
ATOM     18  C   UNL     1       1.271   2.389  -0.075  0.00  0.00    +0.077 C 
BRANCH  18  19
ATOM     19  C   UNL     1       0.123   1.413  -0.097  0.00  0.00    +0.215 C 
ATOM     20  O   UNL     1       0.342   0.220  -0.114  0.00  0.00    -0.276 OA
ATOM     21  N   UNL     1      -1.146   1.865  -0.105  0.00  0.00    -0.284 N 
ATOM     22  H   UNL     1      -1.322   2.817  -0.033  0.00  0.00    +0.155 HD
BRANCH  21  23
ATOM     23  C   UNL     1      -2.206   0.967  -0.215  0.00  0.00    +0.051 A 
ATOM     24  C   UNL     1      -2.052  -0.348   0.203  0.00  0.00    +0.024 A 
ATOM     25  C   UNL     1      -3.104  -1.236   0.096  0.00  0.00    +0.002 A 
ATOM     26  C   UNL     1      -4.316  -0.826  -0.435  0.00  0.00    +0.001 A 
ATOM     27  C   UNL     1      -4.486   0.474  -0.860  0.00  0.00    +0.021 A 
ATOM     28  C   UNL     1      -3.432   1.385  -0.754  0.00  0.00    +0.073 A 
BRANCH  28  29
ATOM     29  C   UNL     1      -3.602   2.737  -1.194  0.00  0.00    +0.101 C 
ATOM     30  N   UNL     1      -3.736   3.810  -1.542  0.00  0.00    -0.191 NA
ENDBRANCH  28  29
ENDBRANCH  21  23
ENDBRANCH  18  19
ENDBRANCH  17  18
ENDBRANCH   2  17
TORSDOF 8
