REMARK  Name = ZINC00875595
REMARK  5 active torsions:
REMARK  status: ('A' for Active; 'I' for Inactive)
REMARK    1  A    between atoms: C_1  and  C_2
REMARK    2  A    between atoms: C_2  and  C_26
REMARK    3  A    between atoms: C_6  and  C_17
REMARK    4  A    between atoms: C_11  and  O_16
REMARK    5  A    between atoms: C_12  and  O_15
REMARK                            x       y       z     vdW  Elec       q    Type
REMARK                         _______ _______ _______ _____ _____    ______ ____
ROOT
ATOM      1  C   UNL     1       7.510  -3.450   1.514  0.00  0.00    +0.031 C 
ATOM      2  C   UNL     1       6.529  -2.311   1.859  0.00  0.00    +0.033 C 
ATOM      3  C   UNL     1       6.456  -1.365   0.668  0.00  0.00    +0.094 C 
ATOM      4  C   UNL     1       6.014   0.042   1.031  0.00  0.00    +0.180 C 
ATOM      5  C   UNL     1       4.498   0.132   1.214  0.00  0.00    +0.082 C 
ATOM      6  C   UNL     1       3.794  -0.396  -0.036  0.00  0.00    +0.065 C 
ATOM      7  C   UNL     1       4.476   0.109  -1.281  0.00  0.00    +0.006 A 
ATOM      8  C   UNL     1       3.862  -0.085  -2.509  0.00  0.00    +0.011 A 
ATOM      9  C   UNL     1       4.449   0.380  -3.670  0.00  0.00    +0.050 A 
ATOM     10  C   UNL     1       5.667   1.040  -3.616  0.00  0.00    +0.162 A 
ATOM     11  C   UNL     1       6.296   1.223  -2.392  0.00  0.00    +0.201 A 
ATOM     12  C   UNL     1       5.704   0.747  -1.224  0.00  0.00    +0.172 A 
ATOM     13  O   UNL     1       6.360   0.930  -0.048  0.00  0.00    -0.464 OA
ATOM     14  N   UNL     1       6.685   0.519   2.238  0.00  0.00    -0.289 N 
ATOM     15  C   UNL     1       7.114  -0.323   3.186  0.00  0.00    +0.133 C 
ATOM     16  S   UNL     1       7.827   0.326   4.602  0.00  0.00    -0.019 S 
ATOM     17  N   UNL     1       7.013  -1.651   3.066  0.00  0.00    -0.321 N 
ATOM     18  C   UNL     1       5.160  -2.942   2.131  0.00  0.00    +0.031 C 
ATOM     19  H   UNL     1       6.827   1.474   2.353  0.00  0.00    +0.151 HD
ATOM     20  H   UNL     1       7.274  -2.204   3.828  0.00  0.00    +0.148 HD
ENDROOT
BRANCH   6  21
ATOM     21  C   UNL     1       2.360   0.076  -0.020  0.00  0.00    -0.003 A 
ATOM     22  C   UNL     1       1.220  -0.658  -0.013  0.00  0.00    +0.012 A 
ATOM     23  C   UNL     1       0.002  -0.004   0.002  0.00  0.00    +0.008 A 
ATOM     24  C   UNL     1      -0.016   1.351   0.009  0.00  0.00    +0.045 A 
ATOM     25  S   UNL     1       1.725   1.744  -0.005  0.00  0.00    -0.101 S 
ENDBRANCH   6  21
BRANCH  11  26
ATOM     26  O   UNL     1       7.494   1.866  -2.333  0.00  0.00    -0.501 OA
ATOM     27  H   UNL     1       8.259   1.281  -2.419  0.00  0.00    +0.292 HD
ENDBRANCH  11  26
BRANCH  10  28
ATOM     28  O   UNL     1       6.242   1.507  -4.756  0.00  0.00    -0.503 OA
ATOM     29  H   UNL     1       6.831   0.873  -5.188  0.00  0.00    +0.292 HD
ENDBRANCH  10  28
TORSDOF 3
