REMARK  Name = ZINC39960647
REMARK  5 active torsions:
REMARK  status: ('A' for Active; 'I' for Inactive)
REMARK    1  A    between atoms: C_1  and  C_2
REMARK    2  A    between atoms: N_6  and  C_7
REMARK    3  A    between atoms: C_7  and  C_8
REMARK    4  A    between atoms: C_21  and  O_26
REMARK    5  A    between atoms: N_24  and  C_25
REMARK                            x       y       z     vdW  Elec       q    Type
REMARK                         _______ _______ _______ _____ _____    ______ ____
ROOT
ATOM      1  C   UNL     1      -1.406  -0.098   2.953  0.00  0.00    +0.076 C 
ATOM      2  C   UNL     1      -1.383   0.498   4.358  0.00  0.00    +0.014 C 
ATOM      3  C   UNL     1      -2.780   0.514   5.007  0.00  0.00    +0.024 C 
ATOM      4  C   UNL     1      -3.278  -0.905   5.034  0.00  0.00    +0.088 C 
ATOM      5  C   UNL     1      -3.534  -1.341   3.562  0.00  0.00    +0.107 C 
ATOM      6  C   UNL     1      -2.180  -1.413   2.933  0.00  0.00    +0.147 C 
ATOM      7  O   UNL     1      -1.737  -2.426   2.448  0.00  0.00    -0.296 OA
ATOM      8  C   UNL     1      -4.355  -2.554   3.752  0.00  0.00    -0.014 A 
ATOM      9  C   UNL     1      -4.609  -3.639   2.936  0.00  0.00    +0.010 A 
ATOM     10  C   UNL     1      -5.441  -4.633   3.432  0.00  0.00    +0.046 A 
ATOM     11  C   UNL     1      -5.999  -4.548   4.697  0.00  0.00    +0.119 A 
ATOM     12  C   UNL     1      -5.753  -3.461   5.529  0.00  0.00    +0.068 A 
ATOM     13  C   UNL     1      -4.922  -2.458   5.042  0.00  0.00    +0.037 A 
ATOM     14  N   UNL     1      -4.535  -1.264   5.658  0.00  0.00    -0.329 N 
ATOM     15  C   UNL     1      -5.247  -0.541   6.715  0.00  0.00    +0.129 C 
ENDROOT
BRANCH  11  16
ATOM     16  O   UNL     1      -6.806  -5.549   5.135  0.00  0.00    -0.507 OA
ATOM     17  H   UNL     1      -6.339  -6.257   5.599  0.00  0.00    +0.292 HD
ENDBRANCH  11  16
BRANCH   1  18
ATOM     18  C   UNL     1       0.030  -0.353   2.491  0.00  0.00    +0.134 C 
BRANCH  18  24
ATOM     19  C   UNL     1      -0.018   1.503   0.010  0.00  0.00    +0.084 C 
ATOM     20  C   UNL     1       0.002  -0.004   0.002  0.00  0.00    +0.084 A 
ATOM     21  N   UNL     1       0.008  -0.759  -1.063  0.00  0.00    -0.350 N 
ATOM     22  C   UNL     1       0.028  -2.047  -0.691  0.00  0.00    +0.101 A 
ATOM     23  C   UNL     1       0.034  -2.093   0.655  0.00  0.00    +0.104 A 
ATOM     24  N   UNL     1       0.023  -0.797   1.095  0.00  0.00    -0.335 N 
ATOM     25  H   UNL     1      -0.000  -0.438  -1.978  0.00  0.00    +0.166 HD
ENDBRANCH  18  24
ENDBRANCH   1  18
TORSDOF 3
