REMARK  Name = ZINC39855979
REMARK  5 active torsions:
REMARK  status: ('A' for Active; 'I' for Inactive)
REMARK    1  A    between atoms: C_1  and  C_2
REMARK    2  A    between atoms: C_6  and  C_7
REMARK    3  A    between atoms: C_17  and  C_25
REMARK    4  A    between atoms: C_17  and  C_26
REMARK    5  A    between atoms: N_20  and  N_21
REMARK                            x       y       z     vdW  Elec       q    Type
REMARK                         _______ _______ _______ _____ _____    ______ ____
ROOT
ATOM      1  C   UNL     1       0.482   1.460   0.018  0.00  0.00    +0.048 C 
ATOM      2  C   UNL     1       0.205  -0.022   0.005  0.00  0.00    +0.009 A 
ATOM      3  C   UNL     1       0.103  -0.848  -1.121  0.00  0.00    +0.043 A 
ATOM      4  C   UNL     1      -0.157  -2.122  -0.675  0.00  0.00    +0.116 A 
ATOM      5  O   UNL     1      -0.210  -2.090   0.654  0.00  0.00    -0.454 OA
ATOM      6  C   UNL     1       0.010  -0.829   1.091  0.00  0.00    +0.193 A 
ATOM      7  C   UNL     1      -0.338  -3.295  -1.605  0.00  0.00    +0.081 C 
ATOM      8  C   UNL     1      -0.700  -2.785  -3.003  0.00  0.00    -0.023 C 
ATOM      9  C   UNL     1       0.320  -1.746  -3.480  0.00  0.00    +0.064 C 
ATOM     10  C   UNL     1       0.232  -0.535  -2.562  0.00  0.00    +0.073 C 
ATOM     11  N   UNL     1       0.267   0.681  -3.010  0.00  0.00    -0.175 NA
ATOM     12  C   UNL     1      -2.090  -2.145  -2.962  0.00  0.00    +0.011 C 
ATOM     13  C   UNL     1      -0.716  -3.962  -3.980  0.00  0.00    +0.011 C 
ENDROOT
BRANCH   6  14
ATOM     14  C   UNL     1       0.032  -0.400   2.494  0.00  0.00    +0.282 C 
ATOM     15  O   UNL     1       0.122   0.783   2.766  0.00  0.00    -0.267 OA
ATOM     16  N   UNL     1      -0.048  -1.315   3.480  0.00  0.00    -0.295 N 
ATOM     17  C   UNL     1      -0.023  -2.717   3.128  0.00  0.00    +0.108 C 
ATOM     18  C   UNL     1      -1.467  -3.213   2.870  0.00  0.00    +0.019 C 
ATOM     19  C   UNL     1      -2.215  -3.290   4.134  0.00  0.00    +0.002 C 
ATOM     20  C   UNL     1      -2.397  -1.949   4.839  0.00  0.00    +0.002 C 
ATOM     21  C   UNL     1      -1.181  -1.659   5.684  0.00  0.00    +0.019 C 
ATOM     22  C   UNL     1      -0.151  -0.844   4.875  0.00  0.00    +0.108 C 
ENDBRANCH   6  14
BRANCH  11  23
ATOM     23  N   UNL     1       0.389   0.918  -4.385  0.00  0.00    -0.248 N 
ATOM     24  C   UNL     1       0.426   2.203  -4.858  0.00  0.00    +0.187 C 
ATOM     25  N   UNL     1       0.543   2.428  -6.166  0.00  0.00    -0.370 N 
ATOM     26  N   UNL     1       0.344   3.228  -4.010  0.00  0.00    -0.370 N 
ATOM     27  H   UNL     1       0.449   0.172  -5.002  0.00  0.00    +0.192 HD
ATOM     28  H   UNL     1       0.602   1.682  -6.783  0.00  0.00    +0.159 HD
ATOM     29  H   UNL     1       0.259   3.063  -3.057  0.00  0.00    +0.159 HD
ATOM     30  H   UNL     1       0.370   4.138  -4.344  0.00  0.00    +0.159 HD
ATOM     31  H   UNL     1       0.569   3.338  -6.501  0.00  0.00    +0.159 HD
ENDBRANCH  11  23
TORSDOF 2
