REMARK  Name = ZINC37001376
REMARK  6 active torsions:
REMARK  status: ('A' for Active; 'I' for Inactive)
REMARK    1  A    between atoms: C_1  and  C_2
REMARK    2  A    between atoms: C_3  and  C_8
REMARK    3  A    between atoms: N_6  and  C_7
REMARK    4  A    between atoms: C_8  and  C_10
REMARK    5  A    between atoms: C_8  and  N_11
REMARK    6  A    between atoms: C_12  and  C_14
REMARK                            x       y       z     vdW  Elec       q    Type
REMARK                         _______ _______ _______ _____ _____    ______ ____
ROOT
ATOM      1  N   UNL     1       0.478  -1.401  -3.398  0.00  0.00    -0.305 N 
ATOM      2  C   UNL     1       1.028  -1.105  -4.592  0.00  0.00    +0.245 C 
ATOM      3  O   UNL     1       1.123   0.054  -4.947  0.00  0.00    -0.270 OA
ATOM      4  H   UNL     1       0.402  -2.326  -3.115  0.00  0.00    +0.150 HD
ENDROOT
BRANCH   2   5
ATOM      5  C   UNL     1       1.515  -2.187  -5.469  0.00  0.00    +0.037 A 
ATOM      6  C   UNL     1       1.403  -3.522  -5.068  0.00  0.00    +0.015 A 
ATOM      7  C   UNL     1       1.857  -4.526  -5.887  0.00  0.00    +0.024 A 
ATOM      8  C   UNL     1       2.435  -4.226  -7.126  0.00  0.00    +0.030 A 
ATOM      9  C   UNL     1       2.545  -2.898  -7.520  0.00  0.00    -0.024 A 
ATOM     10  C   UNL     1       2.086  -1.885  -6.708  0.00  0.00    +0.018 A 
ATOM     11  C   UNL     1       3.198  -2.855  -8.883  0.00  0.00    +0.055 C 
ATOM     12  C   UNL     1       3.455  -4.330  -9.232  0.00  0.00    +0.106 C 
ATOM     13  N   UNL     1       2.949  -5.090  -8.086  0.00  0.00    -0.343 N 
ATOM     14  H   UNL     1       2.970  -6.056  -8.008  0.00  0.00    +0.146 HD
ENDBRANCH   2   5
BRANCH   1  15
ATOM     15  C   UNL     1      -0.006  -0.327  -2.527  0.00  0.00    +0.104 C 
ATOM     16  C   UNL     1      -1.434   0.050  -2.927  0.00  0.00    +0.033 C 
BRANCH  15  19
ATOM     17  C   UNL     1      -0.018   1.503   0.010  0.00  0.00    +0.065 C 
ATOM     18  C   UNL     1       0.002  -0.004   0.002  0.00  0.00    +0.041 A 
ATOM     19  C   UNL     1       0.008  -0.796  -1.095  0.00  0.00    +0.013 A 
ATOM     20  C   UNL     1       0.028  -2.127  -0.666  0.00  0.00    +0.140 A 
ATOM     21  N   UNL     1       0.035  -2.134   0.643  0.00  0.00    -0.179 NA
ATOM     22  N   UNL     1       0.024  -0.805   1.088  0.00  0.00    -0.271 N 
ATOM     23  C   UNL     1       0.031  -0.364   2.485  0.00  0.00    +0.172 C 
ENDBRANCH  15  19
ENDBRANCH   1  15
TORSDOF 3
