REMARK  Name = ZINC36268345
REMARK  3 active torsions:
REMARK  status: ('A' for Active; 'I' for Inactive)
REMARK    1  A    between atoms: C_3  and  N_11
REMARK    2  A    between atoms: C_4  and  N_8
REMARK    3  A    between atoms: N_11  and  C_12
REMARK                            x       y       z     vdW  Elec       q    Type
REMARK                         _______ _______ _______ _____ _____    ______ ____
ROOT
ATOM      1  C   UNL     1      -0.003   1.368  -0.224  0.00  0.00    +0.017 A 
ATOM      2  C   UNL     1       1.191   2.059  -0.286  0.00  0.00    +0.026 A 
ATOM      3  C   UNL     1       2.390   1.392  -0.068  0.00  0.00    +0.058 A 
ATOM      4  C   UNL     1       2.384   0.032   0.213  0.00  0.00    +0.148 A 
ATOM      5  C   UNL     1       1.187  -0.654   0.274  0.00  0.00    +0.050 A 
ATOM      6  C   UNL     1      -0.006   0.013   0.056  0.00  0.00    +0.020 A 
ATOM      7 BR   UNL     1      -1.643  -0.929   0.142  0.00  0.00    -0.050 Br
ENDROOT
BRANCH   4   8
ATOM      8  N   UNL     1       3.659  -0.682   0.446  0.00  0.00    +0.058 N 
ATOM      9  O   UNL     1       3.804  -1.810   0.036  0.00  0.00    -0.126 OA
ATOM     10  O   UNL     1       4.556  -0.138   1.047  0.00  0.00    -0.126 OA
ENDBRANCH   4   8
BRANCH   3  11
ATOM     11  N   UNL     1       3.599   2.088  -0.131  0.00  0.00    -0.339 N 
ATOM     12  H   UNL     1       4.439   1.608  -0.069  0.00  0.00    +0.146 HD
BRANCH  11  13
ATOM     13  C   UNL     1       3.599   3.545  -0.290  0.00  0.00    +0.074 C 
ATOM     14  C   UNL     1       4.582   4.144  -1.298  0.00  0.00    -0.005 C 
ATOM     15  C   UNL     1       4.823   4.310   0.217  0.00  0.00    -0.005 C 
ATOM     16  C   UNL     1       4.676   5.824   0.483  0.00  0.00    -0.077 C 
ATOM     17  N   UNL     1       4.963   6.463  -0.827  0.00  0.00    +0.380 N 
ATOM     18  C   UNL     1       4.290   5.557  -1.847  0.00  0.00    -0.077 C 
ATOM     19  H   UNL     1       4.559   7.388  -0.864  0.00  0.00    -0.086 HD
ATOM     20  H   UNL     1       5.957   6.504  -0.990  0.00  0.00    -0.086 HD
ENDBRANCH  11  13
ENDBRANCH   3  11
TORSDOF 3
