REMARK  Name = ZINC43157556
REMARK  6 active torsions:
REMARK  status: ('A' for Active; 'I' for Inactive)
REMARK    1  A    between atoms: C_1  and  O_2
REMARK    2  A    between atoms: O_2  and  C_3
REMARK    3  A    between atoms: C_7  and  C_11
REMARK    4  A    between atoms: C_8  and  O_9
REMARK    5  A    between atoms: O_9  and  C_10
REMARK    6  A    between atoms: C_19  and  O_23
REMARK                            x       y       z     vdW  Elec       q    Type
REMARK                         _______ _______ _______ _____ _____    ______ ____
ROOT
ATOM      1  C   UNL     1       1.660  -4.123   2.307  0.00  0.00    -0.031 C 
ATOM      2  C   UNL     1       2.826  -4.525   1.403  0.00  0.00    +0.011 C 
ATOM      3  C   UNL     1       2.519  -4.156  -0.049  0.00  0.00    +0.005 C 
ATOM      4  C   UNL     1       3.694  -4.579  -0.935  0.00  0.00    +0.000 C 
ATOM      5  C   UNL     1       4.966  -3.863  -0.479  0.00  0.00    +0.003 C 
ATOM      6  C   UNL     1       5.266  -4.220   0.979  0.00  0.00    +0.035 C 
ATOM      7  C   UNL     1       4.089  -3.785   1.853  0.00  0.00    +0.066 C 
ATOM      8  C   UNL     1       4.369  -4.124   3.318  0.00  0.00    +0.016 C 
ATOM      9  C   UNL     1       3.148  -3.744   4.160  0.00  0.00    -0.079 C 
ATOM     10  N   UNL     1       1.972  -4.488   3.695  0.00  0.00    +0.384 N 
ATOM     11  H   UNL     1       1.182  -4.268   4.284  0.00  0.00    -0.085 HD
ATOM     12  H   UNL     1       2.160  -5.478   3.747  0.00  0.00    -0.085 HD
ENDROOT
BRANCH   1  17
ATOM     13  C   UNL     1       0.068  -0.763   1.597  0.00  0.00    +0.162 A 
ATOM     14  C   UNL     1       1.050   0.103   2.049  0.00  0.00    +0.049 A 
ATOM     15  C   UNL     1       2.223  -0.399   2.581  0.00  0.00    +0.004 A 
ATOM     16  C   UNL     1       2.419  -1.765   2.664  0.00  0.00    +0.006 A 
ATOM     17  C   UNL     1       1.443  -2.635   2.215  0.00  0.00    -0.016 A 
ATOM     18  C   UNL     1       0.263  -2.138   1.687  0.00  0.00    +0.163 A 
BRANCH  13  20
ATOM     19  C   UNL     1      -1.218   1.151   1.014  0.00  0.00    +0.277 C 
ATOM     20  O   UNL     1      -1.087  -0.271   1.074  0.00  0.00    -0.491 OA
ENDBRANCH  13  20
BRANCH  18  21
ATOM     21  O   UNL     1      -0.701  -2.993   1.250  0.00  0.00    -0.491 OA
ATOM     22  C   UNL     1      -0.575  -3.486  -0.085  0.00  0.00    +0.277 C 
ENDBRANCH  18  21
ENDBRANCH   1  17
BRANCH   7  23
ATOM     23  O   UNL     1       3.889  -2.376   1.718  0.00  0.00    -0.388 OA
ATOM     24  H   UNL     1       4.620  -1.841   2.057  0.00  0.00    +0.210 HD
ENDBRANCH   7  23
TORSDOF 4
