REMARK  Name = ZINC51170370
REMARK  5 active torsions:
REMARK  status: ('A' for Active; 'I' for Inactive)
REMARK    1  A    between atoms: C_1  and  O_2
REMARK    2  A    between atoms: O_2  and  C_3
REMARK    3  A    between atoms: C_10  and  C_15
REMARK    4  A    between atoms: C_12  and  N_13
REMARK    5  A    between atoms: N_13  and  N_14
REMARK                            x       y       z     vdW  Elec       q    Type
REMARK                         _______ _______ _______ _____ _____    ______ ____
ROOT
ATOM      1  C   UNL     1       0.691  -0.609  -1.006  0.00  0.00    +0.146 A 
ATOM      2  C   UNL     1       1.298   0.149  -1.981  0.00  0.00    +0.049 A 
ATOM      3  C   UNL     1       1.921  -0.455  -3.069  0.00  0.00    +0.019 A 
ATOM      4  C   UNL     1       1.945  -1.812  -3.197  0.00  0.00    +0.029 A 
ATOM      5  C   UNL     1       1.337  -2.616  -2.222  0.00  0.00    +0.040 A 
ATOM      6  C   UNL     1       0.706  -2.014  -1.108  0.00  0.00    +0.116 A 
ATOM      7  N   UNL     1       0.128  -2.778  -0.173  0.00  0.00    -0.239 NA
ATOM      8  C   UNL     1       0.133  -4.088  -0.254  0.00  0.00    +0.146 A 
ATOM      9  C   UNL     1       0.737  -4.754  -1.312  0.00  0.00    +0.057 A 
ATOM     10  C   UNL     1       1.343  -4.028  -2.324  0.00  0.00    +0.053 A 
ATOM     11 BR   UNL     1       2.797  -2.609  -4.685  0.00  0.00    -0.050 Br
ENDROOT
BRANCH   8  12
ATOM     12  C   UNL     1      -0.535  -4.891   0.832  0.00  0.00    +0.434 C 
ATOM     13  F   UNL     1      -1.170  -4.025   1.729  0.00  0.00    -0.164 F 
ATOM     14  F   UNL     1      -1.482  -5.749   0.262  0.00  0.00    -0.164 F 
ATOM     15  F   UNL     1       0.427  -5.645   1.513  0.00  0.00    -0.164 F 
ENDBRANCH   8  12
BRANCH   1  17
ATOM     16  C   UNL     1       0.113   1.423   0.085  0.00  0.00    +0.277 C 
ATOM     17  O   UNL     1       0.087  -0.005   0.051  0.00  0.00    -0.493 OA
ENDBRANCH   1  17
BRANCH  10  18
ATOM     18  N   UNL     1       1.953  -4.665  -3.395  0.00  0.00    -0.282 N 
ATOM     19  H   UNL     1       2.278  -4.145  -4.147  0.00  0.00    +0.166 HD
BRANCH  18  20
ATOM     20  N   UNL     1       2.096  -6.023  -3.390  0.00  0.00    -0.256 NA
ATOM     21  H   UNL     1       1.205  -6.480  -3.271  0.00  0.00    +0.140 HD
ATOM     22  H   UNL     1       2.556  -6.341  -4.231  0.00  0.00    +0.140 HD
ENDBRANCH  18  20
ENDBRANCH  10  18
TORSDOF 4
