REMARK  Name = ZINC23155856
REMARK  7 active torsions:
REMARK  status: ('A' for Active; 'I' for Inactive)
REMARK    1  A    between atoms: C_1  and  C_2
REMARK    2  A    between atoms: C_6  and  N_8
REMARK    3  A    between atoms: N_8  and  S_9
REMARK    4  A    between atoms: S_9  and  C_12
REMARK    5  A    between atoms: C_16  and  C_18
REMARK    6  A    between atoms: N_20  and  C_21
REMARK    7  A    between atoms: C_21  and  C_22
REMARK                            x       y       z     vdW  Elec       q    Type
REMARK                         _______ _______ _______ _____ _____    ______ ____
ROOT
ATOM      1  C   UNL     1      -2.288  -0.073  -2.432  0.00  0.00    +0.111 A 
ATOM      2  C   UNL     1      -1.706   1.025  -3.041  0.00  0.00    +0.030 A 
ATOM      3  C   UNL     1      -1.489   1.034  -4.406  0.00  0.00    +0.022 A 
ATOM      4  C   UNL     1      -1.863  -0.052  -5.174  0.00  0.00    +0.053 A 
ATOM      5  C   UNL     1      -2.456  -1.162  -4.567  0.00  0.00    +0.057 A 
ATOM      6  C   UNL     1      -2.666  -1.164  -3.186  0.00  0.00    +0.043 A 
ATOM      7 CL   UNL     1      -1.597  -0.038  -6.890  0.00  0.00    -0.083 Cl
ENDROOT
BRANCH   5   8
ATOM      8  C   UNL     1      -2.858  -2.327  -5.381  0.00  0.00    +0.246 C 
ATOM      9  O   UNL     1      -2.674  -2.322  -6.582  0.00  0.00    -0.270 OA
ATOM     10  N   UNL     1      -3.430  -3.396  -4.791  0.00  0.00    -0.307 N 
ATOM     11  H   UNL     1      -3.596  -3.401  -3.704  0.00  0.00    +0.149 HD
BRANCH  10  12
ATOM     12  C   UNL     1      -3.829  -4.552  -5.598  0.00  0.00    +0.147 C 
BRANCH  12  13
ATOM     13  C   UNL     1      -4.438  -5.602  -4.706  0.00  0.00    +0.007 A 
ATOM     14  C   UNL     1      -5.732  -5.765  -4.339  0.00  0.00    +0.013 A 
ATOM     15  C   UNL     1      -6.066  -6.815  -3.504  0.00  0.00    +0.008 A 
ATOM     16  C   UNL     1      -5.087  -7.644  -3.067  0.00  0.00    +0.045 A 
ATOM     17  S   UNL     1      -3.639  -6.950  -3.849  0.00  0.00    -0.100 S 
ENDBRANCH  12  13
ENDBRANCH  10  12
ENDBRANCH   5   8
BRANCH   1  18
ATOM     18  S   UNL     1      -2.552  -0.075  -0.690  0.00  0.00    +0.092 S 
ATOM     19  O   UNL     1      -3.612  -0.989  -0.441  0.00  0.00    -0.148 OA
ATOM     20  O   UNL     1      -2.609   1.286  -0.286  0.00  0.00    -0.148 OA
BRANCH  18  21
ATOM     21  N   UNL     1      -1.197  -0.721   0.010  0.00  0.00    -0.097 NA
BRANCH  21  27
ATOM     22  C   UNL     1       1.448   3.392  -0.487  0.00  0.00    +0.044 C 
ATOM     23  C   UNL     1       1.355   1.889  -0.412  0.00  0.00    -0.049 A 
ATOM     24  C   UNL     1       2.500   1.121  -0.521  0.00  0.00    +0.004 A 
ATOM     25  C   UNL     1       2.420  -0.258  -0.454  0.00  0.00    +0.017 A 
ATOM     26  C   UNL     1       1.195  -0.872  -0.278  0.00  0.00    +0.042 A 
ATOM     27  C   UNL     1       0.043  -0.103  -0.168  0.00  0.00    +0.088 A 
ATOM     28  C   UNL     1       0.128   1.282  -0.236  0.00  0.00    +0.031 A 
ATOM     29 BR   UNL     1       1.087  -2.758  -0.185  0.00  0.00    -0.048 Br
ENDBRANCH  21  27
ENDBRANCH  18  21
ENDBRANCH   1  18
TORSDOF 6
