REMARK  Name = ZINC19842924
REMARK  3 active torsions:
REMARK  status: ('A' for Active; 'I' for Inactive)
REMARK    1  A    between atoms: C_6  and  C_7
REMARK    2  A    between atoms: C_7  and  C_9
REMARK    3  A    between atoms: C_7  and  N_17
REMARK                            x       y       z     vdW  Elec       q    Type
REMARK                         _______ _______ _______ _____ _____    ______ ____
ROOT
ATOM      1  C   UNL     1       2.488   1.047  -0.016  0.00  0.00    -0.010 C 
ENDROOT
BRANCH   1   7
ATOM      2  C   UNL     1       1.160   3.168   0.008  0.00  0.00    +0.004 A 
ATOM      3  C   UNL     1      -0.040   3.853   0.023  0.00  0.00    +0.028 A 
ATOM      4  C   UNL     1      -1.235   3.151   0.030  0.00  0.00    +0.067 A 
ATOM      5  C   UNL     1      -1.222   1.754   0.017  0.00  0.00    +0.067 A 
ATOM      6  C   UNL     1      -0.013   1.076   0.008  0.00  0.00    +0.030 A 
ATOM      7  C   UNL     1       1.173   1.784   0.000  0.00  0.00    -0.055 A 
ATOM      8  N   UNL     1      -2.551   1.339   0.021  0.00  0.00    -0.306 N 
ATOM      9  H   UNL     1      -2.792   0.265   0.016  0.00  0.00    +0.170 HD
ATOM     10  C   UNL     1      -3.337   2.432   0.030  0.00  0.00    +0.325 A 
ATOM     11  O   UNL     1      -4.554   2.419   0.036  0.00  0.00    -0.247 OA
ATOM     12  N   UNL     1      -2.573   3.540   0.045  0.00  0.00    -0.306 N 
ATOM     13  H   UNL     1      -2.834   4.608   0.065  0.00  0.00    +0.170 HD
ENDBRANCH   1   7
BRANCH   1  14
ATOM     14  C   UNL     1       3.059   1.010   1.378  0.00  0.00    -0.021 A 
ATOM     15  C   UNL     1       3.981   1.961   1.773  0.00  0.00    +0.020 A 
ATOM     16  C   UNL     1       4.501   1.930   3.054  0.00  0.00    +0.018 A 
ATOM     17  C   UNL     1       4.109   0.940   3.937  0.00  0.00    +0.018 A 
ATOM     18  C   UNL     1       3.192  -0.015   3.542  0.00  0.00    +0.039 A 
ATOM     19  C   UNL     1       2.666   0.019   2.261  0.00  0.00    +0.125 A 
ATOM     20  F   UNL     1       1.770  -0.915   1.874  0.00  0.00    -0.205 F 
ATOM     21 BR   UNL     1       5.756   3.237   3.596  0.00  0.00    -0.050 Br
ENDBRANCH   1  14
BRANCH   1  22
ATOM     22  N   UNL     1       3.425   1.737  -0.911  0.00  0.00    +0.385 N 
ATOM     23  H   UNL     1       4.385   1.199  -0.923  0.00  0.00    -0.089 HD
ATOM     24  H   UNL     1       3.586   2.765  -0.553  0.00  0.00    -0.089 HD
ATOM     25  H   UNL     1       3.008   1.765  -1.929  0.00  0.00    -0.089 HD
ENDBRANCH   1  22
TORSDOF 3
