REMARK  Name = ZINC46085165
REMARK  7 active torsions:
REMARK  status: ('A' for Active; 'I' for Inactive)
REMARK    1  A    between atoms: C_6  and  O_11
REMARK    2  A    between atoms: O_11  and  C_12
REMARK    3  A    between atoms: C_12  and  C_13
REMARK    4  A    between atoms: C_13  and  N_14
REMARK    5  A    between atoms: N_22  and  N_23
REMARK    6  A    between atoms: N_23  and  C_24
REMARK    7  A    between atoms: C_24  and  N_26
REMARK                            x       y       z     vdW  Elec       q    Type
REMARK                         _______ _______ _______ _____ _____    ______ ____
ROOT
ATOM      1  N   UNL     1       6.938  -4.255   1.165  0.00  0.00    -0.262 N 
ATOM      2  C   UNL     1       7.669  -3.087   1.349  0.00  0.00    +0.046 A 
ATOM      3  C   UNL     1       7.945  -2.025   0.495  0.00  0.00    +0.024 A 
ATOM      4  C   UNL     1       8.712  -0.965   0.933  0.00  0.00    +0.002 A 
ATOM      5  C   UNL     1       9.215  -0.943   2.223  0.00  0.00    +0.001 A 
ATOM      6  C   UNL     1       8.952  -1.988   3.085  0.00  0.00    +0.012 A 
ATOM      7  C   UNL     1       8.180  -3.061   2.654  0.00  0.00    +0.028 A 
ATOM      8  C   UNL     1       7.722  -4.309   3.307  0.00  0.00    +0.153 C 
ATOM      9  N   UNL     1       7.964  -4.704   4.534  0.00  0.00    -0.175 NA
ATOM     10  C   UNL     1       6.928  -5.009   2.278  0.00  0.00    +0.271 C 
ATOM     11  O   UNL     1       6.367  -6.080   2.412  0.00  0.00    -0.268 OA
ENDROOT
BRANCH   9  12
ATOM     12  N   UNL     1       7.449  -5.923   4.992  0.00  0.00    -0.218 N 
ATOM     13  H   UNL     1       6.913  -6.476   4.402  0.00  0.00    +0.176 HD
BRANCH  12  14
ATOM     14  C   UNL     1       7.698  -6.329   6.253  0.00  0.00    +0.147 C 
ATOM     15  S   UNL     1       7.068  -7.819   6.813  0.00  0.00    -0.017 S 
BRANCH  14  16
ATOM     16  N   UNL     1       8.443  -5.561   7.073  0.00  0.00    -0.339 N 
ATOM     17  H   UNL     1       8.800  -4.717   6.756  0.00  0.00    +0.144 HD
ATOM     18  H   UNL     1       8.622  -5.853   7.981  0.00  0.00    +0.144 HD
ENDBRANCH  14  16
ENDBRANCH  12  14
ENDBRANCH   9  12
BRANCH   1  19
ATOM     19  C   UNL     1       6.260  -4.616  -0.082  0.00  0.00    +0.155 C 
BRANCH  19  20
ATOM     20  C   UNL     1       4.834  -4.062  -0.065  0.00  0.00    +0.248 C 
BRANCH  20  21
ATOM     21  O   UNL     1       4.878  -2.633  -0.059  0.00  0.00    -0.490 OA
BRANCH  21  27
ATOM     22  C   UNL     1      -0.016   1.357   0.009  0.00  0.00    +0.001 A 
ATOM     23  C   UNL     1       1.169   2.091   0.002  0.00  0.00    +0.001 A 
ATOM     24  C   UNL     1       2.378   1.468  -0.013  0.00  0.00    +0.008 A 
ATOM     25  C   UNL     1       2.437   0.063  -0.021  0.00  0.00    -0.014 A 
ATOM     26  C   UNL     1       3.668  -0.614  -0.037  0.00  0.00    +0.054 A 
ATOM     27  C   UNL     1       3.687  -1.980  -0.044  0.00  0.00    +0.121 A 
ATOM     28  C   UNL     1       2.497  -2.714  -0.036  0.00  0.00    +0.046 A 
ATOM     29  C   UNL     1       1.289  -2.088  -0.022  0.00  0.00    +0.012 A 
ATOM     30  C   UNL     1       1.232  -0.683  -0.013  0.00  0.00    -0.018 A 
ATOM     31  C   UNL     1       0.002  -0.004   0.002  0.00  0.00    +0.008 A 
ENDBRANCH  21  27
ENDBRANCH  20  21
ENDBRANCH  19  20
ENDBRANCH   1  19
TORSDOF 7
