REMARK  Name = ZINC39965345
REMARK  13 active torsions:
REMARK  status: ('A' for Active; 'I' for Inactive)
REMARK    1  A    between atoms: C_1  and  C_2
REMARK    2  A    between atoms: C_3  and  C_30
REMARK    3  A    between atoms: C_4  and  N_10
REMARK    4  A    between atoms: C_6  and  C_7
REMARK    5  A    between atoms: C_11  and  C_13
REMARK    6  A    between atoms: C_13  and  S_14
REMARK    7  A    between atoms: S_14  and  C_15
REMARK    8  A    between atoms: C_18  and  C_21
REMARK    9  A    between atoms: N_19  and  C_20
REMARK   10  A    between atoms: C_30  and  O_32
REMARK   11  A    between atoms: O_32  and  C_33
REMARK   12  A    between atoms: C_33  and  C_34
REMARK   13  A    between atoms: C_33  and  C_35
REMARK                            x       y       z     vdW  Elec       q    Type
REMARK                         _______ _______ _______ _____ _____    ______ ____
ROOT
ATOM      1  N   UNL     1       0.156  -3.098  -1.997  0.00  0.00    -0.279 N 
ATOM      2  C   UNL     1       0.264  -4.419  -1.752  0.00  0.00    +0.228 C 
ATOM      3  O   UNL     1       0.447  -4.813  -0.620  0.00  0.00    -0.275 OA
ATOM      4  H   UNL     1       0.009  -2.783  -2.903  0.00  0.00    +0.155 HD
ENDROOT
BRANCH   1   8
ATOM      5  C   UNL     1       0.222   1.409   0.215  0.00  0.00    +0.046 C 
ATOM      6  C   UNL     1       0.298  -0.096   0.170  0.00  0.00    -0.015 A 
ATOM      7  C   UNL     1       0.168  -0.800  -1.019  0.00  0.00    +0.091 A 
ATOM      8  C   UNL     1       0.254  -2.193  -0.959  0.00  0.00    +0.087 A 
ATOM      9  S   UNL     1       0.503  -2.510   0.672  0.00  0.00    -0.068 S 
ATOM     10  C   UNL     1       0.506  -0.843   1.298  0.00  0.00    +0.079 A 
BRANCH  10  11
ATOM     11  C   UNL     1       0.683  -0.385   2.678  0.00  0.00    +0.248 C 
ATOM     12  O   UNL     1       0.655   0.805   2.933  0.00  0.00    -0.270 OA
ATOM     13  N   UNL     1       0.878  -1.281   3.666  0.00  0.00    -0.325 N 
ATOM     14  H   UNL     1       0.901  -2.229   3.463  0.00  0.00    +0.145 HD
ATOM     15  H   UNL     1       0.996  -0.977   4.580  0.00  0.00    +0.145 HD
ENDBRANCH  10  11
BRANCH   7  16
ATOM     16  C   UNL     1      -0.052  -0.107  -2.293  0.00  0.00    +0.342 C 
ATOM     17  O   UNL     1       0.898   0.238  -2.970  0.00  0.00    -0.245 OA
BRANCH  16  18
ATOM     18  O   UNL     1      -1.307   0.147  -2.714  0.00  0.00    -0.458 OA
BRANCH  18  19
ATOM     19  C   UNL     1      -1.448   0.826  -3.964  0.00  0.00    +0.171 C 
ATOM     20  C   UNL     1      -2.754   0.396  -4.634  0.00  0.00    +0.052 C 
ATOM     21  C   UNL     1      -1.470   2.337  -3.724  0.00  0.00    +0.052 C 
ENDBRANCH  18  19
ENDBRANCH  16  18
ENDBRANCH   7  16
ENDBRANCH   1   8
BRANCH   2  22
ATOM     22  C   UNL     1       0.157  -5.407  -2.885  0.00  0.00    +0.173 C 
BRANCH  22  23
ATOM     23  S   UNL     1       0.342  -7.091  -2.239  0.00  0.00    -0.077 S 
BRANCH  23  24
ATOM     24  C   UNL     1       0.195  -8.114  -3.666  0.00  0.00    +0.192 A 
ATOM     25  N   UNL     1       0.002  -7.707  -4.900  0.00  0.00    -0.122 NA
ATOM     26  N   UNL     1      -0.057  -8.716  -5.694  0.00  0.00    -0.128 NA
ATOM     27  C   UNL     1       0.094  -9.830  -5.015  0.00  0.00    +0.165 A 
ATOM     28  N   UNL     1       0.266  -9.478  -3.696  0.00  0.00    -0.305 N 
ATOM     29  C   UNL     1       0.478 -10.379  -2.560  0.00  0.00    +0.153 C 
BRANCH  27  30
ATOM     30  C   UNL     1       0.087 -11.202  -5.565  0.00  0.00    +0.023 A 
ATOM     31  C   UNL     1       0.289 -11.409  -6.930  0.00  0.00    +0.015 A 
ATOM     32  C   UNL     1       0.283 -12.690  -7.441  0.00  0.00    +0.050 A 
ATOM     33  C   UNL     1       0.076 -13.776  -6.603  0.00  0.00    +0.166 A 
ATOM     34  C   UNL     1      -0.127 -13.575  -5.238  0.00  0.00    +0.167 A 
ATOM     35  C   UNL     1      -0.116 -12.294  -4.719  0.00  0.00    +0.061 A 
ATOM     36  O   UNL     1      -0.305 -14.790  -4.641  0.00  0.00    -0.453 OA
ATOM     37  C   UNL     1      -0.616 -15.702  -5.710  0.00  0.00    +0.466 C 
ATOM     38  O   UNL     1       0.025 -15.116  -6.858  0.00  0.00    -0.453 OA
ENDBRANCH  27  30
ENDBRANCH  23  24
ENDBRANCH  22  23
ENDBRANCH   2  22
TORSDOF 9
