REMARK  Name = ZINC04502804
REMARK  8 active torsions:
REMARK  status: ('A' for Active; 'I' for Inactive)
REMARK    1  A    between atoms: C_1  and  C_2
REMARK    2  A    between atoms: C_5  and  C_27
REMARK    3  A    between atoms: C_6  and  O_8
REMARK    4  A    between atoms: O_8  and  C_9
REMARK    5  A    between atoms: C_9  and  C_11
REMARK    6  A    between atoms: C_9  and  C_12
REMARK    7  A    between atoms: N_14  and  C_15
REMARK    8  A    between atoms: C_16  and  C_24
REMARK                            x       y       z     vdW  Elec       q    Type
REMARK                         _______ _______ _______ _____ _____    ______ ____
ROOT
ATOM      1  C   UNL     1      -0.539   3.073   1.149  0.00  0.00    +0.258 C 
ATOM      2  O   UNL     1       0.203   3.653   1.914  0.00  0.00    -0.271 OA
ATOM      3  N   UNL     1      -1.190   3.761   0.190  0.00  0.00    -0.276 N 
ATOM      4  H   UNL     1      -1.784   3.298  -0.421  0.00  0.00    +0.155 HD
ENDROOT
BRANCH   3   5
ATOM      5  C   UNL     1      -1.010   5.132   0.077  0.00  0.00    +0.084 A 
ATOM      6  C   UNL     1      -1.581   6.004  -0.839  0.00  0.00    +0.068 A 
ATOM      7  C   UNL     1      -1.228   7.409  -0.739  0.00  0.00    -0.023 A 
ATOM      8  C   UNL     1      -0.357   7.715   0.248  0.00  0.00    -0.004 A 
ATOM      9  S   UNL     1      -0.012   6.170   1.041  0.00  0.00    -0.077 S 
ATOM     10  C   UNL     1       0.189   9.068   0.584  0.00  0.00    +0.043 C 
ATOM     11  C   UNL     1      -0.096  10.011  -0.595  0.00  0.00    +0.005 C 
ATOM     12  C   UNL     1      -1.562   9.854  -1.008  0.00  0.00    +0.005 C 
ATOM     13  C   UNL     1      -1.775   8.489  -1.664  0.00  0.00    +0.037 C 
BRANCH   6  14
ATOM     14  C   UNL     1      -2.511   5.525  -1.867  0.00  0.00    +0.244 C 
ATOM     15  O   UNL     1      -3.705   5.486  -1.637  0.00  0.00    -0.270 OA
ATOM     16  N   UNL     1      -2.042   5.127  -3.066  0.00  0.00    -0.325 N 
ATOM     17  H   UNL     1      -1.090   5.157  -3.249  0.00  0.00    +0.145 HD
ATOM     18  H   UNL     1      -2.657   4.810  -3.746  0.00  0.00    +0.145 HD
ENDBRANCH   6  14
ENDBRANCH   3   5
BRANCH   1  19
ATOM     19  C   UNL     1      -0.735   1.584   1.272  0.00  0.00    +0.256 C 
ATOM     20  C   UNL     1      -0.187   0.893   0.022  0.00  0.00    +0.062 C 
BRANCH  19  21
ATOM     21  O   UNL     1      -0.038   1.106   2.425  0.00  0.00    -0.480 OA
BRANCH  21  27
ATOM     22  C   UNL     1      -3.077  -2.710   2.287  0.00  0.00    +0.044 C 
ATOM     23  C   UNL     1      -1.972  -1.931   2.950  0.00  0.00    -0.047 A 
ATOM     24  C   UNL     1      -1.419  -2.386   4.133  0.00  0.00    +0.004 A 
ATOM     25  C   UNL     1      -0.405  -1.673   4.745  0.00  0.00    +0.007 A 
ATOM     26  C   UNL     1       0.060  -0.503   4.174  0.00  0.00    -0.009 A 
ATOM     27  C   UNL     1      -0.493  -0.044   2.987  0.00  0.00    +0.125 A 
ATOM     28  C   UNL     1      -1.514  -0.759   2.379  0.00  0.00    +0.049 A 
ATOM     29  C   UNL     1       1.165   0.274   4.841  0.00  0.00    +0.047 C 
ENDBRANCH  21  27
ENDBRANCH  19  21
ENDBRANCH   1  19
TORSDOF 5
