REMARK  Name = ZINC15547316
REMARK  12 active torsions:
REMARK  status: ('A' for Active; 'I' for Inactive)
REMARK    1  A    between atoms: C_1  and  C_2
REMARK    2  A    between atoms: C_2  and  C_3
REMARK    3  A    between atoms: C_12  and  C_13
REMARK    4  A    between atoms: C_12  and  N_68
REMARK    5  A    between atoms: N_15  and  C_16
REMARK    6  A    between atoms: N_15  and  C_20
REMARK    7  A    between atoms: C_16  and  C_17
REMARK    8  A    between atoms: C_17  and  C_18
REMARK    9  A    between atoms: C_17  and  C_19
REMARK   10  A    between atoms: C_21  and  N_36
REMARK   11  A    between atoms: N_22  and  C_29
REMARK   12  A    between atoms: C_29  and  C_30
REMARK                            x       y       z     vdW  Elec       q    Type
REMARK                         _______ _______ _______ _____ _____    ______ ____
ROOT
ATOM      1  C   UNL     1       0.632   1.858   1.129  0.00  0.00    +0.203 C 
ATOM      2  O   UNL     1       1.157   1.670   0.052  0.00  0.00    -0.277 OA
ATOM      3  N   UNL     1       1.392   2.122   2.213  0.00  0.00    -0.266 N 
ENDROOT
BRANCH   3   4
ATOM      4  C   UNL     1       0.789   2.259   3.481  0.00  0.00    +0.140 A 
ATOM      5  C   UNL     1       1.027   1.332   4.475  0.00  0.00    +0.128 A 
ATOM      6  N   UNL     1       0.428   1.496   5.703  0.00  0.00    -0.276 N 
ATOM      7  C   UNL     1      -0.388   2.541   5.928  0.00  0.00    +0.331 A 
ATOM      8  O   UNL     1      -0.912   2.665   7.019  0.00  0.00    -0.246 OA
ATOM      9  N   UNL     1      -0.637   3.450   4.969  0.00  0.00    -0.273 N 
ATOM     10  H   UNL     1      -1.248   4.218   5.163  0.00  0.00    +0.173 HD
ATOM     11  C   UNL     1      -0.071   3.340   3.751  0.00  0.00    +0.277 A 
ATOM     12  O   UNL     1      -0.302   4.171   2.889  0.00  0.00    -0.266 OA
BRANCH   5  13
ATOM     13  N   UNL     1       1.857   0.261   4.244  0.00  0.00    -0.343 N 
ATOM     14  H   UNL     1       2.318   0.180   3.394  0.00  0.00    +0.144 HD
ATOM     15  H   UNL     1       1.982  -0.413   4.929  0.00  0.00    +0.144 HD
ENDBRANCH   5  13
BRANCH   6  16
ATOM     16  C   UNL     1       0.677   0.522   6.769  0.00  0.00    +0.163 C 
BRANCH  16  17
ATOM     17  C   UNL     1      -0.346  -0.581   6.691  0.00  0.00    -0.028 A 
ATOM     18  C   UNL     1      -1.534  -0.474   7.389  0.00  0.00    +0.005 A 
ATOM     19  C   UNL     1      -2.474  -1.484   7.313  0.00  0.00    +0.000 A 
ATOM     20  C   UNL     1      -2.222  -2.607   6.546  0.00  0.00    +0.000 A 
ATOM     21  C   UNL     1      -1.032  -2.717   5.852  0.00  0.00    +0.000 A 
ATOM     22  C   UNL     1      -0.094  -1.704   5.924  0.00  0.00    +0.005 A 
ENDBRANCH  16  17
ENDBRANCH   6  16
ENDBRANCH   3   4
BRANCH   1  23
ATOM     23  C   UNL     1      -0.868   1.797   1.258  0.00  0.00    +0.020 C 
BRANCH  23  32
ATOM     24  C   UNL     1      -2.900   1.579  -0.040  0.00  0.00    -0.036 C 
ATOM     25  C   UNL     1      -3.451   1.075  -1.370  0.00  0.00    -0.051 A 
ATOM     26  C   UNL     1      -4.684   1.454  -1.894  0.00  0.00    +0.010 A 
ATOM     27  C   UNL     1      -5.094   0.960  -3.086  0.00  0.00    +0.045 A 
ATOM     28  S   UNL     1      -3.724  -0.095  -3.539  0.00  0.00    -0.101 S 
ATOM     29  C   UNL     1      -2.716   0.202  -2.115  0.00  0.00    -0.010 A 
ATOM     30  C   UNL     1      -1.372  -0.353  -1.770  0.00  0.00    +0.024 C 
ATOM     31  C   UNL     1      -1.109  -0.056  -0.284  0.00  0.00    -0.072 C 
ATOM     32  N   UNL     1      -1.433   1.370  -0.037  0.00  0.00    +0.390 N 
ATOM     33  H   UNL     1      -1.017   1.938  -0.785  0.00  0.00    -0.080 HD
BRANCH  24  35
ATOM     34  C   UNL     1      -2.570   3.824  -1.086  0.00  0.00    +0.002 C 
ATOM     35  C   UNL     1      -3.184   3.076   0.099  0.00  0.00    -0.014 C 
ENDBRANCH  24  35
ENDBRANCH  23  32
ENDBRANCH   1  23
BRANCH   3  36
ATOM     36  C   UNL     1       2.843   2.266   2.073  0.00  0.00    +0.117 C 
BRANCH  36  37
ATOM     37  C   UNL     1       3.198   3.748   1.943  0.00  0.00    +0.001 C 
ATOM     38  C   UNL     1       4.720   3.906   1.895  0.00  0.00    +0.009 C 
ATOM     39  C   UNL     1       2.587   4.308   0.657  0.00  0.00    +0.009 C 
ENDBRANCH  36  37
ENDBRANCH   3  36
TORSDOF 9
