REMARK  Name = ZINC49586567
REMARK  7 active torsions:
REMARK  status: ('A' for Active; 'I' for Inactive)
REMARK    1  A    between atoms: C_1  and  N_2
REMARK    2  A    between atoms: N_2  and  C_3
REMARK    3  A    between atoms: C_3  and  C_4
REMARK    4  A    between atoms: C_7  and  C_10
REMARK    5  A    between atoms: C_11  and  C_12
REMARK    6  A    between atoms: C_12  and  N_13
REMARK    7  A    between atoms: C_14  and  C_16
REMARK                            x       y       z     vdW  Elec       q    Type
REMARK                         _______ _______ _______ _____ _____    ______ ____
ROOT
ATOM      1  C   UNL     1       0.596  -0.906   1.160  0.00  0.00    +0.142 C 
ENDROOT
BRANCH   1   2
ATOM      2  C   UNL     1      -0.616  -0.636   2.013  0.00  0.00    -0.030 A 
ATOM      3  C   UNL     1      -0.600   0.407   2.922  0.00  0.00    +0.006 A 
ATOM      4  C   UNL     1      -1.707   0.660   3.706  0.00  0.00    +0.017 A 
ATOM      5  C   UNL     1      -2.844  -0.140   3.581  0.00  0.00    +0.025 A 
ATOM      6  C   UNL     1      -2.853  -1.190   2.663  0.00  0.00    +0.017 A 
ATOM      7  C   UNL     1      -1.742  -1.429   1.881  0.00  0.00    +0.006 A 
BRANCH   5   8
ATOM      8  C   UNL     1      -3.996   0.117   4.392  0.00  0.00    -0.068 C 
ATOM      9  C   UNL     1      -4.940   0.327   5.057  0.00  0.00    -0.117 C 
BRANCH   9  10
ATOM     10  C   UNL     1      -6.124   0.591   5.891  0.00  0.00    +0.005 C 
BRANCH  10  11
ATOM     11  N   UNL     1      -7.176  -0.383   5.569  0.00  0.00    +0.385 N 
ATOM     12  H   UNL     1      -7.425  -0.299   4.595  0.00  0.00    -0.089 HD
ATOM     13  H   UNL     1      -6.838  -1.316   5.751  0.00  0.00    -0.089 HD
ATOM     14  H   UNL     1      -7.988  -0.202   6.141  0.00  0.00    -0.089 HD
ENDBRANCH  10  11
ENDBRANCH   9  10
ENDBRANCH   5   8
ENDBRANCH   1   2
BRANCH   1  16
ATOM     15  C   UNL     1       1.056   1.218  -0.152  0.00  0.00    +0.132 C 
ATOM     16  N   UNL     1       0.499  -0.136  -0.083  0.00  0.00    -0.295 N 
ATOM     17  C   UNL     1      -0.102  -0.673  -1.163  0.00  0.00    +0.264 C 
ATOM     18  O   UNL     1      -0.626  -1.769  -1.086  0.00  0.00    -0.268 OA
BRANCH  17  19
ATOM     19  C   UNL     1      -0.124   0.063  -2.432  0.00  0.00    +0.122 A 
ATOM     20  C   UNL     1      -0.829  -0.266  -3.537  0.00  0.00    +0.118 A 
ATOM     21  N   UNL     1      -0.573   0.679  -4.496  0.00  0.00    -0.312 N 
ATOM     22  H   UNL     1      -0.947   0.692  -5.390  0.00  0.00    +0.170 HD
ATOM     23  C   UNL     1       0.285   1.585  -3.990  0.00  0.00    +0.325 A 
ATOM     24  O   UNL     1       0.720   2.558  -4.579  0.00  0.00    -0.247 OA
ATOM     25  N   UNL     1       0.576   1.238  -2.721  0.00  0.00    -0.303 N 
ATOM     26  H   UNL     1       1.167   1.716  -2.118  0.00  0.00    +0.171 HD
ENDBRANCH  17  19
ENDBRANCH   1  16
TORSDOF 6
