REMARK  Name = ZINC41722337
REMARK  10 active torsions:
REMARK  status: ('A' for Active; 'I' for Inactive)
REMARK    1  A    between atoms: C_1  and  C_2
REMARK    2  A    between atoms: C_5  and  C_8
REMARK    3  A    between atoms: C_8  and  C_9
REMARK    4  A    between atoms: C_9  and  C_11
REMARK    5  A    between atoms: C_9  and  N_12
REMARK    6  A    between atoms: C_13  and  C_15
REMARK    7  A    between atoms: C_15  and  C_25
REMARK    8  A    between atoms: C_16  and  C_17
REMARK    9  A    between atoms: C_20  and  O_24
REMARK   10  A    between atoms: C_21  and  O_23
REMARK                            x       y       z     vdW  Elec       q    Type
REMARK                         _______ _______ _______ _____ _____    ______ ____
ROOT
ATOM      1  N   UNL     1       2.123  -4.082  -1.241  0.00  0.00    -0.308 N 
ATOM      2  C   UNL     1       3.462  -3.941  -1.296  0.00  0.00    +0.255 C 
ATOM      3  O   UNL     1       4.115  -3.921  -0.269  0.00  0.00    -0.269 OA
ATOM      4  H   UNL     1       1.603  -4.098  -2.060  0.00  0.00    +0.149 HD
ENDROOT
BRANCH   1   5
ATOM      5  C   UNL     1       1.453  -4.211   0.055  0.00  0.00    +0.074 C 
ATOM      6  C   UNL     1       1.478  -5.675   0.499  0.00  0.00    +0.028 C 
BRANCH   5   7
ATOM      7  C   UNL     1       0.002  -3.742  -0.071  0.00  0.00    +0.057 C 
BRANCH   7  12
ATOM      8  C   UNL     1      -0.098   1.907  -1.286  0.00  0.00    +0.044 C 
ATOM      9  C   UNL     1      -0.071   0.434  -0.969  0.00  0.00    -0.050 A 
ATOM     10  C   UNL     1      -0.037  -0.493  -1.994  0.00  0.00    +0.003 A 
ATOM     11  C   UNL     1      -0.013  -1.844  -1.704  0.00  0.00    +0.004 A 
ATOM     12  C   UNL     1      -0.023  -2.268  -0.388  0.00  0.00    -0.046 A 
ATOM     13  C   UNL     1      -0.056  -1.342   0.637  0.00  0.00    +0.004 A 
ATOM     14  C   UNL     1      -0.076   0.010   0.346  0.00  0.00    +0.003 A 
ENDBRANCH   7  12
ENDBRANCH   5   7
ENDBRANCH   1   5
BRANCH   2  15
ATOM     15  C   UNL     1       4.136  -3.811  -2.598  0.00  0.00    +0.114 C 
ATOM     16  C   UNL     1       5.505  -3.667  -2.654  0.00  0.00    +0.032 C 
BRANCH  16  17
ATOM     17  C   UNL     1       6.158  -3.372  -3.931  0.00  0.00    -0.020 A 
ATOM     18  C   UNL     1       7.422  -3.909  -4.215  0.00  0.00    +0.012 A 
ATOM     19  C   UNL     1       8.033  -3.629  -5.417  0.00  0.00    +0.050 A 
ATOM     20  C   UNL     1       7.401  -2.816  -6.349  0.00  0.00    +0.158 A 
ATOM     21  C   UNL     1       6.144  -2.277  -6.075  0.00  0.00    +0.159 A 
ATOM     22  C   UNL     1       5.520  -2.556  -4.876  0.00  0.00    +0.057 A 
BRANCH  21  23
ATOM     23  O   UNL     1       5.530  -1.482  -6.991  0.00  0.00    -0.503 OA
ATOM     24  H   UNL     1       4.970  -1.962  -7.616  0.00  0.00    +0.292 HD
ENDBRANCH  21  23
BRANCH  20  25
ATOM     25  O   UNL     1       8.010  -2.544  -7.532  0.00  0.00    -0.503 OA
ATOM     26  H   UNL     1       7.804  -3.175  -8.235  0.00  0.00    +0.292 HD
ENDBRANCH  20  25
ENDBRANCH  16  17
BRANCH  15  27
ATOM     27  C   UNL     1       3.368  -3.834  -3.806  0.00  0.00    +0.104 C 
ATOM     28  N   UNL     1       2.759  -3.853  -4.765  0.00  0.00    -0.191 NA
ENDBRANCH  15  27
ENDBRANCH   2  15
TORSDOF 8
