REMARK  Name = ZINC39963410
REMARK  6 active torsions:
REMARK  status: ('A' for Active; 'I' for Inactive)
REMARK    1  A    between atoms: C_1  and  C_2
REMARK    2  A    between atoms: C_7  and  C_12
REMARK    3  A    between atoms: C_12  and  C_23
REMARK    4  A    between atoms: C_13  and  C_14
REMARK    5  A    between atoms: C_17  and  O_21
REMARK    6  A    between atoms: O_21  and  C_22
REMARK                            x       y       z     vdW  Elec       q    Type
REMARK                         _______ _______ _______ _____ _____    ______ ____
ROOT
ATOM      1  C   UNL     1      -1.152  -5.096   1.988  0.00  0.00    +0.072 C 
ATOM      2  C   UNL     1      -1.020  -6.293   2.595  0.00  0.00    +0.026 C 
ENDROOT
BRANCH   1   9
ATOM      3  C   UNL     1       0.279   1.381  -0.213  0.00  0.00    +0.044 C 
ATOM      4  C   UNL     1       0.133  -0.119  -0.211  0.00  0.00    -0.048 A 
ATOM      5  C   UNL     1      -0.186  -0.768  -1.417  0.00  0.00    +0.005 A 
ATOM      6  C   UNL     1      -0.336  -2.105  -1.505  0.00  0.00    +0.027 A 
ATOM      7  C   UNL     1      -0.161  -2.935  -0.305  0.00  0.00    +0.060 A 
ATOM      8  N   UNL     1      -0.242  -4.217  -0.097  0.00  0.00    -0.359 N 
ATOM      9  C   UNL     1       0.038  -4.451   1.325  0.00  0.00    +0.216 C 
ATOM     10  N   UNL     1       0.293  -3.132   1.919  0.00  0.00    -0.359 N 
ATOM     11  C   UNL     1       0.178  -2.248   0.971  0.00  0.00    +0.061 A 
ATOM     12  C   UNL     1       0.320  -0.786   0.946  0.00  0.00    +0.030 A 
ATOM     13  H   UNL     1      -0.450  -4.894  -0.760  0.00  0.00    +0.162 HD
ATOM     14  H   UNL     1       0.508  -2.953   2.848  0.00  0.00    +0.162 HD
ENDBRANCH   1   9
BRANCH   2  15
ATOM     15  C   UNL     1      -2.208  -6.998   3.099  0.00  0.00    -0.023 A 
ATOM     16  C   UNL     1      -3.411  -6.945   2.385  0.00  0.00    +0.011 A 
ATOM     17  C   UNL     1      -4.521  -7.606   2.861  0.00  0.00    +0.047 A 
ATOM     18  C   UNL     1      -4.449  -8.326   4.047  0.00  0.00    +0.134 A 
ATOM     19  C   UNL     1      -3.256  -8.383   4.761  0.00  0.00    +0.060 A 
ATOM     20  C   UNL     1      -2.138  -7.730   4.290  0.00  0.00    +0.027 A 
ATOM     21 BR   UNL     1      -3.167  -9.364   6.375  0.00  0.00    -0.047 Br
BRANCH  18  22
ATOM     22  O   UNL     1      -5.546  -8.976   4.512  0.00  0.00    -0.494 OA
ATOM     23  C   UNL     1      -6.739  -8.877   3.731  0.00  0.00    +0.277 C 
ENDBRANCH  18  22
ENDBRANCH   2  15
BRANCH   1  24
ATOM     24  C   UNL     1      -2.424  -4.438   1.972  0.00  0.00    +0.099 C 
ATOM     25  N   UNL     1      -3.433  -3.916   1.960  0.00  0.00    -0.191 NA
ENDBRANCH   1  24
TORSDOF 4
