REMARK  Name = ZINC35430565
REMARK  6 active torsions:
REMARK  status: ('A' for Active; 'I' for Inactive)
REMARK    1  A    between atoms: C_1  and  C_2
REMARK    2  A    between atoms: C_2  and  N_3
REMARK    3  A    between atoms: N_3  and  C_4
REMARK    4  A    between atoms: C_4  and  C_5
REMARK    5  A    between atoms: C_6  and  O_13
REMARK    6  A    between atoms: O_13  and  C_14
REMARK                            x       y       z     vdW  Elec       q    Type
REMARK                         _______ _______ _______ _____ _____    ______ ____
ROOT
ATOM      1  C   UNL     1      -2.693  -2.776   0.028  0.00  0.00    +0.070 A 
ATOM      2  C   UNL     1      -3.413  -3.036   1.137  0.00  0.00    +0.241 A 
ATOM      3  N   UNL     1      -4.488  -3.760   0.782  0.00  0.00    -0.186 NA
ATOM      4  C   UNL     1      -4.460  -3.958  -0.505  0.00  0.00    +0.181 A 
ATOM      5  N   UNL     1      -3.357  -3.360  -1.053  0.00  0.00    -0.296 N 
ATOM      6  C   UNL     1      -3.195  -3.478  -2.416  0.00  0.00    +0.100 A 
ATOM      7  C   UNL     1      -4.082  -4.145  -3.154  0.00  0.00    +0.067 A 
ATOM      8  S   UNL     1      -5.254  -4.686  -1.919  0.00  0.00    -0.058 S 
ENDROOT
BRANCH   1   9
ATOM      9  C   UNL     1      -1.408  -1.991  -0.035  0.00  0.00    -0.022 C 
BRANCH   9  10
ATOM     10  N   UNL     1      -1.713  -0.569  -0.243  0.00  0.00    +0.383 N 
ATOM     11  H   UNL     1      -2.276  -0.230   0.522  0.00  0.00    -0.085 HD
ATOM     12  H   UNL     1      -2.219  -0.456  -1.109  0.00  0.00    -0.085 HD
BRANCH  10  14
ATOM     13  C   UNL     1      -0.777   1.677  -0.521  0.00  0.00    -0.017 C 
ATOM     14  C   UNL     1      -0.460   0.196  -0.305  0.00  0.00    -0.086 C 
ENDBRANCH  10  14
ENDBRANCH   9  10
ENDBRANCH   1   9
BRANCH   2  15
ATOM     15  O   UNL     1      -3.105  -2.634   2.400  0.00  0.00    -0.434 OA
BRANCH  15  16
ATOM     16  C   UNL     1      -4.016  -2.862   3.382  0.00  0.00    +0.165 A 
ATOM     17  C   UNL     1      -5.282  -3.330   3.062  0.00  0.00    +0.049 A 
ATOM     18  C   UNL     1      -6.206  -3.561   4.062  0.00  0.00    +0.004 A 
ATOM     19  C   UNL     1      -5.871  -3.326   5.383  0.00  0.00    +0.003 A 
ATOM     20  C   UNL     1      -4.611  -2.860   5.707  0.00  0.00    +0.042 A 
ATOM     21  C   UNL     1      -3.679  -2.632   4.711  0.00  0.00    +0.165 A 
ATOM     22  F   UNL     1      -2.446  -2.181   5.027  0.00  0.00    -0.202 F 
ENDBRANCH  15  16
ENDBRANCH   2  15
TORSDOF 5
