REMARK  Name = ZINC50308417
REMARK  5 active torsions:
REMARK  status: ('A' for Active; 'I' for Inactive)
REMARK    1  A    between atoms: C_1  and  C_2
REMARK    2  A    between atoms: C_2  and  C_3
REMARK    3  A    between atoms: C_3  and  C_4
REMARK    4  A    between atoms: N_8  and  C_9
REMARK    5  A    between atoms: C_14  and  N_15
REMARK                            x       y       z     vdW  Elec       q    Type
REMARK                         _______ _______ _______ _____ _____    ______ ____
ROOT
ATOM      1  C   UNL     1      -1.177  -2.464   2.428  0.00  0.00    +0.090 A 
ATOM      2  C   UNL     1      -2.065  -1.548   2.972  0.00  0.00    +0.032 A 
ATOM      3  C   UNL     1      -1.937  -1.162   4.293  0.00  0.00    +0.040 A 
ATOM      4  C   UNL     1      -0.923  -1.687   5.077  0.00  0.00    +0.125 A 
ATOM      5  C   UNL     1      -0.033  -2.601   4.542  0.00  0.00    +0.063 A 
ATOM      6  C   UNL     1      -0.159  -2.997   3.218  0.00  0.00    +0.053 A 
ATOM      7  F   UNL     1      -0.803  -1.305   6.367  0.00  0.00    -0.205 F 
ENDROOT
BRANCH   1  12
ATOM      8  C   UNL     1      -1.442  -2.056   0.007  0.00  0.00    +0.157 A 
ATOM      9  N   UNL     1      -1.524  -2.831  -1.043  0.00  0.00    -0.113 NA
ATOM     10  N   UNL     1      -1.454  -4.067  -0.700  0.00  0.00    -0.023 NA
ATOM     11  N   UNL     1      -1.323  -4.167   0.579  0.00  0.00    -0.039 NA
ATOM     12  N   UNL     1      -1.306  -2.856   1.086  0.00  0.00    -0.195 N 
BRANCH   8  13
ATOM     13  C   UNL     1      -1.485  -0.550   0.012  0.00  0.00    +0.078 C 
BRANCH  13  15
ATOM     14  C   UNL     1      -0.102   1.531  -0.005  0.00  0.00    +0.004 C 
ATOM     15  C   UNL     1      -0.058   0.001  -0.009  0.00  0.00    +0.004 C 
ENDBRANCH  13  15
ENDBRANCH   8  13
ENDBRANCH   1  12
BRANCH   6  16
ATOM     16  N   UNL     1       0.734  -3.925   2.676  0.00  0.00    -0.356 N 
ATOM     17  H   UNL     1       0.697  -4.140   1.731  0.00  0.00    +0.142 HD
ATOM     18  H   UNL     1       1.393  -4.354   3.245  0.00  0.00    +0.142 HD
ENDBRANCH   6  16
TORSDOF 4
