REMARK  Name = ZINC54094912
REMARK  10 active torsions:
REMARK  status: ('A' for Active; 'I' for Inactive)
REMARK    1  A    between atoms: C_1  and  C_2
REMARK    2  A    between atoms: C_6  and  O_8
REMARK    3  A    between atoms: O_8  and  C_9
REMARK    4  A    between atoms: C_9  and  C_10
REMARK    5  A    between atoms: N_12  and  N_13
REMARK    6  A    between atoms: N_16  and  C_17
REMARK    7  A    between atoms: C_17  and  C_18
REMARK    8  A    between atoms: C_18  and  N_24
REMARK    9  A    between atoms: N_24  and  C_25
REMARK   10  A    between atoms: N_24  and  C_26
REMARK                            x       y       z     vdW  Elec       q    Type
REMARK                         _______ _______ _______ _____ _____    ______ ____
ROOT
ATOM      1  N   UNL     1       0.318  -6.490   4.857  0.00  0.00    -0.218 N 
ATOM      2  C   UNL     1       0.322  -7.818   5.082  0.00  0.00    +0.316 C 
ATOM      3  O   UNL     1       0.352  -8.241   6.222  0.00  0.00    -0.251 OA
ATOM      4  N   UNL     1       0.294  -8.678   4.045  0.00  0.00    -0.300 N 
ATOM      5  H   UNL     1       0.338  -5.871   5.603  0.00  0.00    +0.174 HD
ATOM      6  H   UNL     1       0.270  -8.341   3.136  0.00  0.00    +0.150 HD
ENDROOT
BRANCH   1   9
ATOM      7  C   UNL     1       0.278  -4.673   3.318  0.00  0.00    +0.267 C 
ATOM      8  O   UNL     1       0.304  -3.900   4.251  0.00  0.00    -0.271 OA
ATOM      9  N   UNL     1       0.283  -6.002   3.544  0.00  0.00    -0.230 N 
ATOM     10  H   UNL     1       0.263  -6.621   2.797  0.00  0.00    +0.173 HD
BRANCH   7  11
ATOM     11  C   UNL     1       0.241  -4.149   1.905  0.00  0.00    +0.326 C 
BRANCH  11  12
ATOM     12  O   UNL     1       0.243  -2.720   1.927  0.00  0.00    -0.483 OA
BRANCH  12  18
ATOM     13  C   UNL     1       0.179   1.451  -0.606  0.00  0.00    +0.044 C 
ATOM     14  C   UNL     1       0.179  -0.055  -0.548  0.00  0.00    -0.047 A 
ATOM     15  C   UNL     1       0.148  -0.791  -1.718  0.00  0.00    +0.003 A 
ATOM     16  C   UNL     1       0.148  -2.173  -1.668  0.00  0.00    +0.004 A 
ATOM     17  C   UNL     1       0.180  -2.821  -0.449  0.00  0.00    +0.045 A 
ATOM     18  C   UNL     1       0.212  -2.085   0.727  0.00  0.00    +0.121 A 
ATOM     19  C   UNL     1       0.218  -0.698   0.674  0.00  0.00    +0.049 A 
ENDBRANCH  12  18
ENDBRANCH  11  12
ENDBRANCH   7  11
ENDBRANCH   1   9
BRANCH   4  20
ATOM     20  C   UNL     1       0.299 -10.123   4.290  0.00  0.00    +0.094 C 
BRANCH  20  21
ATOM     21  C   UNL     1       0.119 -10.866   2.965  0.00  0.00    -0.050 C 
ATOM     22  C   UNL     1      -0.006 -12.367   3.235  0.00  0.00    -0.010 C 
ATOM     23  C   UNL     1       1.261 -12.866   3.932  0.00  0.00    -0.001 C 
ATOM     24  C   UNL     1       2.473 -12.608   3.034  0.00  0.00    -0.000 C 
ATOM     25  C   UNL     1       2.597 -11.107   2.764  0.00  0.00    -0.001 C 
ATOM     26  C   UNL     1       1.330 -10.608   2.067  0.00  0.00    -0.010 C 
BRANCH  21  27
ATOM     27  N   UNL     1      -1.098 -10.386   2.296  0.00  0.00    +0.381 N 
ATOM     28  C   UNL     1      -1.290 -11.124   1.041  0.00  0.00    -0.096 C 
ATOM     29  C   UNL     1      -2.256 -10.601   3.173  0.00  0.00    -0.096 C 
ATOM     30  H   UNL     1      -1.006  -9.401   2.097  0.00  0.00    -0.082 HD
ENDBRANCH  21  27
ENDBRANCH  20  21
ENDBRANCH   4  20
TORSDOF 7
