REMARK  Name = ZINC31890981
REMARK  8 active torsions:
REMARK  status: ('A' for Active; 'I' for Inactive)
REMARK    1  A    between atoms: C_1  and  C_2
REMARK    2  A    between atoms: C_2  and  C_3
REMARK    3  A    between atoms: C_2  and  C_4
REMARK    4  A    between atoms: C_4  and  N_5
REMARK    5  A    between atoms: C_6  and  N_22
REMARK    6  A    between atoms: C_7  and  C_14
REMARK    7  A    between atoms: C_14  and  N_15
REMARK    8  A    between atoms: N_18  and  C_21
REMARK                            x       y       z     vdW  Elec       q    Type
REMARK                         _______ _______ _______ _____ _____    ______ ____
ROOT
ATOM      1  N   UNL     1      -0.082   7.001  -3.199  0.00  0.00    -0.281 N 
ATOM      2  C   UNL     1      -0.227   5.635  -3.167  0.00  0.00    +0.110 A 
ATOM      3  C   UNL     1      -1.263   5.086  -2.464  0.00  0.00    +0.069 A 
ATOM      4  C   UNL     1      -2.159   5.935  -1.795  0.00  0.00    +0.260 A 
ATOM      5  O   UNL     1      -3.093   5.469  -1.166  0.00  0.00    -0.267 OA
ATOM      6  N   UNL     1      -1.976   7.269  -1.848  0.00  0.00    -0.275 N 
ATOM      7  H   UNL     1      -2.668   7.941  -1.319  0.00  0.00    +0.173 HD
ATOM      8  C   UNL     1      -0.951   7.793  -2.545  0.00  0.00    +0.331 A 
ATOM      9  O   UNL     1      -0.808   9.000  -2.585  0.00  0.00    -0.246 OA
ENDROOT
BRANCH   2  10
ATOM     10  N   UNL     1       0.660   4.829  -3.834  0.00  0.00    -0.344 N 
ATOM     11  H   UNL     1       0.539   3.736  -3.806  0.00  0.00    +0.144 HD
ATOM     12  H   UNL     1       1.492   5.276  -4.399  0.00  0.00    +0.144 HD
ENDBRANCH   2  10
BRANCH   1  13
ATOM     13  C   UNL     1       1.025   7.598  -3.950  0.00  0.00    +0.131 C 
BRANCH  13  15
ATOM     14  C   UNL     1       1.691   8.604  -6.138  0.00  0.00    +0.009 C 
ATOM     15  C   UNL     1       0.579   7.867  -5.389  0.00  0.00    +0.003 C 
ATOM     16  C   UNL     1       0.286   6.538  -6.089  0.00  0.00    +0.009 C 
ENDBRANCH  13  15
ENDBRANCH   1  13
BRANCH   3  17
ATOM     17  C   UNL     1      -1.445   3.591  -2.413  0.00  0.00    +0.128 C 
BRANCH  17  18
ATOM     18  N   UNL     1      -0.806   3.062  -1.200  0.00  0.00    -0.301 NA
ATOM     19  C   UNL     1      -0.754   1.593  -1.231  0.00  0.00    +0.066 C 
ATOM     20  C   UNL     1      -0.013   1.086   0.008  0.00  0.00    -0.064 C 
ATOM     21  N   UNL     1      -0.701   1.560   1.216  0.00  0.00    +0.379 N 
ATOM     22  C   UNL     1      -0.754   3.029   1.247  0.00  0.00    -0.064 C 
ATOM     23  C   UNL     1      -1.495   3.536   0.008  0.00  0.00    +0.066 C 
ATOM     24  C   UNL     1      -0.062   1.031   2.429  0.00  0.00    -0.096 C 
ATOM     25  H   UNL     1      -1.735   1.184   1.189  0.00  0.00    -0.082 HD
ENDBRANCH  17  18
ENDBRANCH   3  17
TORSDOF 5
