REMARK  Name = ZINC31932878
REMARK  9 active torsions:
REMARK  status: ('A' for Active; 'I' for Inactive)
REMARK    1  A    between atoms: C_1  and  C_2
REMARK    2  A    between atoms: C_9  and  C_16
REMARK    3  A    between atoms: C_10  and  C_11
REMARK    4  A    between atoms: C_11  and  C_13
REMARK    5  A    between atoms: C_11  and  C_14
REMARK    6  A    between atoms: C_14  and  N_15
REMARK    7  A    between atoms: C_19  and  O_23
REMARK    8  A    between atoms: C_20  and  C_22
REMARK    9  A    between atoms: O_23  and  C_24
REMARK                            x       y       z     vdW  Elec       q    Type
REMARK                         _______ _______ _______ _____ _____    ______ ____
ROOT
ATOM      1  C   UNL     1       8.279   6.467   0.543  0.00  0.00    +0.044 C 
ATOM      2  C   UNL     1       7.410   5.244   0.685  0.00  0.00    -0.046 A 
ATOM      3  C   UNL     1       7.876   4.125   1.396  0.00  0.00    +0.021 A 
ATOM      4  C   UNL     1       7.101   3.028   1.524  0.00  0.00    +0.093 A 
ATOM      5  N   UNL     1       5.855   2.988   0.968  0.00  0.00    -0.303 N 
ATOM      6  C   UNL     1       5.372   4.064   0.268  0.00  0.00    +0.139 A 
ATOM      7  C   UNL     1       6.170   5.217   0.125  0.00  0.00    +0.050 A 
ATOM      8  N   UNL     1       4.154   3.768  -0.162  0.00  0.00    -0.228 NA
ATOM      9  C   UNL     1       3.835   2.528   0.240  0.00  0.00    +0.093 A 
ATOM     10  C   UNL     1       4.883   2.027   0.953  0.00  0.00    +0.052 A 
ENDROOT
BRANCH   9  11
ATOM     11  C   UNL     1       2.558   1.825  -0.038  0.00  0.00    +0.003 A 
ATOM     12  C   UNL     1       1.674   1.547   1.003  0.00  0.00    +0.013 A 
ATOM     13  C   UNL     1       0.487   0.893   0.742  0.00  0.00    +0.046 A 
ATOM     14  C   UNL     1       0.174   0.513  -0.556  0.00  0.00    +0.123 A 
ATOM     15  C   UNL     1       1.053   0.789  -1.595  0.00  0.00    -0.008 A 
ATOM     16  C   UNL     1       2.241   1.442  -1.339  0.00  0.00    +0.017 A 
ATOM     17  C   UNL     1       0.712   0.368  -3.001  0.00  0.00    +0.047 C 
BRANCH  14  18
ATOM     18  O   UNL     1      -0.995  -0.130  -0.811  0.00  0.00    -0.495 OA
ATOM     19  C   UNL     1      -1.853  -0.382   0.304  0.00  0.00    +0.277 C 
ENDBRANCH  14  18
ENDBRANCH   9  11
BRANCH  10  20
ATOM     20  C   UNL     1       4.958   0.667   1.599  0.00  0.00    +0.018 C 
ATOM     21  C   UNL     1       3.942   0.589   2.741  0.00  0.00    +0.012 C 
BRANCH  20  22
ATOM     22  C   UNL     1       4.640  -0.410   0.560  0.00  0.00    -0.077 C 
BRANCH  22  23
ATOM     23  N   UNL     1       4.810  -1.738   1.164  0.00  0.00    +0.379 N 
ATOM     24  H   UNL     1       4.582  -2.512   0.417  0.00  0.00    -0.090 HD
ATOM     25  H   UNL     1       4.127  -1.842   2.020  0.00  0.00    -0.090 HD
ATOM     26  H   UNL     1       5.849  -1.855   1.507  0.00  0.00    -0.090 HD
ENDBRANCH  22  23
ENDBRANCH  20  22
ENDBRANCH  10  20
TORSDOF 5
