REMARK  Name = ZINC39332235
REMARK  3 active torsions:
REMARK  status: ('A' for Active; 'I' for Inactive)
REMARK    1  A    between atoms: C_1  and  C_2
REMARK    2  A    between atoms: C_4  and  C_17
REMARK    3  A    between atoms: N_8  and  C_9
REMARK                            x       y       z     vdW  Elec       q    Type
REMARK                         _______ _______ _______ _____ _____    ______ ____
ROOT
ATOM      1  C   UNL     1      -0.019   1.526   0.010  0.00  0.00    +0.028 C 
ATOM      2  C   UNL     1       0.002  -0.004   0.002  0.00  0.00    +0.077 C 
ATOM      3  C   UNL     1      -1.440  -0.562   0.051  0.00  0.00    +0.003 C 
ATOM      4  N   UNL     1      -1.594  -0.873   1.501  0.00  0.00    +0.403 N 
ATOM      5  N   UNL     1      -0.248  -1.323   1.881  0.00  0.00    -0.285 NA
ATOM      6  N   UNL     1       0.649  -0.515   1.224  0.00  0.00    -0.278 N 
ATOM      7  H   UNL     1      -1.854  -0.047   2.018  0.00  0.00    -0.058 HD
ATOM      8  H   UNL     1      -0.108  -2.292   1.636  0.00  0.00    +0.122 HD
ATOM      9  H   UNL     1      -2.269  -1.611   1.639  0.00  0.00    -0.058 HD
ENDROOT
BRANCH   6  10
ATOM     10  C   UNL     1       1.952  -0.227   1.641  0.00  0.00    +0.063 A 
ATOM     11  C   UNL     1       2.355   1.093   1.800  0.00  0.00    +0.045 A 
ATOM     12  C   UNL     1       3.644   1.374   2.213  0.00  0.00    +0.043 A 
ATOM     13  C   UNL     1       4.532   0.343   2.467  0.00  0.00    +0.021 A 
ATOM     14  C   UNL     1       4.133  -0.971   2.308  0.00  0.00    +0.023 A 
ATOM     15  C   UNL     1       2.844  -1.260   1.903  0.00  0.00    +0.063 A 
ATOM     16 CL   UNL     1       2.342  -2.910   1.712  0.00  0.00    -0.082 Cl
ATOM     17 CL   UNL     1       4.150   3.023   2.412  0.00  0.00    -0.083 Cl
ENDBRANCH   6  10
BRANCH   3  18
ATOM     18  C   UNL     1      -2.452   0.495  -0.394  0.00  0.00    +0.143 C 
ATOM     19  C   UNL     1      -3.859  -0.077  -0.400  0.00  0.00    +0.021 C 
ATOM     20  C   UNL     1      -4.239   0.020  -1.675  0.00  0.00    +0.132 C 
ATOM     21  N   UNL     1      -3.260   0.567  -2.428  0.00  0.00    -0.162 NA
ATOM     22  N   UNL     1      -2.235   0.864  -1.803  0.00  0.00    -0.182 NA
ENDBRANCH   3  18
TORSDOF 2
