REMARK  Name = ZINC48989012
REMARK  7 active torsions:
REMARK  status: ('A' for Active; 'I' for Inactive)
REMARK    1  A    between atoms: C_1  and  N_2
REMARK    2  A    between atoms: N_2  and  C_3
REMARK    3  A    between atoms: C_3  and  C_4
REMARK    4  A    between atoms: C_11  and  C_13
REMARK    5  A    between atoms: C_16  and  C_18
REMARK    6  A    between atoms: C_19  and  C_20
REMARK    7  A    between atoms: C_20  and  N_21
REMARK                            x       y       z     vdW  Elec       q    Type
REMARK                         _______ _______ _______ _____ _____    ______ ____
ROOT
ATOM      1  C   UNL     1      -0.079   1.461   0.013  0.00  0.00    +0.133 C 
ATOM      2  N   UNL     1      -0.019  -0.003   0.003  0.00  0.00    -0.291 N 
ATOM      3  C   UNL     1      -0.102  -0.673  -1.163  0.00  0.00    +0.253 C 
ATOM      4  O   UNL     1      -0.158  -1.889  -1.164  0.00  0.00    -0.269 OA
ENDROOT
BRANCH   3   5
ATOM      5  C   UNL     1      -0.124   0.062  -2.430  0.00  0.00    +0.075 A 
ATOM      6  C   UNL     1      -0.323  -0.422  -3.716  0.00  0.00    +0.022 A 
ATOM      7  C   UNL     1      -0.301   0.458  -4.759  0.00  0.00    +0.025 A 
ATOM      8  C   UNL     1      -0.082   1.803  -4.493  0.00  0.00    +0.063 A 
ATOM      9  S   UNL     1       0.090   1.811  -2.716  0.00  0.00    -0.075 S 
BRANCH   8  10
ATOM     10  C   UNL     1      -0.017   2.902  -5.408  0.00  0.00    -0.061 C 
ATOM     11  C   UNL     1       0.037   3.804  -6.158  0.00  0.00    -0.116 C 
BRANCH  11  12
ATOM     12  C   UNL     1       0.104   4.934  -7.099  0.00  0.00    +0.005 C 
BRANCH  12  13
ATOM     13  N   UNL     1       0.357   6.175  -6.356  0.00  0.00    +0.385 N 
ATOM     14  H   UNL     1       0.403   6.950  -7.001  0.00  0.00    -0.089 HD
ATOM     15  H   UNL     1      -0.391   6.331  -5.696  0.00  0.00    -0.089 HD
ATOM     16  H   UNL     1       1.232   6.098  -5.860  0.00  0.00    -0.089 HD
ENDBRANCH  12  13
ENDBRANCH  11  12
ENDBRANCH   8  10
ENDBRANCH   3   5
BRANCH   2  17
ATOM     17  C   UNL     1       0.130  -0.738   1.261  0.00  0.00    +0.203 C 
BRANCH  17  18
ATOM     18  C   UNL     1      -1.232  -1.049   1.826  0.00  0.00    +0.233 C 
ATOM     19  O   UNL     1      -2.230  -0.691   1.236  0.00  0.00    -0.274 OA
ATOM     20  N   UNL     1      -1.343  -1.724   2.987  0.00  0.00    -0.300 N 
ATOM     21  C   UNL     1      -0.222  -2.209   3.806  0.00  0.00    +0.108 C 
ATOM     22  C   UNL     1      -0.827  -2.943   5.022  0.00  0.00    +0.020 C 
ATOM     23  C   UNL     1      -2.248  -3.321   4.528  0.00  0.00    +0.020 C 
ATOM     24  C   UNL     1      -2.607  -2.093   3.650  0.00  0.00    +0.108 C 
ENDBRANCH  17  18
ENDBRANCH   2  17
TORSDOF 6
