REMARK  Name = ZINC38979595
REMARK  6 active torsions:
REMARK  status: ('A' for Active; 'I' for Inactive)
REMARK    1  A    between atoms: C_2  and  C_3
REMARK    2  A    between atoms: C_3  and  N_4
REMARK    3  A    between atoms: C_13  and  C_18
REMARK    4  A    between atoms: C_15  and  O_17
REMARK    5  A    between atoms: N_20  and  C_21
REMARK    6  A    between atoms: C_23  and  O_33
REMARK                            x       y       z     vdW  Elec       q    Type
REMARK                         _______ _______ _______ _____ _____    ______ ____
ROOT
ATOM      1  C   UNL     1       0.634  -4.788  -2.062  0.00  0.00    +0.229 C 
ATOM      2  O   UNL     1       0.290  -5.491  -1.135  0.00  0.00    -0.275 OA
ATOM      3  N   UNL     1       1.452  -5.281  -3.013  0.00  0.00    -0.297 N 
ATOM      4  H   UNL     1       1.728  -4.719  -3.754  0.00  0.00    +0.150 HD
ENDROOT
BRANCH   3   5
ATOM      5  C   UNL     1       1.925  -6.665  -2.928  0.00  0.00    +0.226 C 
ATOM      6  C   UNL     1       3.278  -6.737  -3.609  0.00  0.00    +0.132 C 
ATOM      7  C   UNL     1       3.405  -7.629  -4.676  0.00  0.00    +0.036 A 
ATOM      8  C   UNL     1       4.629  -7.759  -5.364  0.00  0.00    +0.013 A 
ATOM      9  C   UNL     1       4.726  -8.636  -6.401  0.00  0.00    +0.001 A 
ATOM     10  C   UNL     1       3.640  -9.410  -6.797  0.00  0.00    +0.002 A 
ATOM     11  C   UNL     1       2.433  -9.328  -6.170  0.00  0.00    +0.024 A 
ATOM     12  C   UNL     1       2.260  -8.443  -5.092  0.00  0.00    +0.044 A 
ATOM     13  N   UNL     1       1.073  -8.365  -4.478  0.00  0.00    -0.283 N 
ATOM     14  C   UNL     1       0.832  -7.562  -3.462  0.00  0.00    +0.245 C 
ATOM     15  O   UNL     1      -0.274  -7.543  -2.952  0.00  0.00    -0.273 OA
ATOM     16  H   UNL     1       0.352  -8.929  -4.798  0.00  0.00    +0.155 HD
BRANCH   6  17
ATOM     17  O   UNL     1       4.304  -5.980  -3.206  0.00  0.00    -0.508 OA
ATOM     18  H   UNL     1       5.115  -6.113  -3.715  0.00  0.00    +0.292 HD
ENDBRANCH   6  17
ENDBRANCH   3   5
BRANCH   1  28
ATOM     19  N   UNL     1      -1.318  -1.700  -1.126  0.00  0.00    -0.299 N 
ATOM     20  C   UNL     1      -1.834  -1.288  -2.345  0.00  0.00    +0.042 A 
ATOM     21  C   UNL     1      -2.670  -0.181  -2.420  0.00  0.00    +0.024 A 
ATOM     22  C   UNL     1      -3.174   0.220  -3.640  0.00  0.00    +0.002 A 
ATOM     23  C   UNL     1      -2.856  -0.472  -4.799  0.00  0.00    +0.001 A 
ATOM     24  C   UNL     1      -2.030  -1.573  -4.748  0.00  0.00    +0.013 A 
ATOM     25  C   UNL     1      -1.512  -1.992  -3.520  0.00  0.00    +0.039 A 
ATOM     26  C   UNL     1      -0.633  -3.167  -3.434  0.00  0.00    +0.181 C 
ATOM     27  O   UNL     1      -0.535  -3.949  -4.356  0.00  0.00    -0.291 OA
ATOM     28  C   UNL     1       0.148  -3.365  -2.149  0.00  0.00    +0.192 C 
ATOM     29  C   UNL     1      -0.791  -3.062  -0.977  0.00  0.00    +0.222 C 
BRANCH  29  30
ATOM     30  O   UNL     1      -1.872  -3.996  -0.980  0.00  0.00    -0.373 OA
ATOM     31  H   UNL     1      -2.512  -3.860  -0.268  0.00  0.00    +0.212 HD
ENDBRANCH  29  30
BRANCH  19  32
ATOM     32  C   UNL     1      -1.293  -0.775   0.010  0.00  0.00    +0.134 C 
BRANCH  32  34
ATOM     33  C   UNL     1      -0.016   1.306   0.009  0.00  0.00    +0.005 C 
ATOM     34  C   UNL     1       0.002  -0.004   0.002  0.00  0.00    -0.016 C 
ENDBRANCH  32  34
ENDBRANCH  19  32
ENDBRANCH   1  28
TORSDOF 6
