REMARK  Name = ZINC63832550
REMARK  4 active torsions:
REMARK  status: ('A' for Active; 'I' for Inactive)
REMARK    1  A    between atoms: C_1  and  C_2
REMARK    2  A    between atoms: C_2  and  C_3
REMARK    3  A    between atoms: C_2  and  C_4
REMARK    4  A    between atoms: N_9  and  C_12
REMARK                            x       y       z     vdW  Elec       q    Type
REMARK                         _______ _______ _______ _____ _____    ______ ____
ROOT
ATOM      1  C   UNL     1      -1.412  -0.526   0.013  0.00  0.00    +0.091 C 
ATOM      2  N   UNL     1      -1.762  -1.737  -0.466  0.00  0.00    -0.320 N 
ATOM      3  C   UNL     1      -3.213  -1.843  -0.263  0.00  0.00    +0.114 C 
ATOM      4  C   UNL     1      -3.544  -3.007   0.665  0.00  0.00    +0.051 C 
ATOM      5  C   UNL     1      -5.062  -3.101   0.839  0.00  0.00    +0.089 C 
ATOM      6  N   UNL     1      -5.694  -3.279  -0.475  0.00  0.00    -0.277 NA
ATOM      7  C   UNL     1      -5.439  -2.128  -1.350  0.00  0.00    +0.089 C 
ATOM      8  C   UNL     1      -3.933  -2.000  -1.598  0.00  0.00    +0.051 C 
ATOM      9  C   UNL     1      -3.577  -0.527   0.385  0.00  0.00    +0.261 C 
ATOM     10  O   UNL     1      -4.679  -0.159   0.738  0.00  0.00    -0.271 OA
ATOM     11  N   UNL     1      -2.423   0.144   0.490  0.00  0.00    -0.168 NA
ATOM     12  H   UNL     1      -1.177  -2.401  -0.862  0.00  0.00    +0.148 HD
ENDROOT
BRANCH   6  13
ATOM     13  C   UNL     1      -7.136  -3.525  -0.336  0.00  0.00    +0.214 C 
ATOM     14  C   UNL     1      -7.684  -3.892  -1.691  0.00  0.00    +0.055 C 
ATOM     15  C   UNL     1      -7.470  -4.827  -2.620  0.00  0.00    +0.145 C 
ATOM     16  N   UNL     1      -8.316  -4.606  -3.648  0.00  0.00    -0.155 NA
ATOM     17  N   UNL     1      -9.069  -3.583  -3.446  0.00  0.00    -0.131 NA
ATOM     18  C   UNL     1      -8.768  -3.035  -2.233  0.00  0.00    +0.164 C 
ATOM     19  N   UNL     1      -9.189  -2.024  -1.526  0.00  0.00    -0.311 N 
ATOM     20  C   UNL     1      -8.694  -1.700  -0.312  0.00  0.00    +0.189 C 
ATOM     21  N   UNL     1      -7.748  -2.341   0.299  0.00  0.00    -0.230 NA
ATOM     22  N   UNL     1      -9.237  -0.600   0.325  0.00  0.00    -0.329 N 
ATOM     23  H   UNL     1      -9.946  -0.094  -0.102  0.00  0.00    +0.145 HD
ATOM     24  H   UNL     1      -8.909  -0.335   1.198  0.00  0.00    +0.145 HD
ATOM     25  H   UNL     1      -9.898  -1.473  -1.893  0.00  0.00    +0.170 HD
ENDBRANCH   6  13
BRANCH   1  27
ATOM     26  C   UNL     1      -0.019   1.526   0.010  0.00  0.00    +0.015 C 
ATOM     27  C   UNL     1       0.002  -0.004   0.002  0.00  0.00    +0.044 C 
ATOM     28  C   UNL     1       0.742  -0.511   1.242  0.00  0.00    +0.015 C 
ENDBRANCH   1  27
TORSDOF 2
