REMARK  Name = ZINC05163981
REMARK  6 active torsions:
REMARK  status: ('A' for Active; 'I' for Inactive)
REMARK    1  A    between atoms: C_1  and  O_2
REMARK    2  A    between atoms: O_2  and  C_3
REMARK    3  A    between atoms: C_7  and  C_9
REMARK    4  A    between atoms: C_16  and  N_30
REMARK    5  A    between atoms: C_17  and  C_28
REMARK    6  A    between atoms: C_18  and  C_20
REMARK                            x       y       z     vdW  Elec       q    Type
REMARK                         _______ _______ _______ _____ _____    ______ ____
ROOT
ATOM      1  C   UNL     1       1.394  -4.108   2.222  0.00  0.00    +0.100 A 
ATOM      2  C   UNL     1       2.456  -4.862   2.731  0.00  0.00    +0.054 A 
ATOM      3  C   UNL     1       2.133  -6.183   2.608  0.00  0.00    +0.223 A 
ATOM      4  N   UNL     1       0.911  -6.256   2.041  0.00  0.00    -0.246 N 
ATOM      5  H   UNL     1       0.427  -7.070   1.832  0.00  0.00    +0.192 HD
ATOM      6  N   UNL     1       0.461  -4.946   1.812  0.00  0.00    -0.171 NA
ATOM      7  O   UNL     1       2.959  -7.179   3.016  0.00  0.00    -0.423 OA
ATOM      8  C   UNL     1       4.002  -6.844   3.801  0.00  0.00    +0.200 C 
ATOM      9  C   UNL     1       4.424  -5.574   3.990  0.00  0.00    +0.098 C 
ATOM     10  C   UNL     1       3.759  -4.394   3.325  0.00  0.00    +0.103 C 
ENDROOT
BRANCH  10  11
ATOM     11  C   UNL     1       4.651  -3.856   2.235  0.00  0.00    -0.015 A 
ATOM     12  C   UNL     1       5.034  -4.673   1.189  0.00  0.00    +0.006 A 
ATOM     13  C   UNL     1       5.852  -4.180   0.189  0.00  0.00    +0.002 A 
ATOM     14  C   UNL     1       6.287  -2.869   0.235  0.00  0.00    +0.021 A 
ATOM     15  C   UNL     1       5.904  -2.049   1.281  0.00  0.00    +0.060 A 
ATOM     16  C   UNL     1       5.080  -2.542   2.280  0.00  0.00    +0.063 A 
ATOM     17 CL   UNL     1       4.592  -1.512   3.590  0.00  0.00    -0.082 Cl
ATOM     18 CL   UNL     1       6.450  -0.403   1.340  0.00  0.00    -0.082 Cl
ENDBRANCH  10  11
BRANCH   1  23
ATOM     19  C   UNL     1       0.626  -0.618   1.042  0.00  0.00    +0.121 A 
ATOM     20  C   UNL     1       1.202   0.140   2.051  0.00  0.00    +0.045 A 
ATOM     21  C   UNL     1       1.837  -0.480   3.111  0.00  0.00    +0.004 A 
ATOM     22  C   UNL     1       1.902  -1.858   3.170  0.00  0.00    +0.010 A 
ATOM     23  C   UNL     1       1.326  -2.627   2.160  0.00  0.00    +0.006 A 
ATOM     24  C   UNL     1       0.681  -2.001   1.096  0.00  0.00    +0.055 A 
BRANCH  19  26
ATOM     25  C   UNL     1      -0.017   1.425   0.010  0.00  0.00    +0.277 C 
ATOM     26  O   UNL     1       0.002  -0.004   0.002  0.00  0.00    -0.495 OA
ENDBRANCH  19  26
ENDBRANCH   1  23
BRANCH   8  27
ATOM     27  N   UNL     1       4.675  -7.851   4.448  0.00  0.00    -0.328 N 
ATOM     28  H   UNL     1       4.395  -8.773   4.332  0.00  0.00    +0.145 HD
ATOM     29  H   UNL     1       5.429  -7.641   5.020  0.00  0.00    +0.145 HD
ENDBRANCH   8  27
BRANCH   9  30
ATOM     30  C   UNL     1       5.543  -5.339   4.852  0.00  0.00    +0.101 C 
ATOM     31  N   UNL     1       6.430  -5.153   5.537  0.00  0.00    -0.191 NA
ENDBRANCH   9  30
TORSDOF 5
