REMARK  Name = ZINC32149295
REMARK  7 active torsions:
REMARK  status: ('A' for Active; 'I' for Inactive)
REMARK    1  A    between atoms: C_1  and  O_2
REMARK    2  A    between atoms: O_2  and  C_3
REMARK    3  A    between atoms: C_8  and  O_9
REMARK    4  A    between atoms: O_9  and  C_10
REMARK    5  A    between atoms: C_10  and  C_11
REMARK    6  A    between atoms: C_17  and  C_19
REMARK    7  A    between atoms: C_19  and  N_20
REMARK                            x       y       z     vdW  Elec       q    Type
REMARK                         _______ _______ _______ _____ _____    ______ ____
ROOT
ATOM      1  C   UNL     1       2.034   0.742  -0.013  0.00  0.00    +0.193 A 
ATOM      2  N   UNL     1       1.193   1.738   0.000  0.00  0.00    -0.128 NA
ATOM      3  N   UNL     1      -0.015   1.294   0.009  0.00  0.00    -0.120 NA
ATOM      4  C   UNL     1       0.002  -0.004   0.002  0.00  0.00    +0.218 A 
ATOM      5  N   UNL     1       1.307  -0.431  -0.013  0.00  0.00    -0.187 N 
ATOM      6  N   UNL     1       1.509  -1.804  -0.022  0.00  0.00    -0.163 NA
ATOM      7  C   UNL     1       0.511  -2.636  -0.017  0.00  0.00    +0.085 A 
ATOM      8  S   UNL     1      -0.896  -1.536   0.002  0.00  0.00    -0.033 S 
ENDROOT
BRANCH   1   9
ATOM      9  C   UNL     1       3.537   0.853  -0.027  0.00  0.00    +0.307 C 
BRANCH   9  10
ATOM     10  O   UNL     1       3.999   0.895  -1.379  0.00  0.00    -0.481 OA
BRANCH  10  16
ATOM     11  C   UNL     1       5.862   1.040  -2.859  0.00  0.00    +0.162 A 
ATOM     12  C   UNL     1       7.231   1.142  -3.048  0.00  0.00    +0.049 A 
ATOM     13  C   UNL     1       8.077   1.197  -1.956  0.00  0.00    +0.004 A 
ATOM     14  C   UNL     1       7.561   1.152  -0.674  0.00  0.00    +0.004 A 
ATOM     15  C   UNL     1       6.196   1.056  -0.479  0.00  0.00    +0.049 A 
ATOM     16  C   UNL     1       5.342   0.994  -1.569  0.00  0.00    +0.163 A 
BRANCH  11  18
ATOM     17  C   UNL     1       5.632   1.038  -5.226  0.00  0.00    +0.277 C 
ATOM     18  O   UNL     1       5.028   0.986  -3.932  0.00  0.00    -0.491 OA
ENDBRANCH  11  18
ENDBRANCH  10  16
ENDBRANCH   9  10
ENDBRANCH   1   9
BRANCH   7  19
ATOM     19  C   UNL     1       0.534  -4.143  -0.026  0.00  0.00    -0.020 C 
BRANCH  19  20
ATOM     20  N   UNL     1       0.554  -4.640   1.356  0.00  0.00    +0.382 N 
ATOM     21  H   UNL     1       0.571  -5.740   1.350  0.00  0.00    -0.090 HD
ATOM     22  H   UNL     1      -0.344  -4.290   1.886  0.00  0.00    -0.090 HD
ATOM     23  H   UNL     1       1.452  -4.263   1.868  0.00  0.00    -0.090 HD
ENDBRANCH  19  20
ENDBRANCH   7  19
TORSDOF 6
