REMARK  Name = ZINC38767145
REMARK  3 active torsions:
REMARK  status: ('A' for Active; 'I' for Inactive)
REMARK    1  A    between atoms: C_1  and  C_2
REMARK    2  A    between atoms: C_4  and  C_25
REMARK    3  A    between atoms: C_6  and  C_8
REMARK                            x       y       z     vdW  Elec       q    Type
REMARK                         _______ _______ _______ _____ _____    ______ ____
ROOT
ATOM      1  C   UNL     1       0.052  -2.845   2.458  0.00  0.00    +0.247 C 
ATOM      2  O   UNL     1      -0.039  -4.058   2.450  0.00  0.00    -0.270 OA
ATOM      3  N   UNL     1       0.150  -2.185   3.628  0.00  0.00    -0.298 N 
ATOM      4  C   UNL     1       0.127  -0.716   3.664  0.00  0.00    +0.107 C 
ATOM      5  C   UNL     1      -0.965  -0.264   4.640  0.00  0.00    +0.009 C 
ATOM      6  C   UNL     1      -0.733  -0.924   6.000  0.00  0.00    -0.037 C 
ATOM      7  C   UNL     1      -0.810  -2.445   5.857  0.00  0.00    +0.009 C 
ATOM      8  C   UNL     1       0.277  -2.920   4.894  0.00  0.00    +0.107 C 
ATOM      9  C   UNL     1      -1.795  -0.446   6.991  0.00  0.00    +0.140 C 
ATOM     10  C   UNL     1      -1.401  -1.042   8.339  0.00  0.00    +0.042 C 
ATOM     11  N   UNL     1      -2.414  -1.705   8.742  0.00  0.00    -0.243 NA
ATOM     12  C   UNL     1      -3.404  -1.720   7.816  0.00  0.00    +0.216 C 
ATOM     13  N   UNL     1      -3.117  -1.022   6.738  0.00  0.00    -0.264 NA
ATOM     14  C   UNL     1      -0.004  -0.896   8.885  0.00  0.00    +0.034 C 
ATOM     15  C   UNL     1       0.943  -1.278   7.731  0.00  0.00    -0.076 C 
ATOM     16  N   UNL     1       0.589  -0.542   6.515  0.00  0.00    +0.385 N 
ATOM     17  H   UNL     1       1.283  -0.728   5.806  0.00  0.00    -0.085 HD
ATOM     18  H   UNL     1       0.588   0.446   6.719  0.00  0.00    -0.085 HD
ENDROOT
BRANCH   1  24
ATOM     19  C   UNL     1       1.849   0.850  -0.373  0.00  0.00    +0.044 C 
ATOM     20  C   UNL     1       0.916  -0.318  -0.183  0.00  0.00    -0.049 A 
ATOM     21  C   UNL     1       0.059  -0.691  -1.203  0.00  0.00    +0.006 A 
ATOM     22  C   UNL     1      -0.800  -1.762  -1.036  0.00  0.00    -0.049 A 
ATOM     23  C   UNL     1      -0.807  -2.466   0.150  0.00  0.00    +0.016 A 
ATOM     24  C   UNL     1       0.055  -2.096   1.183  0.00  0.00    +0.037 A 
ATOM     25  C   UNL     1       0.923  -1.017   1.007  0.00  0.00    +0.016 A 
ATOM     26  C   UNL     1      -1.730  -2.160  -2.153  0.00  0.00    +0.044 C 
ENDBRANCH   1  24
TORSDOF 1
