REMARK  Name = ZINC43652419
REMARK  5 active torsions:
REMARK  status: ('A' for Active; 'I' for Inactive)
REMARK    1  A    between atoms: C_1  and  C_2
REMARK    2  A    between atoms: C_6  and  N_22
REMARK    3  A    between atoms: C_8  and  C_11
REMARK    4  A    between atoms: C_11  and  C_12
REMARK    5  A    between atoms: C_15  and  N_19
REMARK                            x       y       z     vdW  Elec       q    Type
REMARK                         _______ _______ _______ _____ _____    ______ ____
ROOT
ATOM      1  C   UNL     1       1.916   0.912   0.612  0.00  0.00    +0.007 C 
ATOM      2  C   UNL     1       1.284  -0.468   0.424  0.00  0.00    -0.014 C 
ATOM      3  C   UNL     1       1.865  -1.129  -0.827  0.00  0.00    +0.002 C 
ATOM      4  C   UNL     1       1.233  -2.510  -1.015  0.00  0.00    -0.016 C 
ATOM      5  C   UNL     1       1.535  -3.379   0.208  0.00  0.00    -0.072 C 
ATOM      6  C   UNL     1       0.954  -2.718   1.459  0.00  0.00    -0.021 C 
ATOM      7  C   UNL     1       1.586  -1.337   1.647  0.00  0.00    +0.005 C 
ENDROOT
BRANCH   5   8
ATOM      8  N   UNL     1       0.928  -4.705   0.028  0.00  0.00    +0.380 N 
ATOM      9  H   UNL     1       1.312  -5.141  -0.798  0.00  0.00    -0.090 HD
ATOM     10  H   UNL     1       1.127  -5.278   0.834  0.00  0.00    -0.090 HD
ATOM     11  H   UNL     1      -0.070  -4.607  -0.077  0.00  0.00    -0.090 HD
ENDBRANCH   5   8
BRANCH   6  12
ATOM     12  C   UNL     1      -0.560  -2.569   1.301  0.00  0.00    +0.038 C 
BRANCH  12  13
ATOM     13  C   UNL     1      -1.155  -2.082   2.597  0.00  0.00    -0.033 A 
ATOM     14  C   UNL     1      -1.008  -2.831   3.750  0.00  0.00    +0.007 A 
ATOM     15  C   UNL     1      -1.553  -2.384   4.939  0.00  0.00    +0.033 A 
ATOM     16  C   UNL     1      -2.246  -1.188   4.976  0.00  0.00    +0.127 A 
ATOM     17  C   UNL     1      -2.394  -0.439   3.824  0.00  0.00    +0.048 A 
ATOM     18  C   UNL     1      -1.844  -0.883   2.635  0.00  0.00    +0.023 A 
ATOM     19 BR   UNL     1      -2.039   0.145   1.060  0.00  0.00    -0.050 Br
BRANCH  16  20
ATOM     20  N   UNL     1      -2.830  -0.710   6.249  0.00  0.00    +0.056 N 
ATOM     21  O   UNL     1      -2.701  -1.365   7.257  0.00  0.00    -0.126 OA
ATOM     22  O   UNL     1      -3.436   0.336   6.281  0.00  0.00    -0.126 OA
ENDBRANCH  16  20
ENDBRANCH  12  13
ENDBRANCH   6  12
TORSDOF 4
