REMARK  Name = ZINC36961269
REMARK  10 active torsions:
REMARK  status: ('A' for Active; 'I' for Inactive)
REMARK    1  A    between atoms: C_1  and  C_2
REMARK    2  A    between atoms: C_5  and  O_24
REMARK    3  A    between atoms: C_6  and  C_8
REMARK    4  A    between atoms: C_8  and  C_10
REMARK    5  A    between atoms: C_8  and  N_11
REMARK    6  A    between atoms: N_11  and  C_12
REMARK    7  A    between atoms: C_15  and  C_23
REMARK    8  A    between atoms: N_17  and  C_22
REMARK    9  A    between atoms: C_19  and  C_21
REMARK   10  A    between atoms: O_24  and  C_25
REMARK                            x       y       z     vdW  Elec       q    Type
REMARK                         _______ _______ _______ _____ _____    ______ ____
ROOT
ATOM      1  N   UNL     1       0.488  -1.938   3.593  0.00  0.00    +0.385 N 
ATOM      2  H   UNL     1       1.304  -1.397   3.350  0.00  0.00    -0.085 HD
ATOM      3  H   UNL     1      -0.292  -1.318   3.754  0.00  0.00    -0.085 HD
ENDROOT
BRANCH   1   4
ATOM      4  C   UNL     1       0.758  -2.712   4.812  0.00  0.00    -0.071 C 
ATOM      5  C   UNL     1       0.968  -1.755   5.989  0.00  0.00    -0.031 C 
ATOM      6  C   UNL     1       1.327  -2.563   7.238  0.00  0.00    -0.074 C 
ATOM      7  N   UNL     1       2.560  -3.322   6.996  0.00  0.00    +0.380 N 
ATOM      8  C   UNL     1       2.344  -4.292   5.916  0.00  0.00    -0.077 C 
ATOM      9  C   UNL     1       2.023  -3.552   4.615  0.00  0.00    -0.045 C 
ATOM     10  C   UNL     1       3.192  -2.636   4.248  0.00  0.00    +0.004 C 
ATOM     11  C   UNL     1       2.942  -4.035   8.223  0.00  0.00    -0.096 C 
ATOM     12  C   UNL     1       1.538  -1.612   8.417  0.00  0.00    -0.013 C 
ATOM     13  H   UNL     1       3.298  -2.687   6.734  0.00  0.00    -0.082 HD
ENDBRANCH   1   4
BRANCH   1  14
ATOM     14  C   UNL     1       0.164  -2.856   2.492  0.00  0.00    -0.040 C 
ATOM     15  C   UNL     1      -1.158  -3.566   2.793  0.00  0.00    -0.009 C 
BRANCH  14  21
ATOM     16  C   UNL     1      -0.566   1.488   0.117  0.00  0.00    +0.044 C 
ATOM     17  C   UNL     1      -0.315   0.002   0.072  0.00  0.00    -0.050 A 
ATOM     18  C   UNL     1      -0.204  -0.642  -1.147  0.00  0.00    +0.007 A 
ATOM     19  C   UNL     1       0.026  -2.003  -1.191  0.00  0.00    +0.046 A 
ATOM     20  C   UNL     1       0.146  -2.724  -0.012  0.00  0.00    +0.122 A 
ATOM     21  C   UNL     1       0.034  -2.075   1.209  0.00  0.00    -0.020 A 
ATOM     22  C   UNL     1      -0.190  -0.713   1.248  0.00  0.00    +0.009 A 
BRANCH  20  23
ATOM     23  O   UNL     1       0.371  -4.064  -0.053  0.00  0.00    -0.495 OA
ATOM     24  C   UNL     1       0.474  -4.665  -1.345  0.00  0.00    +0.277 C 
ENDBRANCH  20  23
ENDBRANCH  14  21
ENDBRANCH   1  14
TORSDOF 4
