REMARK  Name = ZINC21241697
REMARK  11 active torsions:
REMARK  status: ('A' for Active; 'I' for Inactive)
REMARK    1  A    between atoms: C_1  and  C_2
REMARK    2  A    between atoms: C_2  and  C_4
REMARK    3  A    between atoms: C_2  and  S_12
REMARK    4  A    between atoms: N_6  and  C_7
REMARK    5  A    between atoms: S_12  and  C_13
REMARK    6  A    between atoms: C_16  and  C_19
REMARK    7  A    between atoms: N_17  and  N_18
REMARK    8  A    between atoms: C_22  and  C_25
REMARK    9  A    between atoms: C_25  and  C_26
REMARK   10  A    between atoms: C_25  and  C_27
REMARK   11  A    between atoms: C_25  and  C_28
REMARK                            x       y       z     vdW  Elec       q    Type
REMARK                         _______ _______ _______ _____ _____    ______ ____
ROOT
ATOM      1  C   UNL     1      -0.053   0.100   0.171  0.00  0.00    +0.209 A 
ATOM      2  N   UNL     1       0.075   1.408   0.163  0.00  0.00    -0.121 NA
ATOM      3  N   UNL     1       1.298   1.730  -0.064  0.00  0.00    -0.127 NA
ATOM      4  C   UNL     1       2.026   0.648  -0.215  0.00  0.00    +0.182 A 
ATOM      5  N   UNL     1       1.183  -0.429  -0.069  0.00  0.00    -0.224 N 
ENDROOT
BRANCH   4   6
ATOM      6  C   UNL     1       3.478   0.597  -0.490  0.00  0.00    +0.021 A 
ATOM      7  C   UNL     1       4.272   1.723  -0.271  0.00  0.00    +0.012 A 
ATOM      8  C   UNL     1       5.627   1.667  -0.525  0.00  0.00    +0.005 A 
ATOM      9  C   UNL     1       6.197   0.501  -1.005  0.00  0.00    -0.042 A 
ATOM     10  C   UNL     1       5.413  -0.617  -1.229  0.00  0.00    +0.005 A 
ATOM     11  C   UNL     1       4.058  -0.576  -0.975  0.00  0.00    +0.012 A 
BRANCH   9  12
ATOM     12  C   UNL     1       7.676   0.450  -1.285  0.00  0.00    -0.013 C 
ATOM     13  C   UNL     1       7.904   0.126  -2.763  0.00  0.00    +0.015 C 
ATOM     14  C   UNL     1       8.306   1.805  -0.957  0.00  0.00    +0.015 C 
ATOM     15  C   UNL     1       8.322  -0.635  -0.421  0.00  0.00    +0.015 C 
ENDBRANCH   9  12
ENDBRANCH   4   6
BRANCH   5  16
ATOM     16  N   UNL     1       1.513  -1.752  -0.148  0.00  0.00    -0.295 N 
ATOM     17  H   UNL     1       2.553  -2.049  -0.348  0.00  0.00    +0.163 HD
ATOM     18  H   UNL     1       0.739  -2.522  -0.012  0.00  0.00    +0.163 HD
ENDBRANCH   5  16
BRANCH   1  19
ATOM     19  S   UNL     1      -1.542  -0.803   0.441  0.00  0.00    -0.072 S 
BRANCH  19  21
ATOM     20  C   UNL     1      -2.817   1.366  -0.623  0.00  0.00    +0.029 C 
ATOM     21  C   UNL     1      -2.702   0.567   0.676  0.00  0.00    +0.137 C 
BRANCH  21  22
ATOM     22  C   UNL     1      -4.055   0.020   1.052  0.00  0.00    +0.226 C 
ATOM     23  O   UNL     1      -4.332  -1.135   0.806  0.00  0.00    -0.275 OA
ATOM     24  N   UNL     1      -4.958   0.814   1.660  0.00  0.00    -0.312 N 
ATOM     25  H   UNL     1      -4.707   1.862   1.883  0.00  0.00    +0.149 HD
BRANCH  24  26
ATOM     26  C   UNL     1      -6.273   0.283   2.025  0.00  0.00    +0.073 C 
ATOM     27  C   UNL     1      -7.253   0.442   0.844  0.00  0.00    +0.022 C 
ATOM     28  C   UNL     1      -8.605   0.789   1.516  0.00  0.00    +0.002 C 
ATOM     29  C   UNL     1      -8.178   1.711   2.686  0.00  0.00    +0.002 C 
ATOM     30  C   UNL     1      -6.862   1.090   3.196  0.00  0.00    +0.022 C 
ENDBRANCH  24  26
ENDBRANCH  21  22
ENDBRANCH  19  21
ENDBRANCH   1  19
TORSDOF 7
