REMARK  Name = ZINC18098079
REMARK  3 active torsions:
REMARK  status: ('A' for Active; 'I' for Inactive)
REMARK    1  A    between atoms: C_6  and  C_7
REMARK    2  A    between atoms: N_14  and  C_15
REMARK    3  A    between atoms: C_18  and  O_21
REMARK                            x       y       z     vdW  Elec       q    Type
REMARK                         _______ _______ _______ _____ _____    ______ ____
ROOT
ATOM      1  C   UNL     1      -2.517   2.187   0.414  0.00  0.00    +0.028 C 
ATOM      2  C   UNL     1      -1.266   2.669   0.621  0.00  0.00    +0.079 C 
ATOM      3  C   UNL     1      -0.087   2.017   1.238  0.00  0.00    +0.276 C 
ATOM      4  O   UNL     1      -0.131   0.873   1.661  0.00  0.00    -0.267 OA
ATOM      5  N   UNL     1       1.011   2.738   1.300  0.00  0.00    -0.154 NA
ATOM      6  C   UNL     1       1.073   3.979   0.845  0.00  0.00    +0.156 C 
ATOM      7  S   UNL     1      -0.577   4.272   0.227  0.00  0.00    -0.051 S 
ATOM      8  N   UNL     1       2.143   4.834   0.848  0.00  0.00    -0.296 N 
ATOM      9  H   UNL     1       2.070   5.809   0.344  0.00  0.00    +0.154 HD
ENDROOT
BRANCH   1  15
ATOM     10  C   UNL     1      -1.884  -0.215   0.297  0.00  0.00    +0.011 A 
ATOM     11  C   UNL     1      -2.161  -1.542   0.541  0.00  0.00    +0.039 A 
ATOM     12  C   UNL     1      -3.358  -1.905   1.141  0.00  0.00    +0.123 A 
ATOM     13  C   UNL     1      -4.281  -0.936   1.504  0.00  0.00    +0.039 A 
ATOM     14  C   UNL     1      -4.014   0.395   1.272  0.00  0.00    +0.011 A 
ATOM     15  C   UNL     1      -2.808   0.769   0.666  0.00  0.00    -0.024 A 
ATOM     16  F   UNL     1      -3.626  -3.209   1.372  0.00  0.00    -0.205 F 
ENDBRANCH   1  15
BRANCH   8  17
ATOM     17  C   UNL     1       3.331   4.466   1.492  0.00  0.00    +0.033 A 
ATOM     18  C   UNL     1       3.292   3.608   2.584  0.00  0.00    +0.027 A 
ATOM     19  C   UNL     1       4.464   3.242   3.215  0.00  0.00    +0.047 A 
ATOM     20  C   UNL     1       5.679   3.739   2.767  0.00  0.00    +0.117 A 
ATOM     21  C   UNL     1       5.718   4.600   1.680  0.00  0.00    +0.047 A 
ATOM     22  C   UNL     1       4.547   4.963   1.044  0.00  0.00    +0.027 A 
BRANCH  20  23
ATOM     23  O   UNL     1       6.832   3.381   3.392  0.00  0.00    -0.507 OA
ATOM     24  H   UNL     1       7.795   3.775   3.036  0.00  0.00    +0.292 HD
ENDBRANCH  20  23
ENDBRANCH   8  17
TORSDOF 3
