REMARK  Name = ZINC43813373
REMARK  12 active torsions:
REMARK  status: ('A' for Active; 'I' for Inactive)
REMARK    1  A    between atoms: C_1  and  C_2
REMARK    2  A    between atoms: C_2  and  N_3
REMARK    3  A    between atoms: N_3  and  C_4
REMARK    4  A    between atoms: C_8  and  C_18
REMARK    5  A    between atoms: C_11  and  N_13
REMARK    6  A    between atoms: N_13  and  C_14
REMARK    7  A    between atoms: N_13  and  C_15
REMARK    8  A    between atoms: C_15  and  C_16
REMARK    9  A    between atoms: C_15  and  C_17
REMARK   10  A    between atoms: C_18  and  C_19
REMARK   11  A    between atoms: C_18  and  C_20
REMARK   12  A    between atoms: C_18  and  C_21
REMARK                            x       y       z     vdW  Elec       q    Type
REMARK                         _______ _______ _______ _____ _____    ______ ____
ROOT
ATOM      1  C   UNL     1       1.037  -1.195  -1.102  0.00  0.00    -0.086 C 
ATOM      2  C   UNL     1       2.103  -1.452  -0.035  0.00  0.00    -0.017 C 
ATOM      3  C   UNL     1       2.007  -2.903   0.443  0.00  0.00    +0.002 C 
ATOM      4  C   UNL     1       2.233  -3.845  -0.742  0.00  0.00    -0.007 C 
ATOM      5  C   UNL     1       1.168  -3.588  -1.809  0.00  0.00    -0.013 C 
ATOM      6  C   UNL     1       1.264  -2.137  -2.286  0.00  0.00    -0.083 C 
ENDROOT
BRANCH   4   7
ATOM      7  C   UNL     1       2.137  -5.296  -0.264  0.00  0.00    -0.035 C 
ATOM      8  C   UNL     1       0.750  -5.547   0.329  0.00  0.00    +0.011 C 
ATOM      9  C   UNL     1       2.364  -6.238  -1.448  0.00  0.00    +0.011 C 
ATOM     10  C   UNL     1       3.203  -5.553   0.803  0.00  0.00    +0.011 C 
ENDBRANCH   4   7
BRANCH   1  11
ATOM     11  N   UNL     1       1.129   0.198  -1.560  0.00  0.00    +0.380 N 
ATOM     12  H   UNL     1       0.468   0.350  -2.307  0.00  0.00    -0.086 HD
ATOM     13  H   UNL     1       2.063   0.380  -1.895  0.00  0.00    -0.086 HD
BRANCH  11  15
ATOM     14  C   UNL     1       0.920   2.552  -0.920  0.00  0.00    -0.017 C 
ATOM     15  C   UNL     1       0.824   1.102  -0.443  0.00  0.00    -0.086 C 
ENDBRANCH  11  15
ENDBRANCH   1  11
BRANCH   6  16
ATOM     16  N   UNL     1       2.596  -1.897  -2.856  0.00  0.00    +0.380 N 
ATOM     17  C   UNL     1       3.615  -2.512  -1.996  0.00  0.00    -0.096 C 
ATOM     18  H   UNL     1       2.761  -0.903  -2.916  0.00  0.00    -0.082 HD
BRANCH  16  19
ATOM     19  C   UNL     1       2.668  -2.486  -4.199  0.00  0.00    -0.075 C 
ATOM     20  C   UNL     1       1.583  -1.871  -5.085  0.00  0.00    -0.014 C 
ATOM     21  C   UNL     1       4.043  -2.205  -4.807  0.00  0.00    -0.014 C 
ENDBRANCH  16  19
ENDBRANCH   6  16
TORSDOF 5
