REMARK  Name = ZINC37255354
REMARK  5 active torsions:
REMARK  status: ('A' for Active; 'I' for Inactive)
REMARK    1  A    between atoms: C_1  and  C_2
REMARK    2  A    between atoms: C_7  and  N_10
REMARK    3  A    between atoms: N_10  and  C_11
REMARK    4  A    between atoms: C_11  and  C_12
REMARK    5  A    between atoms: N_14  and  C_15
REMARK                            x       y       z     vdW  Elec       q    Type
REMARK                         _______ _______ _______ _____ _____    ______ ____
ROOT
ATOM      1  C   UNL     1       1.598  -3.990   2.355  0.00  0.00    +0.015 C 
ENDROOT
BRANCH   1   2
ATOM      2  C   UNL     1       2.327  -4.489   3.576  0.00  0.00    +0.196 C 
ATOM      3  O   UNL     1       2.705  -3.704   4.420  0.00  0.00    -0.278 OA
ATOM      4  N   UNL     1       2.558  -5.807   3.731  0.00  0.00    -0.314 N 
ATOM      5  H   UNL     1       2.256  -6.435   3.056  0.00  0.00    +0.149 HD
BRANCH   4   6
ATOM      6  C   UNL     1       3.267  -6.293   4.918  0.00  0.00    +0.073 C 
ATOM      7  C   UNL     1       4.776  -6.205   4.682  0.00  0.00    +0.022 C 
ATOM      8  C   UNL     1       5.516  -6.712   5.921  0.00  0.00    +0.002 C 
ATOM      9  C   UNL     1       5.126  -8.167   6.189  0.00  0.00    +0.000 C 
ATOM     10  C   UNL     1       3.616  -8.255   6.425  0.00  0.00    +0.002 C 
ATOM     11  C   UNL     1       2.876  -7.748   5.185  0.00  0.00    +0.022 C 
ENDBRANCH   4   6
ENDBRANCH   1   2
BRANCH   1  12
ATOM     12  N   UNL     1       1.473  -2.527   2.423  0.00  0.00    +0.387 N 
ATOM     13  H   UNL     1       2.393  -2.113   2.459  0.00  0.00    -0.085 HD
ATOM     14  H   UNL     1       0.957  -2.272   3.251  0.00  0.00    -0.085 HD
BRANCH  12  20
ATOM     15  C   UNL     1      -0.019   1.526   0.010  0.00  0.00    +0.007 C 
ATOM     16  C   UNL     1       0.002  -0.004   0.002  0.00  0.00    -0.016 C 
ATOM     17  C   UNL     1      -1.433  -0.534   0.013  0.00  0.00    +0.003 C 
ATOM     18  C   UNL     1      -1.413  -2.063   0.004  0.00  0.00    -0.001 C 
ATOM     19  C   UNL     1      -0.673  -2.570   1.244  0.00  0.00    -0.016 C 
ATOM     20  C   UNL     1       0.763  -2.041   1.233  0.00  0.00    -0.071 C 
ATOM     21  C   UNL     1       0.742  -0.511   1.242  0.00  0.00    -0.013 C 
ENDBRANCH  12  20
ENDBRANCH   1  12
TORSDOF 4
