REMARK  Name = ZINC22966071
REMARK  10 active torsions:
REMARK  status: ('A' for Active; 'I' for Inactive)
REMARK    1  A    between atoms: C_1  and  C_2
REMARK    2  A    between atoms: C_2  and  C_4
REMARK    3  A    between atoms: C_2  and  N_17
REMARK    4  A    between atoms: N_6  and  C_7
REMARK    5  A    between atoms: C_11  and  S_13
REMARK    6  A    between atoms: S_13  and  N_16
REMARK    7  A    between atoms: N_17  and  C_18
REMARK    8  A    between atoms: N_17  and  C_19
REMARK    9  A    between atoms: C_19  and  C_20
REMARK   10  A    between atoms: C_25  and  C_26
REMARK                            x       y       z     vdW  Elec       q    Type
REMARK                         _______ _______ _______ _____ _____    ______ ____
ROOT
ATOM      1  C   UNL     1       0.935   0.644   2.664  0.00  0.00    -0.004 C 
ATOM      2  C   UNL     1      -0.383   0.238   2.002  0.00  0.00    +0.016 C 
ENDROOT
BRANCH   2   3
ATOM      3  C   UNL     1      -1.525   0.517   2.943  0.00  0.00    +0.203 C 
ATOM      4  O   UNL     1      -2.407   1.283   2.617  0.00  0.00    -0.277 OA
ATOM      5  N   UNL     1      -1.568  -0.086   4.148  0.00  0.00    -0.287 N 
ATOM      6  H   UNL     1      -0.724  -0.706   4.483  0.00  0.00    +0.155 HD
BRANCH   5   7
ATOM      7  C   UNL     1      -2.686   0.078   4.973  0.00  0.00    +0.035 A 
ATOM      8  C   UNL     1      -3.953   0.191   4.415  0.00  0.00    +0.023 A 
ATOM      9  C   UNL     1      -5.054   0.353   5.232  0.00  0.00    +0.004 A 
ATOM     10  C   UNL     1      -4.897   0.403   6.605  0.00  0.00    +0.028 A 
ATOM     11  C   UNL     1      -3.637   0.291   7.164  0.00  0.00    +0.107 A 
ATOM     12  C   UNL     1      -2.532   0.123   6.353  0.00  0.00    +0.051 A 
BRANCH  11  13
ATOM     13  S   UNL     1      -3.442   0.355   8.914  0.00  0.00    +0.056 S 
ATOM     14  O   UNL     1      -2.107   0.774   9.159  0.00  0.00    -0.153 OA
ATOM     15  O   UNL     1      -4.567   1.059   9.423  0.00  0.00    -0.153 OA
BRANCH  13  16
ATOM     16  N   UNL     1      -3.562  -1.198   9.477  0.00  0.00    -0.204 NA
ATOM     17  H   UNL     1      -3.445  -1.201  10.571  0.00  0.00    +0.144 HD
ATOM     18  H   UNL     1      -2.772  -1.814   9.022  0.00  0.00    +0.144 HD
ENDBRANCH  13  16
ENDBRANCH  11  13
ENDBRANCH   5   7
ENDBRANCH   2   3
BRANCH   2  19
ATOM     19  N   UNL     1      -0.567   1.010   0.765  0.00  0.00    +0.388 N 
ATOM     20  C   UNL     1      -0.463   2.452   1.025  0.00  0.00    -0.095 C 
ATOM     21  H   UNL     1      -1.580   0.807   0.388  0.00  0.00    -0.081 HD
BRANCH  19  22
ATOM     22  C   UNL     1       0.391   0.590  -0.266  0.00  0.00    -0.042 C 
BRANCH  22  23
ATOM     23  C   UNL     1       0.081   1.299  -1.559  0.00  0.00    -0.052 A 
ATOM     24  C   UNL     1       0.828   2.398  -1.941  0.00  0.00    +0.002 A 
ATOM     25  C   UNL     1       0.546   3.045  -3.129  0.00  0.00    +0.000 A 
ATOM     26  C   UNL     1      -0.489   2.601  -3.930  0.00  0.00    +0.001 A 
ATOM     27  C   UNL     1      -1.240   1.506  -3.545  0.00  0.00    +0.012 A 
ATOM     28  C   UNL     1      -0.955   0.855  -2.359  0.00  0.00    +0.056 A 
BRANCH  28  29
ATOM     29  C   UNL     1      -1.773  -0.339  -1.940  0.00  0.00    +0.418 C 
ATOM     30  F   UNL     1      -2.688  -0.655  -2.950  0.00  0.00    -0.166 F 
ATOM     31  F   UNL     1      -0.927  -1.430  -1.718  0.00  0.00    -0.166 F 
ATOM     32  F   UNL     1      -2.465  -0.039  -0.761  0.00  0.00    -0.166 F 
ENDBRANCH  28  29
ENDBRANCH  22  23
ENDBRANCH  19  22
ENDBRANCH   2  19
TORSDOF 8
