REMARK  Name = ZINC26304505
REMARK  14 active torsions:
REMARK  status: ('A' for Active; 'I' for Inactive)
REMARK    1  A    between atoms: C_1  and  C_2
REMARK    2  A    between atoms: C_5  and  O_25
REMARK    3  A    between atoms: C_6  and  N_8
REMARK    4  A    between atoms: C_9  and  C_11
REMARK    5  A    between atoms: C_11  and  N_12
REMARK    6  A    between atoms: N_15  and  C_16
REMARK    7  A    between atoms: C_16  and  C_17
REMARK    8  A    between atoms: C_17  and  C_19
REMARK    9  A    between atoms: C_17  and  N_22
REMARK   10  A    between atoms: C_19  and  C_20
REMARK   11  A    between atoms: C_19  and  C_21
REMARK   12  A    between atoms: N_22  and  C_23
REMARK   13  A    between atoms: N_22  and  C_24
REMARK   14  A    between atoms: O_25  and  C_26
REMARK                            x       y       z     vdW  Elec       q    Type
REMARK                         _______ _______ _______ _____ _____    ______ ____
ROOT
ATOM      1  N   UNL     1      -0.790  -1.630   6.339  0.00  0.00    -0.291 N 
ATOM      2  C   UNL     1      -0.415  -2.088   7.550  0.00  0.00    +0.300 C 
ATOM      3  O   UNL     1      -0.203  -3.274   7.713  0.00  0.00    -0.253 OA
ATOM      4  N   UNL     1      -0.273  -1.230   8.581  0.00  0.00    -0.301 N 
ATOM      5  H   UNL     1      -0.959  -0.683   6.210  0.00  0.00    +0.151 HD
ATOM      6  H   UNL     1      -0.441  -0.284   8.451  0.00  0.00    +0.150 HD
ENDROOT
BRANCH   1   7
ATOM      7  C   UNL     1      -0.944  -2.562   5.219  0.00  0.00    +0.202 C 
BRANCH   7   9
ATOM      8  N   UNL     1      -1.571  -2.458   2.829  0.00  0.00    -0.281 N 
ATOM      9  C   UNL     1      -1.368  -1.802   3.989  0.00  0.00    +0.235 C 
ATOM     10  O   UNL     1      -1.526  -0.601   4.042  0.00  0.00    -0.274 OA
ATOM     11  H   UNL     1      -1.511  -3.425   2.802  0.00  0.00    +0.155 HD
BRANCH   8  17
ATOM     12  C   UNL     1      -1.525   1.780   0.335  0.00  0.00    +0.044 C 
ATOM     13  C   UNL     1      -1.859   0.313   0.426  0.00  0.00    -0.048 A 
ATOM     14  C   UNL     1      -2.460  -0.325  -0.644  0.00  0.00    +0.007 A 
ATOM     15  C   UNL     1      -2.769  -1.670  -0.567  0.00  0.00    +0.048 A 
ATOM     16  C   UNL     1      -2.476  -2.383   0.585  0.00  0.00    +0.141 A 
ATOM     17  C   UNL     1      -1.870  -1.741   1.662  0.00  0.00    +0.076 A 
ATOM     18  C   UNL     1      -1.558  -0.392   1.575  0.00  0.00    +0.030 A 
BRANCH  16  19
ATOM     19  O   UNL     1      -2.780  -3.706   0.662  0.00  0.00    -0.493 OA
ATOM     20  C   UNL     1      -3.400  -4.298  -0.481  0.00  0.00    +0.277 C 
ENDBRANCH  16  19
ENDBRANCH   8  17
ENDBRANCH   7   9
ENDBRANCH   1   7
BRANCH   4  21
ATOM     21  C   UNL     1       0.135  -1.728   9.896  0.00  0.00    +0.091 C 
BRANCH  21  22
ATOM     22  C   UNL     1       0.405  -0.545  10.828  0.00  0.00    -0.049 C 
BRANCH  22  23
ATOM     23  N   UNL     1       1.573   0.203  10.344  0.00  0.00    +0.379 N 
ATOM     24  C   UNL     1       2.723  -0.703  10.230  0.00  0.00    -0.096 C 
ATOM     25  C   UNL     1       1.273   0.780   9.026  0.00  0.00    -0.096 C 
ATOM     26  H   UNL     1       1.791   0.944  10.993  0.00  0.00    -0.082 HD
ENDBRANCH  22  23
BRANCH  22  27
ATOM     27  C   UNL     1       0.681  -1.061  12.242  0.00  0.00    -0.029 C 
ATOM     28  C   UNL     1       0.964   0.121  13.170  0.00  0.00    +0.005 C 
ATOM     29  C   UNL     1      -0.541  -1.829  12.752  0.00  0.00    +0.005 C 
ENDBRANCH  22  27
ENDBRANCH  21  22
ENDBRANCH   4  21
TORSDOF 8
