REMARK  Name = ZINC13247787
REMARK  7 active torsions:
REMARK  status: ('A' for Active; 'I' for Inactive)
REMARK    1  A    between atoms: C_4  and  C_30
REMARK    2  A    between atoms: C_6  and  S_7
REMARK    3  A    between atoms: S_7  and  N_10
REMARK    4  A    between atoms: N_10  and  C_11
REMARK    5  A    between atoms: C_12  and  C_20
REMARK    6  A    between atoms: N_22  and  C_23
REMARK    7  A    between atoms: C_23  and  C_24
REMARK                            x       y       z     vdW  Elec       q    Type
REMARK                         _______ _______ _______ _____ _____    ______ ____
ROOT
ATOM      1  C   UNL     1       3.514   3.366  -2.406  0.00  0.00    +0.098 A 
ATOM      2  C   UNL     1       3.687   3.696  -3.745  0.00  0.00    +0.070 A 
ATOM      3  C   UNL     1       2.692   4.563  -4.356  0.00  0.00    -0.023 A 
ATOM      4  C   UNL     1       1.694   4.958  -3.538  0.00  0.00    -0.004 A 
ATOM      5  S   UNL     1       2.051   4.192  -1.983  0.00  0.00    -0.076 S 
ATOM      6  C   UNL     1       0.539   5.847  -3.886  0.00  0.00    +0.043 C 
ATOM      7  C   UNL     1       0.854   6.551  -5.214  0.00  0.00    +0.005 C 
ATOM      8  C   UNL     1       1.352   5.508  -6.219  0.00  0.00    +0.005 C 
ATOM      9  C   UNL     1       2.741   5.014  -5.811  0.00  0.00    +0.037 C 
ENDROOT
BRANCH   2  10
ATOM     10  C   UNL     1       4.828   3.189  -4.511  0.00  0.00    +0.247 C 
ATOM     11  O   UNL     1       4.738   2.134  -5.111  0.00  0.00    -0.270 OA
ATOM     12  N   UNL     1       5.977   3.892  -4.551  0.00  0.00    -0.309 N 
ATOM     13  H   UNL     1       6.049   4.733  -4.073  0.00  0.00    +0.149 HD
BRANCH  12  14
ATOM     14  C   UNL     1       7.118   3.386  -5.318  0.00  0.00    +0.136 C 
BRANCH  14  15
ATOM     15  C   UNL     1       8.287   4.365  -5.199  0.00  0.00    +0.135 C 
ATOM     16  C   UNL     1       9.494   3.842  -6.003  0.00  0.00    +0.035 C 
ATOM     17  C   UNL     1       9.787   4.967  -7.024  0.00  0.00    +0.031 C 
ATOM     18  C   UNL     1       9.109   6.193  -6.361  0.00  0.00    +0.160 C 
ATOM     19  O   UNL     1       7.919   5.636  -5.761  0.00  0.00    -0.375 OA
ENDBRANCH  14  15
ENDBRANCH  12  14
ENDBRANCH   2  10
BRANCH   1  20
ATOM     20  N   UNL     1       4.311   2.568  -1.609  0.00  0.00    -0.209 N 
ATOM     21  H   UNL     1       5.109   2.157  -1.977  0.00  0.00    +0.174 HD
BRANCH  20  22
ATOM     22  S   UNL     1       3.904   2.312  -0.024  0.00  0.00    +0.073 S 
ATOM     23  O   UNL     1       3.630   3.588   0.536  0.00  0.00    -0.150 OA
ATOM     24  O   UNL     1       4.891   1.441   0.513  0.00  0.00    -0.150 OA
BRANCH  22  30
ATOM     25  C   UNL     1       2.398   0.035  -0.021  0.00  0.00    +0.031 A 
ATOM     26  C   UNL     1       1.211  -0.674  -0.013  0.00  0.00    +0.041 A 
ATOM     27  C   UNL     1       0.002  -0.004   0.002  0.00  0.00    +0.138 A 
ATOM     28  C   UNL     1      -0.017   1.395   0.010  0.00  0.00    +0.100 A 
ATOM     29  C   UNL     1       1.187   2.103   0.002  0.00  0.00    +0.046 A 
ATOM     30  C   UNL     1       2.385   1.420  -0.013  0.00  0.00    +0.109 A 
ATOM     31  F   UNL     1      -1.157  -0.698   0.009  0.00  0.00    -0.205 F 
BRANCH  28  32
ATOM     32  C   UNL     1      -1.303   2.119   0.020  0.00  0.00    +0.389 C 
ATOM     33  O   UNL     1      -2.348   1.501   0.021  0.00  0.00    -0.240 OA
ATOM     34  O   UNL     1      -1.317   3.466   0.027  0.00  0.00    -0.240 OA
ENDBRANCH  28  32
ENDBRANCH  22  30
ENDBRANCH  20  22
ENDBRANCH   1  20
TORSDOF 7
