REMARK  Name = ZINC32851027
REMARK  9 active torsions:
REMARK  status: ('A' for Active; 'I' for Inactive)
REMARK    1  A    between atoms: C_3  and  C_6
REMARK    2  A    between atoms: C_6  and  N_7
REMARK    3  A    between atoms: N_7  and  C_8
REMARK    4  A    between atoms: N_7  and  C_14
REMARK    5  A    between atoms: C_8  and  C_9
REMARK    6  A    between atoms: C_14  and  C_15
REMARK    7  A    between atoms: C_15  and  C_17
REMARK    8  A    between atoms: C_18  and  N_29
REMARK    9  A    between atoms: N_19  and  C_26
REMARK                            x       y       z     vdW  Elec       q    Type
REMARK                         _______ _______ _______ _____ _____    ______ ____
ROOT
ATOM      1  C   UNL     1      -0.017  -0.353  -0.419  0.00  0.00    +0.155 C 
ATOM      2  O   UNL     1      -0.704  -1.280  -0.039  0.00  0.00    -0.294 OA
ENDROOT
BRANCH   1   3
ATOM      3  C   UNL     1      -0.604   0.907  -0.661  0.00  0.00    +0.118 A 
ATOM      4  C   UNL     1      -1.996   1.086  -0.584  0.00  0.00    +0.116 A 
ATOM      5  N   UNL     1      -2.517   2.326  -0.821  0.00  0.00    -0.278 N 
ATOM      6  C   UNL     1      -1.728   3.365  -1.136  0.00  0.00    +0.331 A 
ATOM      7  O   UNL     1      -2.241   4.447  -1.343  0.00  0.00    -0.246 OA
ATOM      8  N   UNL     1      -0.393   3.254  -1.230  0.00  0.00    -0.274 N 
ATOM      9  H   UNL     1       0.215   4.132  -1.490  0.00  0.00    +0.173 HD
ATOM     10  C   UNL     1       0.220   2.072  -1.008  0.00  0.00    +0.266 A 
ATOM     11  O   UNL     1       1.430   1.975  -1.094  0.00  0.00    -0.267 OA
BRANCH   5  12
ATOM     12  C   UNL     1      -3.966   2.524  -0.737  0.00  0.00    +0.094 C 
ATOM     13  C   UNL     1      -4.469   3.733   0.054  0.00  0.00    +0.027 C 
ATOM     14  C   UNL     1      -4.628   2.323   0.627  0.00  0.00    +0.027 C 
ENDBRANCH   5  12
BRANCH   4  15
ATOM     15  N   UNL     1      -2.811   0.042  -0.273  0.00  0.00    -0.344 N 
ATOM     16  H   UNL     1      -3.899   0.191  -0.215  0.00  0.00    +0.144 HD
ATOM     17  H   UNL     1      -2.381  -0.953  -0.080  0.00  0.00    +0.144 HD
ENDBRANCH   4  15
ENDBRANCH   1   3
BRANCH   1  18
ATOM     18  C   UNL     1       1.462  -0.549  -0.632  0.00  0.00    +0.004 C 
BRANCH  18  19
ATOM     19  N   UNL     1       1.823  -1.937  -0.313  0.00  0.00    +0.392 N 
ATOM     20  H   UNL     1       1.149  -2.599  -0.877  0.00  0.00    -0.080 HD
BRANCH  19  21
ATOM     21  C   UNL     1       3.200  -2.232  -0.731  0.00  0.00    -0.002 C 
BRANCH  21  24
ATOM     22  C   UNL     1       3.472  -2.098  -4.404  0.00  0.00    +0.041 A 
ATOM     23  C   UNL     1       3.561  -1.487  -3.132  0.00  0.00    +0.042 A 
ATOM     24  C   UNL     1       3.241  -2.427  -2.225  0.00  0.00    +0.089 A 
ATOM     25  O   UNL     1       2.970  -3.570  -2.876  0.00  0.00    -0.470 OA
ATOM     26  C   UNL     1       3.102  -3.374  -4.198  0.00  0.00    +0.195 A 
ENDBRANCH  21  24
ENDBRANCH  19  21
BRANCH  19  27
ATOM     27  C   UNL     1       1.636  -2.215   1.117  0.00  0.00    -0.034 C 
BRANCH  27  28
ATOM     28  C   UNL     1       1.631  -3.705   1.343  0.00  0.00    -0.027 A 
ATOM     29  C   UNL     1       2.647  -4.513   1.732  0.00  0.00    +0.009 A 
ATOM     30  C   UNL     1       2.408  -5.866   1.880  0.00  0.00    +0.008 A 
ATOM     31  C   UNL     1       1.167  -6.347   1.622  0.00  0.00    +0.045 A 
ATOM     32  S   UNL     1       0.286  -4.864   1.161  0.00  0.00    -0.103 S 
ENDBRANCH  27  28
ENDBRANCH  19  27
ENDBRANCH  18  19
ENDBRANCH   1  18
TORSDOF 9
