REMARK  Name = ZINC20126650
REMARK  6 active torsions:
REMARK  status: ('A' for Active; 'I' for Inactive)
REMARK    1  A    between atoms: C_1  and  C_2
REMARK    2  A    between atoms: C_5  and  N_12
REMARK    3  A    between atoms: C_7  and  S_8
REMARK    4  A    between atoms: S_8  and  N_11
REMARK    5  A    between atoms: N_12  and  C_13
REMARK    6  A    between atoms: C_13  and  C_14
REMARK                            x       y       z     vdW  Elec       q    Type
REMARK                         _______ _______ _______ _____ _____    ______ ____
ROOT
ATOM      1  C   UNL     1       4.817   9.504  -2.413  0.00  0.00    +0.046 C 
ATOM      2  C   UNL     1       3.998   8.270  -2.136  0.00  0.00    -0.024 A 
ATOM      3  C   UNL     1       3.756   7.881  -0.831  0.00  0.00    +0.007 A 
ATOM      4  C   UNL     1       3.001   6.754  -0.573  0.00  0.00    +0.023 A 
ATOM      5  C   UNL     1       2.493   6.004  -1.627  0.00  0.00    +0.029 A 
ATOM      6  C   UNL     1       2.738   6.398  -2.936  0.00  0.00    +0.051 A 
ATOM      7  C   UNL     1       3.489   7.530  -3.187  0.00  0.00    +0.110 A 
ENDROOT
BRANCH   7   8
ATOM      8  S   UNL     1       3.800   8.030  -4.847  0.00  0.00    +0.056 S 
ATOM      9  O   UNL     1       5.197   8.277  -4.942  0.00  0.00    -0.153 OA
ATOM     10  O   UNL     1       3.134   7.095  -5.685  0.00  0.00    -0.153 OA
BRANCH   8  11
ATOM     11  N   UNL     1       3.046   9.487  -5.070  0.00  0.00    -0.204 NA
ATOM     12  H   UNL     1       3.217   9.835  -6.099  0.00  0.00    +0.144 HD
ATOM     13  H   UNL     1       3.453  10.223  -4.361  0.00  0.00    +0.144 HD
ENDBRANCH   8  11
ENDBRANCH   7   8
BRANCH   5  14
ATOM     14  N   UNL     1       1.734   4.861  -1.370  0.00  0.00    -0.337 N 
ATOM     15  H   UNL     1       1.329   4.271  -2.205  0.00  0.00    +0.147 HD
BRANCH  14  16
ATOM     16  C   UNL     1       1.476   4.447   0.011  0.00  0.00    +0.176 C 
BRANCH  16  17
ATOM     17  C   UNL     1       0.640   3.194   0.013  0.00  0.00    +0.123 A 
ATOM     18  C   UNL     1       1.111   1.934   0.002  0.00  0.00    +0.047 A 
ATOM     19  C   UNL     1      -0.013   1.076   0.008  0.00  0.00    +0.057 A 
ATOM     20  C   UNL     1      -1.104   1.863   0.017  0.00  0.00    +0.170 A 
ATOM     21  O   UNL     1      -0.703   3.145   0.026  0.00  0.00    -0.452 OA
ATOM     22 BR   UNL     1      -2.899   1.267   0.020  0.00  0.00    -0.008 Br
ENDBRANCH  16  17
ENDBRANCH  14  16
ENDBRANCH   5  14
TORSDOF 5
