REMARK  Name = ZINC39124420
REMARK  7 active torsions:
REMARK  status: ('A' for Active; 'I' for Inactive)
REMARK    1  A    between atoms: C_1  and  C_2
REMARK    2  A    between atoms: C_7  and  O_20
REMARK    3  A    between atoms: C_10  and  C_17
REMARK    4  A    between atoms: C_15  and  O_16
REMARK    5  A    between atoms: C_17  and  O_18
REMARK    6  A    between atoms: O_18  and  C_19
REMARK    7  A    between atoms: N_21  and  C_22
REMARK                            x       y       z     vdW  Elec       q    Type
REMARK                         _______ _______ _______ _____ _____    ______ ____
ROOT
ATOM      1  C   UNL     1      -0.019   1.526   0.010  0.00  0.00    +0.052 C 
ATOM      2  C   UNL     1       0.002  -0.004   0.002  0.00  0.00    +0.164 C 
ATOM      3  N   UNL     1       0.728  -0.489  -1.174  0.00  0.00    -0.362 N 
ATOM      4  C   UNL     1       1.754  -1.189  -0.786  0.00  0.00    +0.104 A 
ATOM      5  C   UNL     1       1.804  -1.234   0.686  0.00  0.00    +0.102 A 
ATOM      6  C   UNL     1       2.794  -1.911   1.326  0.00  0.00    +0.164 A 
ATOM      7  C   UNL     1       3.825  -2.607   0.563  0.00  0.00    +0.100 A 
ATOM      8  N   UNL     1       4.807  -3.279   1.159  0.00  0.00    -0.340 N 
ATOM      9  C   UNL     1       5.733  -3.904   0.457  0.00  0.00    +0.126 C 
ATOM     10  N   UNL     1       5.785  -3.930  -0.854  0.00  0.00    -0.161 NA
ATOM     11  C   UNL     1       4.868  -3.301  -1.611  0.00  0.00    +0.275 C 
ATOM     12  O   UNL     1       4.921  -3.328  -2.830  0.00  0.00    -0.268 OA
ATOM     13  C   UNL     1       3.799  -2.579  -0.904  0.00  0.00    +0.109 A 
ATOM     14  C   UNL     1       2.800  -1.895  -1.574  0.00  0.00    +0.156 A 
ATOM     15  N   UNL     1       0.724  -0.504   1.180  0.00  0.00    -0.309 N 
ATOM     16  C   UNL     1       0.379  -0.279   2.586  0.00  0.00    +0.131 C 
ATOM     17  H   UNL     1       0.483  -0.316  -2.096  0.00  0.00    +0.162 HD
ATOM     18  H   UNL     1       4.843  -3.311   2.127  0.00  0.00    +0.167 HD
ENDROOT
BRANCH  14  19
ATOM     19  O   UNL     1       2.775  -1.868  -2.920  0.00  0.00    -0.504 OA
ATOM     20  H   UNL     1       3.264  -1.130  -3.308  0.00  0.00    +0.292 HD
ENDBRANCH  14  19
BRANCH   6  21
ATOM     21  O   UNL     1       2.824  -1.941   2.686  0.00  0.00    -0.503 OA
ATOM     22  H   UNL     1       2.336  -2.680   3.074  0.00  0.00    +0.292 HD
ENDBRANCH   6  21
BRANCH   9  23
ATOM     23  C   UNL     1       6.807  -4.641   1.214  0.00  0.00    +0.230 C 
BRANCH  23  24
ATOM     24  O   UNL     1       6.583  -4.498   2.618  0.00  0.00    -0.376 OA
ATOM     25  C   UNL     1       7.552  -5.162   3.432  0.00  0.00    +0.194 C 
ENDBRANCH  23  24
ENDBRANCH   9  23
TORSDOF 4
