REMARK  Name = ZINC66939758
REMARK  8 active torsions:
REMARK  status: ('A' for Active; 'I' for Inactive)
REMARK    1  A    between atoms: C_4  and  C_7
REMARK    2  A    between atoms: C_7  and  O_8
REMARK    3  A    between atoms: O_8  and  C_9
REMARK    4  A    between atoms: C_14  and  C_15
REMARK    5  A    between atoms: C_15  and  N_16
REMARK    6  A    between atoms: N_16  and  C_17
REMARK    7  A    between atoms: C_17  and  C_19
REMARK    8  A    between atoms: C_17  and  C_26
REMARK                            x       y       z     vdW  Elec       q    Type
REMARK                         _______ _______ _______ _____ _____    ______ ____
ROOT
ATOM      1  N   UNL     1       3.919  -2.383   4.198  0.00  0.00    +0.392 N 
ATOM      2  H   UNL     1       3.311  -2.417   3.393  0.00  0.00    -0.084 HD
ATOM      3  H   UNL     1       4.306  -3.300   4.365  0.00  0.00    -0.084 HD
ENDROOT
BRANCH   1   4
ATOM      4  C   UNL     1       5.008  -1.430   3.949  0.00  0.00    -0.042 C 
BRANCH   4  10
ATOM      5  C   UNL     1       5.319  -1.605   1.466  0.00  0.00    +0.122 A 
ATOM      6  C   UNL     1       6.048  -2.007   0.357  0.00  0.00    +0.046 A 
ATOM      7  C   UNL     1       7.245  -2.676   0.525  0.00  0.00    +0.004 A 
ATOM      8  C   UNL     1       7.716  -2.945   1.797  0.00  0.00    +0.000 A 
ATOM      9  C   UNL     1       6.991  -2.545   2.904  0.00  0.00    +0.005 A 
ATOM     10  C   UNL     1       5.796  -1.871   2.742  0.00  0.00    -0.023 A 
BRANCH   5  11
ATOM     11  O   UNL     1       4.141  -0.946   1.304  0.00  0.00    -0.487 OA
BRANCH  11  12
ATOM     12  C   UNL     1       3.711  -0.707  -0.038  0.00  0.00    +0.264 C 
BRANCH  12  16
ATOM     13  C   UNL     1      -0.017   1.378   0.010  0.00  0.00    +0.000 A 
ATOM     14  C   UNL     1       1.171   2.086   0.002  0.00  0.00    +0.000 A 
ATOM     15  C   UNL     1       2.377   1.411  -0.013  0.00  0.00    +0.007 A 
ATOM     16  C   UNL     1       2.396   0.029  -0.020  0.00  0.00    -0.010 A 
ATOM     17  C   UNL     1       1.208  -0.679  -0.012  0.00  0.00    +0.007 A 
ATOM     18  C   UNL     1       0.002  -0.004   0.002  0.00  0.00    +0.000 A 
ENDBRANCH  12  16
ENDBRANCH  11  12
ENDBRANCH   5  11
ENDBRANCH   4  10
ENDBRANCH   1   4
BRANCH   1  19
ATOM     19  C   UNL     1       3.152  -1.954   5.374  0.00  0.00    +0.047 C 
BRANCH  19  20
ATOM     20  C   UNL     1       2.112  -2.994   5.703  0.00  0.00    -0.053 A 
ATOM     21  C   UNL     1       1.421  -3.625   4.686  0.00  0.00    +0.005 A 
ATOM     22  C   UNL     1       0.468  -4.580   4.987  0.00  0.00    +0.038 A 
ATOM     23  C   UNL     1       0.205  -4.903   6.307  0.00  0.00    +0.123 A 
ATOM     24  C   UNL     1       0.898  -4.270   7.325  0.00  0.00    +0.038 A 
ATOM     25  C   UNL     1       1.855  -3.320   7.022  0.00  0.00    +0.005 A 
ATOM     26  F   UNL     1      -0.727  -5.836   6.602  0.00  0.00    -0.205 F 
ENDBRANCH  19  20
BRANCH  19  27
ATOM     27  C   UNL     1       2.473  -0.641   5.079  0.00  0.00    +0.201 C 
ATOM     28  O   UNL     1       2.615  -0.115   3.995  0.00  0.00    -0.277 OA
ATOM     29  N   UNL     1       1.708  -0.051   6.019  0.00  0.00    -0.330 N 
ATOM     30  H   UNL     1       1.595  -0.472   6.886  0.00  0.00    +0.145 HD
ATOM     31  H   UNL     1       1.272   0.794   5.830  0.00  0.00    +0.145 HD
ENDBRANCH  19  27
ENDBRANCH   1  19
TORSDOF 8
