REMARK  Name = ZINC49266784
REMARK  6 active torsions:
REMARK  status: ('A' for Active; 'I' for Inactive)
REMARK    1  A    between atoms: C_1  and  C_2
REMARK    2  A    between atoms: C_2  and  C_3
REMARK    3  A    between atoms: C_3  and  C_5
REMARK    4  A    between atoms: C_3  and  N_6
REMARK    5  A    between atoms: C_13  and  C_16
REMARK    6  A    between atoms: C_16  and  N_17
REMARK                            x       y       z     vdW  Elec       q    Type
REMARK                         _______ _______ _______ _____ _____    ______ ____
ROOT
ATOM      1  N   UNL     1      -2.105  -0.144  -1.229  0.00  0.00    -0.297 N 
ATOM      2  C   UNL     1      -3.448  -0.040  -1.265  0.00  0.00    +0.302 C 
ATOM      3  O   UNL     1      -4.109  -0.352  -0.293  0.00  0.00    -0.253 OA
ATOM      4  N   UNL     1      -4.060   0.412  -2.378  0.00  0.00    -0.285 N 
ATOM      5  C   UNL     1      -3.288   0.680  -3.599  0.00  0.00    +0.109 C 
ATOM      6  C   UNL     1      -3.924  -0.088  -4.763  0.00  0.00    +0.019 C 
ATOM      7  C   UNL     1      -5.406   0.279  -4.862  0.00  0.00    +0.008 C 
ATOM      8  C   UNL     1      -6.121  -0.122  -3.570  0.00  0.00    +0.024 C 
ATOM      9  C   UNL     1      -5.511   0.640  -2.395  0.00  0.00    +0.114 C 
ATOM     10  H   UNL     1      -1.583   0.037  -2.026  0.00  0.00    +0.151 HD
ENDROOT
BRANCH   1  11
ATOM     11  C   UNL     1      -1.433  -0.530   0.015  0.00  0.00    +0.071 C 
ATOM     12  C   UNL     1      -1.408  -2.055   0.128  0.00  0.00    +0.028 C 
BRANCH  11  14
ATOM     13  C   UNL     1      -0.026   1.534   0.019  0.00  0.00    +0.005 C 
ATOM     14  C   UNL     1       0.000   0.005   0.007  0.00  0.00    +0.019 C 
ENDBRANCH  11  14
ENDBRANCH   1  11
BRANCH   8  15
ATOM     15  C   UNL     1      -7.609   0.215  -3.683  0.00  0.00    +0.110 C 
BRANCH  15  16
ATOM     16  N   UNL     1      -8.313  -0.277  -2.497  0.00  0.00    -0.299 N 
ATOM     17  C   UNL     1      -9.643  -0.092  -2.377  0.00  0.00    +0.297 C 
ATOM     18  O   UNL     1     -10.258   0.484  -3.254  0.00  0.00    -0.253 OA
ATOM     19  N   UNL     1     -10.291  -0.544  -1.285  0.00  0.00    -0.313 N 
ATOM     20  H   UNL     1      -7.822  -0.736  -1.797  0.00  0.00    +0.150 HD
ATOM     21  H   UNL     1      -9.800  -1.004  -0.586  0.00  0.00    +0.146 HD
ATOM     22  H   UNL     1     -11.248  -0.411  -1.199  0.00  0.00    +0.146 HD
ENDBRANCH  15  16
ENDBRANCH   8  15
TORSDOF 4
