REMARK  Name = ZINC63295555
REMARK  6 active torsions:
REMARK  status: ('A' for Active; 'I' for Inactive)
REMARK    1  A    between atoms: C_1  and  C_2
REMARK    2  A    between atoms: C_4  and  N_23
REMARK    3  A    between atoms: C_7  and  C_9
REMARK    4  A    between atoms: N_11  and  C_12
REMARK    5  A    between atoms: C_12  and  C_13
REMARK    6  A    between atoms: C_13  and  C_14
REMARK                            x       y       z     vdW  Elec       q    Type
REMARK                         _______ _______ _______ _____ _____    ______ ____
ROOT
ATOM      1  C   UNL     1      -2.960   1.576   0.005  0.00  0.00    +0.252 C 
ATOM      2  O   UNL     1      -2.505   1.173   1.061  0.00  0.00    -0.270 OA
ATOM      3  N   UNL     1      -4.279   1.830  -0.107  0.00  0.00    -0.311 N 
ATOM      4  H   UNL     1      -4.641   2.150  -0.948  0.00  0.00    +0.149 HD
ENDROOT
BRANCH   1  10
ATOM      5  C   UNL     1      -0.013   1.086   0.008  0.00  0.00    +0.062 C 
ATOM      6  C   UNL     1      -0.742   1.585  -1.213  0.00  0.00    +0.022 C 
ATOM      7  N   UNL     1      -0.039   1.812  -2.342  0.00  0.00    -0.318 N 
ATOM      8  C   UNL     1      -0.811   2.301  -3.505  0.00  0.00    +0.237 C 
ATOM      9  S   UNL     1      -2.499   2.364  -2.775  0.00  0.00    -0.074 S 
ATOM     10  C   UNL     1      -2.075   1.784  -1.139  0.00  0.00    +0.089 C 
ATOM     11  H   UNL     1       0.918   1.664  -2.389  0.00  0.00    +0.149 HD
BRANCH   8  12
ATOM     12  N   UNL     1      -0.361   3.632  -3.919  0.00  0.00    -0.326 N 
ATOM     13  C   UNL     1       0.172   4.582  -3.099  0.00  0.00    +0.088 A 
ATOM     14  C   UNL     1       0.462   5.668  -3.844  0.00  0.00    +0.019 A 
ATOM     15  C   UNL     1       0.095   5.378  -5.173  0.00  0.00    +0.019 A 
ATOM     16  C   UNL     1      -0.400   4.123  -5.191  0.00  0.00    +0.088 A 
ENDBRANCH   8  12
ENDBRANCH   1  10
BRANCH   3  17
ATOM     17  C   UNL     1      -5.165   1.621   1.040  0.00  0.00    +0.109 C 
BRANCH  17  18
ATOM     18  C   UNL     1      -6.600   1.981   0.648  0.00  0.00    +0.052 C 
BRANCH  18  19
ATOM     19  C   UNL     1      -7.512   1.767   1.828  0.00  0.00    -0.040 C 
ATOM     20  C   UNL     1      -7.914   2.696   2.725  0.00  0.00    -0.001 A 
ATOM     21  C   UNL     1      -7.631   4.130   2.865  0.00  0.00    +0.010 A 
ATOM     22  C   UNL     1      -8.191   4.812   3.890  0.00  0.00    +0.001 A 
ATOM     23  C   UNL     1      -9.032   4.185   4.820  0.00  0.00    +0.002 A 
ATOM     24  C   UNL     1      -9.338   2.872   4.758  0.00  0.00    +0.026 A 
ATOM     25  C   UNL     1      -8.805   2.058   3.720  0.00  0.00    +0.043 A 
ATOM     26  N   UNL     1      -8.949   0.784   3.449  0.00  0.00    -0.380 N 
ATOM     27  C   UNL     1      -8.169   0.470   2.246  0.00  0.00    +0.144 C 
ATOM     28  H   UNL     1      -9.485   0.154   3.956  0.00  0.00    +0.160 HD
ENDBRANCH  18  19
ENDBRANCH  17  18
ENDBRANCH   3  17
TORSDOF 5
