REMARK  Name = ZINC63351137
REMARK  5 active torsions:
REMARK  status: ('A' for Active; 'I' for Inactive)
REMARK    1  A    between atoms: C_1  and  C_2
REMARK    2  A    between atoms: C_5  and  N_9
REMARK    3  A    between atoms: C_7  and  C_8
REMARK    4  A    between atoms: C_10  and  O_34
REMARK    5  A    between atoms: C_12  and  C_19
REMARK                            x       y       z     vdW  Elec       q    Type
REMARK                         _______ _______ _______ _____ _____    ______ ____
ROOT
ATOM      1  N   UNL     1       0.058  -4.170  -0.021  0.00  0.00    -0.228 N 
ATOM      2  C   UNL     1      -0.044  -4.886  -1.294  0.00  0.00    +0.224 C 
ATOM      3  C   UNL     1       0.827  -6.144  -1.244  0.00  0.00    +0.142 C 
ATOM      4  C   UNL     1       0.574  -6.870   0.053  0.00  0.00    +0.229 C 
ATOM      5  O   UNL     1       0.614  -8.081   0.088  0.00  0.00    -0.275 OA
ATOM      6  N   UNL     1       0.305  -6.173   1.173  0.00  0.00    -0.239 N 
ATOM      7  C   UNL     1       0.174  -4.837   1.139  0.00  0.00    +0.315 C 
ATOM      8  O   UNL     1       0.157  -4.217   2.184  0.00  0.00    -0.252 OA
ATOM      9  H   UNL     1       0.207  -6.642   2.016  0.00  0.00    +0.159 HD
ENDROOT
BRANCH   3  10
ATOM     10  C   UNL     1       2.302  -5.748  -1.331  0.00  0.00    +0.096 C 
ATOM     11  C   UNL     1       3.171  -7.007  -1.393  0.00  0.00    +0.124 C 
ATOM     12  C   UNL     1       4.617  -6.532  -1.304  0.00  0.00    -0.036 C 
ATOM     13  C   UNL     1       5.245  -7.046  -2.352  0.00  0.00    -0.001 A 
ATOM     14  C   UNL     1       6.658  -7.015  -2.762  0.00  0.00    +0.010 A 
ATOM     15  C   UNL     1       6.960  -7.648  -3.926  0.00  0.00    +0.001 A 
ATOM     16  C   UNL     1       6.008  -8.301  -4.715  0.00  0.00    +0.002 A 
ATOM     17  C   UNL     1       4.688  -8.385  -4.413  0.00  0.00    +0.026 A 
ATOM     18  C   UNL     1       4.250  -7.762  -3.208  0.00  0.00    +0.043 A 
ATOM     19  N   UNL     1       3.047  -7.713  -2.667  0.00  0.00    -0.376 N 
ATOM     20  C   UNL     1       5.072  -5.577  -0.228  0.00  0.00    +0.048 C 
ATOM     21  C   UNL     1       4.039  -4.435  -0.202  0.00  0.00    +0.085 C 
ATOM     22  N   UNL     1       2.682  -4.982  -0.133  0.00  0.00    -0.310 NA
ATOM     23  H   UNL     1       2.008  -4.256   0.060  0.00  0.00    +0.122 HD
ATOM     24  H   UNL     1       2.227  -8.072  -3.040  0.00  0.00    +0.160 HD
ENDBRANCH   3  10
BRANCH   1  29
ATOM     25  C   UNL     1      -0.018   1.503   0.009  0.00  0.00    +0.044 C 
ATOM     26  C   UNL     1       0.003  -0.004   0.001  0.00  0.00    -0.047 A 
ATOM     27  C   UNL     1       1.063  -0.677  -0.579  0.00  0.00    +0.005 A 
ATOM     28  C   UNL     1       1.084  -2.058  -0.587  0.00  0.00    +0.024 A 
ATOM     29  C   UNL     1       0.040  -2.771  -0.013  0.00  0.00    +0.041 A 
ATOM     30  C   UNL     1      -1.023  -2.092   0.568  0.00  0.00    +0.027 A 
ATOM     31  C   UNL     1      -1.036  -0.711   0.579  0.00  0.00    -0.046 A 
ATOM     32  C   UNL     1      -2.186   0.026   1.214  0.00  0.00    +0.044 C 
ENDBRANCH   1  29
BRANCH   2  33
ATOM     33  O   UNL     1      -1.404  -5.257  -1.524  0.00  0.00    -0.373 OA
ATOM     34  H   UNL     1      -2.014  -4.508  -1.568  0.00  0.00    +0.212 HD
ENDBRANCH   2  33
TORSDOF 3
