REMARK  Name = ZINC42529110
REMARK  9 active torsions:
REMARK  status: ('A' for Active; 'I' for Inactive)
REMARK    1  A    between atoms: C_1  and  C_2
REMARK    2  A    between atoms: C_2  and  C_3
REMARK    3  A    between atoms: C_2  and  N_4
REMARK    4  A    between atoms: N_4  and  C_5
REMARK    5  A    between atoms: N_4  and  C_11
REMARK    6  A    between atoms: C_5  and  C_6
REMARK    7  A    between atoms: C_6  and  C_7
REMARK    8  A    between atoms: N_8  and  O_9
REMARK    9  A    between atoms: C_11  and  C_12
REMARK                            x       y       z     vdW  Elec       q    Type
REMARK                         _______ _______ _______ _____ _____    ______ ____
ROOT
ATOM      1  N   UNL     1       0.189  -0.348  -1.411  0.00  0.00    +0.384 N 
ATOM      2  H   UNL     1      -0.257   0.062  -2.217  0.00  0.00    -0.081 HD
ENDROOT
BRANCH   1   4
ATOM      3  C   UNL     1       0.194  -0.496   1.034  0.00  0.00    -0.014 C 
ATOM      4  C   UNL     1      -0.541   0.039  -0.196  0.00  0.00    -0.074 C 
ATOM      5  C   UNL     1      -0.626   1.565  -0.117  0.00  0.00    -0.014 C 
ENDBRANCH   1   4
BRANCH   1   6
ATOM      6  C   UNL     1       0.184  -1.812  -1.540  0.00  0.00    -0.070 C 
BRANCH   6   7
ATOM      7  C   UNL     1      -1.249  -2.298  -1.766  0.00  0.00    +0.056 C 
BRANCH   7   8
ATOM      8  C   UNL     1      -1.262  -3.803  -1.847  0.00  0.00    +0.130 C 
ATOM      9  N   UNL     1      -0.160  -4.465  -1.726  0.00  0.00    -0.077 NA
ATOM     10  N   UNL     1      -2.449  -4.472  -2.048  0.00  0.00    -0.344 N 
ATOM     11  H   UNL     1      -3.276  -3.974  -2.139  0.00  0.00    +0.143 HD
ATOM     12  H   UNL     1      -2.457  -5.440  -2.100  0.00  0.00    +0.143 HD
BRANCH   9  13
ATOM     13  O   UNL     1      -0.172  -5.880  -1.801  0.00  0.00    -0.408 OA
ATOM     14  H   UNL     1       0.700  -6.286  -1.699  0.00  0.00    +0.328 HD
ENDBRANCH   9  13
ENDBRANCH   7   8
ENDBRANCH   6   7
ENDBRANCH   1   6
BRANCH   1  15
ATOM     15  C   UNL     1       1.575   0.130  -1.322  0.00  0.00    -0.041 C 
BRANCH  15  16
ATOM     16  C   UNL     1       2.291  -0.161  -2.616  0.00  0.00    -0.047 A 
ATOM     17  C   UNL     1       3.186  -1.211  -2.689  0.00  0.00    +0.041 A 
ATOM     18  C   UNL     1       3.843  -1.478  -3.878  0.00  0.00    +0.124 A 
ATOM     19  C   UNL     1       3.604  -0.692  -4.993  0.00  0.00    +0.039 A 
ATOM     20  C   UNL     1       2.709   0.358  -4.918  0.00  0.00    +0.018 A 
ATOM     21  C   UNL     1       2.048   0.621  -3.731  0.00  0.00    +0.019 A 
ATOM     22 BR   UNL     1       0.817   2.053  -3.631  0.00  0.00    -0.050 Br
ATOM     23  F   UNL     1       4.718  -2.505  -3.951  0.00  0.00    -0.205 F 
ENDBRANCH  15  16
ENDBRANCH   1  15
TORSDOF 7
