REMARK  Name = ZINC60411650
REMARK  6 active torsions:
REMARK  status: ('A' for Active; 'I' for Inactive)
REMARK    1  A    between atoms: C_3  and  C_11
REMARK    2  A    between atoms: C_5  and  C_7
REMARK    3  A    between atoms: C_12  and  C_13
REMARK    4  A    between atoms: N_15  and  N_16
REMARK    5  A    between atoms: N_19  and  C_20
REMARK    6  A    between atoms: C_20  and  C_21
REMARK                            x       y       z     vdW  Elec       q    Type
REMARK                         _______ _______ _______ _____ _____    ______ ____
ROOT
ATOM      1  C   UNL     1       4.899   4.249  -0.023  0.00  0.00    +0.253 C 
ATOM      2  O   UNL     1       5.959   3.652  -0.037  0.00  0.00    -0.269 OA
ATOM      3  N   UNL     1       4.885   5.597  -0.016  0.00  0.00    -0.230 N 
ATOM      4  H   UNL     1       4.040   6.073  -0.006  0.00  0.00    +0.173 HD
ENDROOT
BRANCH   3   5
ATOM      5  N   UNL     1       6.091   6.310  -0.025  0.00  0.00    -0.218 N 
ATOM      6  C   UNL     1       6.077   7.658  -0.018  0.00  0.00    +0.316 C 
ATOM      7  O   UNL     1       7.123   8.277  -0.025  0.00  0.00    -0.251 OA
ATOM      8  N   UNL     1       4.902   8.319  -0.003  0.00  0.00    -0.290 N 
ATOM      9  H   UNL     1       6.936   5.834  -0.035  0.00  0.00    +0.174 HD
ATOM     10  H   UNL     1       4.067   7.825   0.003  0.00  0.00    +0.151 HD
BRANCH   8  11
ATOM     11  C   UNL     1       4.887   9.784   0.005  0.00  0.00    +0.219 C 
BRANCH  11  12
ATOM     12  C   UNL     1       3.439  10.279   0.021  0.00  0.00    +0.405 C 
ATOM     13  F   UNL     1       2.796   9.800   1.168  0.00  0.00    -0.169 F 
ATOM     14  F   UNL     1       3.424  11.678   0.029  0.00  0.00    -0.169 F 
ATOM     15  F   UNL     1       2.773   9.811  -1.117  0.00  0.00    -0.169 F 
ENDBRANCH  11  12
ENDBRANCH   8  11
ENDBRANCH   3   5
BRANCH   1  17
ATOM     16  C   UNL     1       3.653   2.156  -0.022  0.00  0.00    +0.013 C 
ATOM     17  C   UNL     1       3.639   3.504  -0.015  0.00  0.00    +0.069 C 
BRANCH  16  20
ATOM     18  C   UNL     1      -0.017   1.380   0.010  0.00  0.00    +0.001 A 
ATOM     19  C   UNL     1       1.166   2.089   0.002  0.00  0.00    +0.008 A 
ATOM     20  C   UNL     1       2.386   1.406  -0.013  0.00  0.00    -0.024 A 
ATOM     21  C   UNL     1       2.397   0.008  -0.021  0.00  0.00    +0.020 A 
ATOM     22  C   UNL     1       1.206  -0.687  -0.013  0.00  0.00    +0.055 A 
ATOM     23  C   UNL     1       0.002  -0.004   0.002  0.00  0.00    +0.012 A 
BRANCH  22  24
ATOM     24  C   UNL     1       1.215  -2.194  -0.022  0.00  0.00    +0.417 C 
ATOM     25  F   UNL     1       1.231  -2.668   1.294  0.00  0.00    -0.166 F 
ATOM     26  F   UNL     1       0.069  -2.663  -0.673  0.00  0.00    -0.166 F 
ATOM     27  F   UNL     1       2.354  -2.650  -0.695  0.00  0.00    -0.166 F 
ENDBRANCH  22  24
ENDBRANCH  16  20
ENDBRANCH   1  17
TORSDOF 6
