REMARK  Name = ZINC50224271
REMARK  4 active torsions:
REMARK  status: ('A' for Active; 'I' for Inactive)
REMARK    1  A    between atoms: C_4  and  C_13
REMARK    2  A    between atoms: C_13  and  N_14
REMARK    3  A    between atoms: C_16  and  C_19
REMARK    4  A    between atoms: C_19  and  N_20
REMARK                            x       y       z     vdW  Elec       q    Type
REMARK                         _______ _______ _______ _____ _____    ______ ____
ROOT
ATOM      1  C   UNL     1      -0.017   1.384   0.010  0.00  0.00    +0.016 A 
ATOM      2  C   UNL     1       1.151   2.093   0.002  0.00  0.00    +0.013 A 
ATOM      3  C   UNL     1       2.374   1.415  -0.013  0.00  0.00    +0.023 A 
ATOM      4  C   UNL     1       3.644   2.147  -0.021  0.00  0.00    -0.009 A 
ATOM      5  C   UNL     1       4.797   1.431  -0.035  0.00  0.00    +0.098 A 
ATOM      6  C   UNL     1       4.746   0.020  -0.042  0.00  0.00    +0.338 A 
ATOM      7  O   UNL     1       5.787  -0.611  -0.055  0.00  0.00    -0.245 OA
ATOM      8  O   UNL     1       3.579  -0.643  -0.035  0.00  0.00    -0.422 OA
ATOM      9  C   UNL     1       2.398   0.009  -0.021  0.00  0.00    +0.140 A 
ATOM     10  C   UNL     1       1.199  -0.692  -0.013  0.00  0.00    +0.062 A 
ATOM     11  C   UNL     1       0.002  -0.004   0.002  0.00  0.00    +0.021 A 
ATOM     12 BR   UNL     1      -1.628  -0.963   0.012  0.00  0.00    -0.050 Br
ENDROOT
BRANCH   4  13
ATOM     13  C   UNL     1       3.669   3.654  -0.013  0.00  0.00    +0.181 C 
BRANCH  13  14
ATOM     14  N   UNL     1       3.545   4.151  -1.386  0.00  0.00    -0.247 N 
ATOM     15  C   UNL     1       2.617   5.031  -1.829  0.00  0.00    +0.132 A 
ATOM     16  C   UNL     1       2.867   5.209  -3.147  0.00  0.00    +0.066 A 
ATOM     17  N   UNL     1       3.921   4.441  -3.442  0.00  0.00    -0.136 NA
ATOM     18  N   UNL     1       4.303   3.831  -2.375  0.00  0.00    -0.065 NA
BRANCH  16  19
ATOM     19  C   UNL     1       2.106   6.099  -4.097  0.00  0.00    -0.027 C 
BRANCH  19  20
ATOM     20  N   UNL     1       2.779   7.401  -4.193  0.00  0.00    +0.382 N 
ATOM     21  H   UNL     1       2.810   7.832  -3.281  0.00  0.00    -0.090 HD
ATOM     22  H   UNL     1       3.719   7.270  -4.535  0.00  0.00    -0.090 HD
ATOM     23  H   UNL     1       2.269   7.997  -4.829  0.00  0.00    -0.090 HD
ENDBRANCH  19  20
ENDBRANCH  16  19
ENDBRANCH  13  14
ENDBRANCH   4  13
TORSDOF 4
