REMARK  Name = ZINC48811986
REMARK  6 active torsions:
REMARK  status: ('A' for Active; 'I' for Inactive)
REMARK    1  A    between atoms: C_1  and  C_2
REMARK    2  A    between atoms: C_10  and  C_11
REMARK    3  A    between atoms: N_13  and  C_14
REMARK    4  A    between atoms: C_14  and  C_16
REMARK    5  A    between atoms: C_14  and  C_17
REMARK    6  A    between atoms: N_19  and  C_20
REMARK                            x       y       z     vdW  Elec       q    Type
REMARK                         _______ _______ _______ _____ _____    ______ ____
ROOT
ATOM      1  C   UNL     1      -0.018   1.503   0.010  0.00  0.00    +0.048 C 
ATOM      2  C   UNL     1       0.002  -0.004   0.002  0.00  0.00    +0.008 A 
ATOM      3  C   UNL     1       0.009  -0.877  -1.171  0.00  0.00    +0.027 A 
ATOM      4  C   UNL     1      -0.001  -0.654  -2.551  0.00  0.00    +0.012 A 
ATOM      5  C   UNL     1       0.009  -1.716  -3.410  0.00  0.00    +0.004 A 
ATOM      6  C   UNL     1       0.030  -3.016  -2.921  0.00  0.00    +0.042 A 
ATOM      7  C   UNL     1       0.040  -3.258  -1.563  0.00  0.00    +0.166 A 
ATOM      8  C   UNL     1       0.030  -2.191  -0.669  0.00  0.00    +0.171 A 
ATOM      9  O   UNL     1       0.035  -2.113   0.676  0.00  0.00    -0.447 OA
ATOM     10  C   UNL     1       0.024  -0.826   1.083  0.00  0.00    +0.193 A 
ATOM     11  F   UNL     1       0.059  -4.528  -1.102  0.00  0.00    -0.202 F 
ENDROOT
BRANCH  10  12
ATOM     12  C   UNL     1       0.031  -0.382   2.484  0.00  0.00    +0.280 C 
ATOM     13  O   UNL     1       0.017   0.806   2.745  0.00  0.00    -0.267 OA
ATOM     14  N   UNL     1       0.053  -1.291   3.479  0.00  0.00    -0.298 N 
ATOM     15  H   UNL     1       0.065  -2.238   3.270  0.00  0.00    +0.150 HD
BRANCH  14  16
ATOM     16  C   UNL     1       0.060  -0.848   4.875  0.00  0.00    +0.156 C 
ATOM     17  C   UNL     1      -1.376  -0.594   5.337  0.00  0.00    +0.038 C 
BRANCH  16  18
ATOM     18  C   UNL     1       0.684  -1.915   5.737  0.00  0.00    +0.233 C 
ATOM     19  O   UNL     1       1.084  -2.944   5.235  0.00  0.00    -0.274 OA
ATOM     20  N   UNL     1       0.798  -1.726   7.067  0.00  0.00    -0.317 N 
ATOM     21  C   UNL     1       1.405  -2.763   7.905  0.00  0.00    +0.128 C 
ATOM     22  H   UNL     1       0.479  -0.902   7.469  0.00  0.00    +0.148 HD
ENDBRANCH  16  18
ENDBRANCH  14  16
ENDBRANCH  10  12
TORSDOF 3
