REMARK  Name = ZINC39413592
REMARK  3 active torsions:
REMARK  status: ('A' for Active; 'I' for Inactive)
REMARK    1  A    between atoms: C_1  and  C_2
REMARK    2  A    between atoms: N_9  and  C_10
REMARK    3  A    between atoms: C_11  and  C_19
REMARK                            x       y       z     vdW  Elec       q    Type
REMARK                         _______ _______ _______ _____ _____    ______ ____
ROOT
ATOM      1  C   UNL     1       0.077  -3.893   4.465  0.00  0.00    +0.115 A 
ATOM      2  C   UNL     1       0.030  -3.797   5.866  0.00  0.00    +0.072 A 
ATOM      3  C   UNL     1       0.063  -4.974   6.618  0.00  0.00    -0.023 A 
ATOM      4  C   UNL     1       0.140  -6.147   5.926  0.00  0.00    -0.004 A 
ATOM      5  S   UNL     1       0.162  -5.660   4.222  0.00  0.00    -0.073 S 
ATOM      6  C   UNL     1       0.191  -7.532   6.491  0.00  0.00    +0.043 C 
ATOM      7  C   UNL     1       0.515  -7.432   7.989  0.00  0.00    +0.005 C 
ATOM      8  C   UNL     1      -0.397  -6.375   8.619  0.00  0.00    +0.005 C 
ATOM      9  C   UNL     1       0.015  -4.981   8.144  0.00  0.00    +0.037 C 
ENDROOT
BRANCH   1  18
ATOM     10  C   UNL     1      -0.023   1.538   0.055  0.00  0.00    +0.044 C 
ATOM     11  C   UNL     1      -0.954   0.588   0.763  0.00  0.00    -0.050 A 
ATOM     12  C   UNL     1      -2.324   0.719   0.608  0.00  0.00    +0.005 A 
ATOM     13  C   UNL     1      -3.191  -0.143   1.250  0.00  0.00    +0.024 A 
ATOM     14  C   UNL     1      -2.695  -1.155   2.063  0.00  0.00    +0.043 A 
ATOM     15  C   UNL     1      -1.306  -1.285   2.218  0.00  0.00    +0.027 A 
ATOM     16  C   UNL     1      -0.441  -0.413   1.562  0.00  0.00    +0.015 A 
ATOM     17  C   UNL     1      -1.092  -2.431   3.125  0.00  0.00    +0.136 C 
ATOM     18  N   UNL     1       0.058  -2.914   3.549  0.00  0.00    -0.234 NA
ATOM     19  C   UNL     1      -2.451  -2.918   3.455  0.00  0.00    +0.267 C 
ATOM     20  O   UNL     1      -2.720  -3.856   4.181  0.00  0.00    -0.268 OA
ATOM     21  N   UNL     1      -3.335  -2.138   2.809  0.00  0.00    -0.280 N 
ATOM     22  H   UNL     1      -4.298  -2.247   2.858  0.00  0.00    +0.155 HD
ENDBRANCH   1  18
BRANCH   2  23
ATOM     23  C   UNL     1      -0.052  -2.485   6.527  0.00  0.00    +0.244 C 
ATOM     24  O   UNL     1      -1.138  -1.992   6.769  0.00  0.00    -0.270 OA
ATOM     25  N   UNL     1       1.076  -1.829   6.865  0.00  0.00    -0.325 N 
ATOM     26  H   UNL     1       1.941  -2.222   6.672  0.00  0.00    +0.145 HD
ATOM     27  H   UNL     1       1.021  -0.964   7.301  0.00  0.00    +0.145 HD
ENDBRANCH   2  23
TORSDOF 2
