REMARK  Name = ZINC43252239
REMARK  6 active torsions:
REMARK  status: ('A' for Active; 'I' for Inactive)
REMARK    1  A    between atoms: C_1  and  C_2
REMARK    2  A    between atoms: C_2  and  C_4
REMARK    3  A    between atoms: C_2  and  N_21
REMARK    4  A    between atoms: C_4  and  C_6
REMARK    5  A    between atoms: C_4  and  N_12
REMARK    6  A    between atoms: C_16  and  C_18
REMARK                            x       y       z     vdW  Elec       q    Type
REMARK                         _______ _______ _______ _____ _____    ______ ____
ROOT
ATOM      1  C   UNL     1       0.781  -1.343   0.392  0.00  0.00    -0.013 C 
ENDROOT
BRANCH   1   2
ATOM      2  C   UNL     1       1.396  -2.700   0.621  0.00  0.00    -0.021 A 
ATOM      3  C   UNL     1       0.800  -3.851   1.015  0.00  0.00    +0.011 A 
ATOM      4  C   UNL     1       1.571  -4.990   1.161  0.00  0.00    +0.028 A 
ATOM      5  C   UNL     1       2.901  -4.920   0.906  0.00  0.00    +0.078 A 
ATOM      6  S   UNL     1       3.097  -3.209   0.435  0.00  0.00    -0.083 S 
ATOM      7 CL   UNL     1       4.100  -6.171   1.004  0.00  0.00    -0.076 Cl
ENDBRANCH   1   2
BRANCH   1   8
ATOM      8  N   UNL     1       1.591  -0.319   1.066  0.00  0.00    +0.393 N 
ATOM      9  C   UNL     1       1.819  -0.698   2.484  0.00  0.00    -0.077 C 
ATOM     10  C   UNL     1       3.083   0.113   2.868  0.00  0.00    -0.020 C 
ATOM     11  C   UNL     1       3.934   0.058   1.579  0.00  0.00    -0.008 C 
ATOM     12  C   UNL     1       2.932  -0.242   0.448  0.00  0.00    +0.020 C 
ATOM     13  H   UNL     1       1.131   0.578   1.014  0.00  0.00    -0.080 HD
BRANCH  12  14
ATOM     14  C   UNL     1       2.964   0.866  -0.573  0.00  0.00    +0.197 C 
ATOM     15  O   UNL     1       2.324   1.879  -0.389  0.00  0.00    -0.278 OA
ATOM     16  N   UNL     1       3.704   0.731  -1.692  0.00  0.00    -0.331 N 
ATOM     17  H   UNL     1       4.216  -0.080  -1.839  0.00  0.00    +0.145 HD
ATOM     18  H   UNL     1       3.724   1.444  -2.349  0.00  0.00    +0.145 HD
ENDBRANCH  12  14
ENDBRANCH   1   8
BRANCH   1  20
ATOM     19  C   UNL     1       0.013   0.277  -1.348  0.00  0.00    +0.022 C 
ATOM     20  C   UNL     1       0.735  -1.051  -1.109  0.00  0.00    +0.039 C 
BRANCH  20  21
ATOM     21  N   UNL     1       0.014  -2.131  -1.796  0.00  0.00    -0.329 NA
ATOM     22  H   UNL     1      -0.086  -1.930  -2.780  0.00  0.00    +0.118 HD
ATOM     23  H   UNL     1       0.471  -3.019  -1.653  0.00  0.00    +0.118 HD
ENDBRANCH  20  21
ENDBRANCH   1  20
TORSDOF 5
