REMARK  Name = ZINC58332024
REMARK  6 active torsions:
REMARK  status: ('A' for Active; 'I' for Inactive)
REMARK    1  A    between atoms: C_1  and  N_2
REMARK    2  A    between atoms: N_9  and  C_12
REMARK    3  A    between atoms: C_12  and  C_13
REMARK    4  A    between atoms: N_15  and  C_16
REMARK    5  A    between atoms: C_16  and  C_17
REMARK    6  A    between atoms: C_17  and  C_18
REMARK                            x       y       z     vdW  Elec       q    Type
REMARK                         _______ _______ _______ _____ _____    ______ ____
ROOT
ATOM      1  C   UNL     1      -1.380  -4.235  -4.341  0.00  0.00    +0.233 C 
ATOM      2  O   UNL     1      -2.307  -3.694  -3.776  0.00  0.00    -0.274 OA
ATOM      3  N   UNL     1      -1.618  -5.170  -5.282  0.00  0.00    -0.314 N 
ATOM      4  H   UNL     1      -0.877  -5.603  -5.733  0.00  0.00    +0.149 HD
ENDROOT
BRANCH   1   5
ATOM      5  C   UNL     1       0.037  -3.861  -3.991  0.00  0.00    +0.221 C 
BRANCH   5  14
ATOM      6  C   UNL     1      -0.018   1.461   0.010  0.00  0.00    +0.174 C 
ATOM      7  N   UNL     1       0.002  -0.004   0.002  0.00  0.00    -0.249 N 
ATOM      8  C   UNL     1       0.008  -0.793  -1.103  0.00  0.00    +0.165 A 
ATOM      9  C   UNL     1       0.029  -2.121  -0.648  0.00  0.00    +0.103 A 
ATOM     10  C   UNL     1       0.035  -2.080   0.759  0.00  0.00    +0.150 A 
ATOM     11  N   UNL     1       0.025  -0.830   1.133  0.00  0.00    -0.177 NA
ATOM     12  C   UNL     1       0.039  -3.192  -1.645  0.00  0.00    +0.265 A 
ATOM     13  O   UNL     1       0.057  -4.364  -1.313  0.00  0.00    -0.267 OA
ATOM     14  N   UNL     1       0.028  -2.831  -2.949  0.00  0.00    -0.290 N 
ATOM     15  C   UNL     1       0.008  -1.520  -3.297  0.00  0.00    +0.204 A 
ATOM     16  N   UNL     1      -0.002  -0.555  -2.424  0.00  0.00    -0.218 NA
ENDBRANCH   5  14
ENDBRANCH   1   5
BRANCH   3  17
ATOM     17  C   UNL     1      -2.996  -5.533  -5.622  0.00  0.00    +0.109 C 
BRANCH  17  18
ATOM     18  C   UNL     1      -2.986  -6.609  -6.710  0.00  0.00    +0.054 C 
BRANCH  18  19
ATOM     19  C   UNL     1      -4.404  -6.982  -7.060  0.00  0.00    -0.040 A 
ATOM     20  C   UNL     1      -5.039  -8.001  -6.375  0.00  0.00    +0.042 A 
ATOM     21  C   UNL     1      -6.341  -8.345  -6.696  0.00  0.00    +0.126 A 
ATOM     22  C   UNL     1      -7.007  -7.668  -7.703  0.00  0.00    +0.076 A 
ATOM     23  C   UNL     1      -6.370  -6.649  -8.389  0.00  0.00    +0.126 A 
ATOM     24  C   UNL     1      -5.069  -6.303  -8.062  0.00  0.00    +0.042 A 
ATOM     25  F   UNL     1      -7.018  -5.987  -9.373  0.00  0.00    -0.205 F 
ATOM     26  F   UNL     1      -6.962  -9.341  -6.026  0.00  0.00    -0.205 F 
ENDBRANCH  18  19
ENDBRANCH  17  18
ENDBRANCH   3  17
TORSDOF 5
