REMARK  Name = ZINC62703858
REMARK  12 active torsions:
REMARK  status: ('A' for Active; 'I' for Inactive)
REMARK    1  A    between atoms: C_1  and  C_2
REMARK    2  A    between atoms: C_2  and  C_3
REMARK    3  A    between atoms: C_3  and  C_4
REMARK    4  A    between atoms: C_3  and  C_5
REMARK    5  A    between atoms: C_3  and  N_6
REMARK    6  A    between atoms: C_7  and  C_9
REMARK    7  A    between atoms: C_9  and  C_11
REMARK    8  A    between atoms: C_9  and  O_12
REMARK    9  A    between atoms: O_12  and  C_13
REMARK   10  A    between atoms: C_16  and  C_20
REMARK   11  A    between atoms: C_20  and  C_21
REMARK   12  A    between atoms: C_21  and  N_22
REMARK                            x       y       z     vdW  Elec       q    Type
REMARK                         _______ _______ _______ _____ _____    ______ ____
ROOT
ATOM      1  C   UNL     1       2.733  -5.858   3.192  0.00  0.00    +0.136 A 
ATOM      2  C   UNL     1       2.613  -6.554   1.998  0.00  0.00    +0.047 A 
ATOM      3  C   UNL     1       3.181  -7.807   1.870  0.00  0.00    +0.007 A 
ATOM      4  C   UNL     1       3.870  -8.367   2.930  0.00  0.00    -0.048 A 
ATOM      5  C   UNL     1       3.992  -7.675   4.121  0.00  0.00    +0.022 A 
ATOM      6  C   UNL     1       3.430  -6.419   4.253  0.00  0.00    +0.060 A 
ATOM      7 BR   UNL     1       3.604  -5.471   5.879  0.00  0.00    -0.047 Br
ENDROOT
BRANCH   1   8
ATOM      8  O   UNL     1       2.174  -4.626   3.320  0.00  0.00    -0.479 OA
BRANCH   8   9
ATOM      9  C   UNL     1       1.582  -4.056   2.151  0.00  0.00    +0.256 C 
ATOM     10  C   UNL     1       0.145  -4.562   2.009  0.00  0.00    +0.062 C 
BRANCH   9  12
ATOM     11  N   UNL     1       1.157  -1.797   1.238  0.00  0.00    -0.307 N 
ATOM     12  C   UNL     1       1.577  -2.554   2.271  0.00  0.00    +0.254 C 
ATOM     13  O   UNL     1       1.951  -2.026   3.297  0.00  0.00    -0.272 OA
ATOM     14  H   UNL     1       0.857  -2.219   0.418  0.00  0.00    +0.149 HD
BRANCH  11  15
ATOM     15  C   UNL     1       1.151  -0.337   1.355  0.00  0.00    +0.029 C 
ATOM     16  C   UNL     1       2.574   0.159   1.621  0.00  0.00    +0.031 C 
ATOM     17  C   UNL     1       0.242   0.079   2.513  0.00  0.00    +0.031 C 
BRANCH  15  19
ATOM     18  C   UNL     1       0.628   1.802   0.175  0.00  0.00    +0.006 C 
ATOM     19  C   UNL     1       0.633   0.277   0.053  0.00  0.00    +0.022 C 
ENDBRANCH  15  19
ENDBRANCH  11  15
ENDBRANCH   9  12
ENDBRANCH   8   9
ENDBRANCH   1   8
BRANCH   4  20
ATOM     20  C   UNL     1       4.489  -9.733   2.787  0.00  0.00    +0.015 C 
BRANCH  20  21
ATOM     21  C   UNL     1       5.920  -9.593   2.263  0.00  0.00    -0.082 C 
BRANCH  21  22
ATOM     22  N   UNL     1       6.523 -10.925   2.123  0.00  0.00    +0.378 N 
ATOM     23  H   UNL     1       7.466 -10.833   1.778  0.00  0.00    -0.090 HD
ATOM     24  H   UNL     1       6.537 -11.384   3.022  0.00  0.00    -0.090 HD
ATOM     25  H   UNL     1       5.979 -11.474   1.474  0.00  0.00    -0.090 HD
ENDBRANCH  21  22
ENDBRANCH  20  21
ENDBRANCH   4  20
TORSDOF 8
