REMARK  Name = ZINC65407629
REMARK  6 active torsions:
REMARK  status: ('A' for Active; 'I' for Inactive)
REMARK    1  A    between atoms: C_1  and  O_2
REMARK    2  A    between atoms: O_2  and  C_3
REMARK    3  A    between atoms: C_3  and  C_4
REMARK    4  A    between atoms: C_13  and  C_15
REMARK    5  A    between atoms: N_17  and  C_18
REMARK    6  A    between atoms: C_18  and  C_21
REMARK                            x       y       z     vdW  Elec       q    Type
REMARK                         _______ _______ _______ _____ _____    ______ ____
ROOT
ATOM      1  C   UNL     1       0.654  -2.038   1.101  0.00  0.00    +0.241 C 
ATOM      2  O   UNL     1       0.106  -2.546   0.146  0.00  0.00    -0.273 OA
ATOM      3  N   UNL     1       1.225  -2.815   2.042  0.00  0.00    -0.298 N 
ATOM      4  C   UNL     1       1.931  -2.392   3.277  0.00  0.00    +0.110 C 
ATOM      5  C   UNL     1       1.434  -3.376   4.358  0.00  0.00    +0.004 C 
ATOM      6  C   UNL     1       0.131  -2.823   4.970  0.00  0.00    -0.077 C 
ATOM      7  N   UNL     1      -0.949  -3.339   4.091  0.00  0.00    +0.380 N 
ATOM      8  C   UNL     1      -0.529  -4.729   3.776  0.00  0.00    -0.065 C 
ATOM      9  C   UNL     1       1.011  -4.646   3.567  0.00  0.00    +0.050 C 
ATOM     10  C   UNL     1       1.291  -4.296   2.093  0.00  0.00    +0.122 C 
ATOM     11  H   UNL     1      -1.832  -3.339   4.579  0.00  0.00    -0.086 HD
ATOM     12  H   UNL     1      -1.010  -2.789   3.247  0.00  0.00    -0.086 HD
ENDROOT
BRANCH   9  13
ATOM     13  C   UNL     1       1.735  -5.884   4.028  0.00  0.00    +0.220 C 
ATOM     14  O   UNL     1       2.546  -5.813   4.927  0.00  0.00    -0.275 OA
ATOM     15  N   UNL     1       1.481  -7.071   3.442  0.00  0.00    -0.305 N 
ATOM     16  H   UNL     1       0.784  -7.141   2.771  0.00  0.00    +0.150 HD
BRANCH  15  17
ATOM     17  C   UNL     1       2.258  -8.255   3.818  0.00  0.00    +0.060 C 
ATOM     18  C   UNL     1       1.486  -9.545   4.101  0.00  0.00    +0.033 C 
ATOM     19  C   UNL     1       2.120  -8.764   5.254  0.00  0.00    +0.033 C 
BRANCH  17  20
ATOM     20  C   UNL     1       3.609  -8.381   3.162  0.00  0.00    -0.024 A 
ATOM     21  C   UNL     1       4.418  -9.465   3.449  0.00  0.00    +0.006 A 
ATOM     22  C   UNL     1       5.657  -9.581   2.847  0.00  0.00    +0.000 A 
ATOM     23  C   UNL     1       6.087  -8.613   1.959  0.00  0.00    +0.000 A 
ATOM     24  C   UNL     1       5.278  -7.530   1.671  0.00  0.00    +0.000 A 
ATOM     25  C   UNL     1       4.037  -7.416   2.270  0.00  0.00    +0.006 A 
ENDBRANCH  17  20
ENDBRANCH  15  17
ENDBRANCH   9  13
BRANCH   1  26
ATOM     26  C   UNL     1       0.696  -0.537   1.235  0.00  0.00    +0.255 C 
BRANCH  26  28
ATOM     27  C   UNL     1       0.012   1.488   0.152  0.00  0.00    +0.194 C 
ATOM     28  O   UNL     1       0.029   0.060   0.122  0.00  0.00    -0.374 OA
ENDBRANCH  26  28
ENDBRANCH   1  26
TORSDOF 5
