REMARK  Name = ZINC06474947
REMARK  3 active torsions:
REMARK  status: ('A' for Active; 'I' for Inactive)
REMARK    1  A    between atoms: C_10  and  C_33
REMARK    2  A    between atoms: C_11  and  C_27
REMARK    3  A    between atoms: C_17  and  C_22
REMARK                            x       y       z     vdW  Elec       q    Type
REMARK                         _______ _______ _______ _____ _____    ______ ____
ROOT
ATOM      1  C   UNL     1       5.386   8.960  -0.326  0.00  0.00    +0.001 A 
ATOM      2  C   UNL     1       5.593   8.232   0.834  0.00  0.00    +0.002 A 
ATOM      3  C   UNL     1       5.223   6.903   0.906  0.00  0.00    +0.024 A 
ATOM      4  C   UNL     1       4.601   6.289  -0.167  0.00  0.00    +0.050 A 
ATOM      5  C   UNL     1       4.524   6.992  -1.386  0.00  0.00    +0.036 A 
ATOM      6  C   UNL     1       4.887   8.337  -1.450  0.00  0.00    +0.013 A 
ATOM      7  C   UNL     1       4.103   6.262  -2.591  0.00  0.00    +0.127 C 
ATOM      8  N   UNL     1       3.826   4.979  -2.482  0.00  0.00    -0.215 NA
ATOM      9  C   UNL     1       3.856   4.337  -1.304  0.00  0.00    +0.146 C 
ATOM     10  C   UNL     1       3.631   2.965  -1.337  0.00  0.00    +0.082 C 
ATOM     11  C   UNL     1       3.599   2.221  -0.020  0.00  0.00    +0.099 C 
ATOM     12  C   UNL     1       3.616   3.075   1.232  0.00  0.00    +0.025 C 
ATOM     13  C   UNL     1       3.820   4.409   1.101  0.00  0.00    +0.025 C 
ATOM     14  N   UNL     1       4.085   4.995  -0.110  0.00  0.00    -0.256 N 
ATOM     15  C   UNL     1       3.688   5.280   2.329  0.00  0.00    +0.061 C 
ATOM     16  C   UNL     1       2.657   4.664   3.281  0.00  0.00    +0.039 C 
ATOM     17  C   UNL     1       3.185   3.292   3.720  0.00  0.00    +0.088 C 
ATOM     18  C   UNL     1       3.459   2.470   2.485  0.00  0.00    +0.162 C 
ATOM     19  O   UNL     1       3.567   1.265   2.605  0.00  0.00    -0.292 OA
ATOM     20  N   UNL     1       3.993   6.896  -3.803  0.00  0.00    -0.343 N 
ATOM     21  H   UNL     1       4.194   7.842  -3.876  0.00  0.00    +0.144 HD
ATOM     22  H   UNL     1       3.713   6.398  -4.587  0.00  0.00    +0.144 HD
ENDROOT
BRANCH  11  23
ATOM     23  C   UNL     1       2.330   1.402  -0.013  0.00  0.00    -0.017 A 
ATOM     24  C   UNL     1       2.389   0.016  -0.021  0.00  0.00    +0.007 A 
ATOM     25  C   UNL     1       1.199  -0.695  -0.013  0.00  0.00    +0.020 A 
ATOM     26  C   UNL     1       0.002  -0.004   0.002  0.00  0.00    +0.111 A 
ATOM     27  N   UNL     1      -0.016   1.314   0.009  0.00  0.00    -0.263 NA
ATOM     28  C   UNL     1       1.096   2.023   0.003  0.00  0.00    +0.115 A 
ENDBRANCH  11  23
BRANCH  16  29
ATOM     29  C   UNL     1       2.492   5.551   4.487  0.00  0.00    -0.006 A 
ATOM     30  C   UNL     1       1.377   6.174   4.943  0.00  0.00    +0.011 A 
ATOM     31  C   UNL     1       1.461   6.948   6.085  0.00  0.00    +0.008 A 
ATOM     32  C   UNL     1       2.655   7.061   6.716  0.00  0.00    +0.045 A 
ATOM     33  S   UNL     1       3.711   6.049   5.693  0.00  0.00    -0.101 S 
ENDBRANCH  16  29
BRANCH  10  34
ATOM     34  C   UNL     1       3.432   2.278  -2.578  0.00  0.00    +0.099 C 
ATOM     35  N   UNL     1       3.275   1.734  -3.563  0.00  0.00    -0.191 NA
ENDBRANCH  10  34
TORSDOF 3
