REMARK  Name = ZINC66887608
REMARK  8 active torsions:
REMARK  status: ('A' for Active; 'I' for Inactive)
REMARK    1  A    between atoms: C_1  and  C_2
REMARK    2  A    between atoms: C_2  and  C_4
REMARK    3  A    between atoms: C_2  and  N_15
REMARK    4  A    between atoms: C_7  and  S_10
REMARK    5  A    between atoms: S_10  and  N_13
REMARK    6  A    between atoms: N_13  and  C_14
REMARK    7  A    between atoms: C_16  and  C_17
REMARK    8  A    between atoms: C_22  and  O_23
REMARK                            x       y       z     vdW  Elec       q    Type
REMARK                         _______ _______ _______ _____ _____    ______ ____
ROOT
ATOM      1  C   UNL     1       0.000   1.535   0.002  0.00  0.00    +0.035 C 
ATOM      2  C   UNL     1       0.009   0.005   0.000  0.00  0.00    +0.106 C 
ENDROOT
BRANCH   2   3
ATOM      3  C   UNL     1      -1.409  -0.506   0.017  0.00  0.00    -0.025 A 
ATOM      4  C   UNL     1      -2.117  -0.540   1.203  0.00  0.00    +0.007 A 
ATOM      5  C   UNL     1      -3.418  -1.008   1.218  0.00  0.00    +0.029 A 
ATOM      6  C   UNL     1      -4.010  -1.442   0.047  0.00  0.00    +0.105 A 
ATOM      7  C   UNL     1      -3.301  -1.407  -1.140  0.00  0.00    +0.029 A 
ATOM      8  C   UNL     1      -2.002  -0.934  -1.156  0.00  0.00    +0.007 A 
BRANCH   6   9
ATOM      9  S   UNL     1      -5.667  -2.040   0.066  0.00  0.00    +0.058 S 
ATOM     10  O   UNL     1      -5.804  -2.895  -1.061  0.00  0.00    -0.153 OA
ATOM     11  O   UNL     1      -5.925  -2.480   1.392  0.00  0.00    -0.153 OA
BRANCH   9  12
ATOM     12  N   UNL     1      -6.659  -0.741  -0.202  0.00  0.00    -0.193 NA
ATOM     13  C   UNL     1      -6.614  -0.037  -1.486  0.00  0.00    +0.127 C 
ATOM     14  H   UNL     1      -7.271  -0.447   0.491  0.00  0.00    +0.148 HD
ENDBRANCH   9  12
ENDBRANCH   6   9
ENDBRANCH   2   3
BRANCH   2  15
ATOM     15  N   UNL     1       0.717  -0.480   1.188  0.00  0.00    -0.383 N 
ATOM     16  C   UNL     1       1.772  -1.218   1.056  0.00  0.00    +0.090 C 
ATOM     17  H   UNL     1       0.394  -0.249   2.073  0.00  0.00    +0.160 HD
BRANCH  16  18
ATOM     18  C   UNL     1       2.547  -1.615   2.245  0.00  0.00    +0.032 A 
ATOM     19  C   UNL     1       3.749  -2.312   2.100  0.00  0.00    +0.013 A 
ATOM     20  C   UNL     1       4.469  -2.680   3.216  0.00  0.00    +0.001 A 
ATOM     21  C   UNL     1       4.007  -2.361   4.482  0.00  0.00    +0.004 A 
ATOM     22  C   UNL     1       2.821  -1.672   4.640  0.00  0.00    +0.046 A 
ATOM     23  C   UNL     1       2.086  -1.289   3.528  0.00  0.00    +0.125 A 
BRANCH  23  24
ATOM     24  O   UNL     1       0.923  -0.606   3.681  0.00  0.00    -0.506 OA
ATOM     25  H   UNL     1       0.143  -1.171   3.760  0.00  0.00    +0.292 HD
ENDBRANCH  23  24
ENDBRANCH  16  18
ENDBRANCH   2  15
TORSDOF 6
