REMARK  Name = ZINC40290622
REMARK  7 active torsions:
REMARK  status: ('A' for Active; 'I' for Inactive)
REMARK    1  A    between atoms: C_1  and  C_2
REMARK    2  A    between atoms: C_5  and  O_9
REMARK    3  A    between atoms: O_9  and  C_10
REMARK    4  A    between atoms: C_11  and  C_18
REMARK    5  A    between atoms: C_12  and  C_17
REMARK    6  A    between atoms: C_13  and  C_16
REMARK    7  A    between atoms: C_18  and  N_19
REMARK                            x       y       z     vdW  Elec       q    Type
REMARK                         _______ _______ _______ _____ _____    ______ ____
ROOT
ATOM      1  C   UNL     1      -0.044  -4.761  -1.219  0.00  0.00    +0.241 A 
ATOM      2  C   UNL     1      -0.141  -6.149  -1.271  0.00  0.00    +0.003 A 
ATOM      3  C   UNL     1      -0.244  -6.747  -2.518  0.00  0.00    -0.021 A 
ATOM      4  C   UNL     1      -0.244  -5.925  -3.636  0.00  0.00    +0.064 A 
ATOM      5  N   UNL     1      -0.148  -4.618  -3.494  0.00  0.00    -0.151 NA
ATOM      6  N   UNL     1      -0.058  -4.060  -2.341  0.00  0.00    -0.111 NA
ATOM      7  C   UNL     1      -0.354  -6.527  -5.014  0.00  0.00    +0.068 C 
ATOM      8  C   UNL     1      -0.352  -8.243  -2.655  0.00  0.00    +0.046 C 
ENDROOT
BRANCH   1   9
ATOM      9  O   UNL     1       0.058  -4.130  -0.022  0.00  0.00    -0.435 OA
BRANCH   9  14
ATOM     10  C   UNL     1       0.104   1.503  -0.001  0.00  0.00    +0.044 C 
ATOM     11  C   UNL     1       0.091  -0.004  -0.007  0.00  0.00    -0.049 A 
ATOM     12  C   UNL     1       1.284  -0.704  -0.019  0.00  0.00    +0.007 A 
ATOM     13  C   UNL     1       1.275  -2.085  -0.025  0.00  0.00    +0.048 A 
ATOM     14  C   UNL     1       0.069  -2.771  -0.017  0.00  0.00    +0.144 A 
ATOM     15  C   UNL     1      -1.127  -2.066  -0.004  0.00  0.00    +0.060 A 
ATOM     16  C   UNL     1      -1.112  -0.684   0.006  0.00  0.00    +0.022 A 
ATOM     17 BR   UNL     1      -2.773  -2.995   0.007  0.00  0.00    -0.046 Br
ENDBRANCH   9  14
ENDBRANCH   1   9
BRANCH   2  18
ATOM     18  C   UNL     1      -0.134  -6.977  -0.012  0.00  0.00    -0.045 C 
BRANCH  18  19
ATOM     19  N   UNL     1      -1.512  -7.152   0.467  0.00  0.00    +0.381 N 
ATOM     20  H   UNL     1      -1.507  -7.706   1.310  0.00  0.00    -0.090 HD
ATOM     21  H   UNL     1      -1.918  -6.249   0.660  0.00  0.00    -0.090 HD
ATOM     22  H   UNL     1      -2.057  -7.621  -0.241  0.00  0.00    -0.090 HD
ENDBRANCH  18  19
ENDBRANCH   2  18
TORSDOF 4
