REMARK  Name = ZINC63626195
REMARK  10 active torsions:
REMARK  status: ('A' for Active; 'I' for Inactive)
REMARK    1  A    between atoms: C_1  and  O_2
REMARK    2  A    between atoms: O_2  and  C_3
REMARK    3  A    between atoms: C_9  and  C_12
REMARK    4  A    between atoms: C_12  and  C_13
REMARK    5  A    between atoms: C_13  and  N_14
REMARK    6  A    between atoms: C_15  and  S_26
REMARK    7  A    between atoms: S_26  and  C_27
REMARK    8  A    between atoms: C_27  and  C_28
REMARK    9  A    between atoms: C_28  and  O_30
REMARK   10  A    between atoms: O_30  and  C_31
REMARK                            x       y       z     vdW  Elec       q    Type
REMARK                         _______ _______ _______ _____ _____    ______ ____
ROOT
ATOM      1  N   UNL     1      -0.759  -6.798   1.434  0.00  0.00    -0.270 N 
ATOM      2  C   UNL     1      -1.300  -8.152   1.319  0.00  0.00    +0.222 C 
ATOM      3  N   UNL     1      -0.368  -9.012   0.581  0.00  0.00    -0.317 N 
ATOM      4  C   UNL     1       0.990  -8.931   0.871  0.00  0.00    +0.041 A 
ATOM      5  C   UNL     1       1.835 -10.015   0.707  0.00  0.00    +0.024 A 
ATOM      6  C   UNL     1       3.180  -9.884   0.998  0.00  0.00    +0.002 A 
ATOM      7  C   UNL     1       3.688  -8.677   1.452  0.00  0.00    +0.001 A 
ATOM      8  C   UNL     1       2.858  -7.589   1.625  0.00  0.00    +0.015 A 
ATOM      9  C   UNL     1       1.499  -7.708   1.340  0.00  0.00    +0.058 A 
ATOM     10  C   UNL     1       0.568  -6.582   1.527  0.00  0.00    +0.250 C 
ATOM     11  O   UNL     1       0.994  -5.468   1.766  0.00  0.00    -0.270 OA
ATOM     12  H   UNL     1      -0.693  -9.625  -0.096  0.00  0.00    +0.149 HD
ENDROOT
BRANCH   1  13
ATOM     13  C   UNL     1      -1.676  -5.655   1.443  0.00  0.00    +0.115 C 
BRANCH  13  14
ATOM     14  C   UNL     1      -1.908  -5.176   0.009  0.00  0.00    +0.052 C 
BRANCH  14  21
ATOM     15  C   UNL     1      -1.200  -0.637   0.010  0.00  0.00    +0.121 A 
ATOM     16  C   UNL     1      -2.375   0.135   0.020  0.00  0.00    +0.047 A 
ATOM     17  C   UNL     1      -3.607  -0.415   0.028  0.00  0.00    +0.029 A 
ATOM     18  C   UNL     1      -3.753  -1.875   0.027  0.00  0.00    +0.043 A 
ATOM     19  N   UNL     1      -4.809  -2.650   0.034  0.00  0.00    -0.380 N 
ATOM     20  C   UNL     1      -4.362  -4.047   0.029  0.00  0.00    +0.144 C 
ATOM     21  C   UNL     1      -2.851  -4.000   0.018  0.00  0.00    -0.040 C 
ATOM     22  C   UNL     1      -2.516  -2.690   0.016  0.00  0.00    +0.002 A 
ATOM     23  C   UNL     1      -1.226  -1.992   0.003  0.00  0.00    +0.055 A 
ATOM     24  H   UNL     1      -5.731  -2.350   0.042  0.00  0.00    +0.160 HD
BRANCH  15  26
ATOM     25  C   UNL     1      -0.017   1.425   0.010  0.00  0.00    +0.277 C 
ATOM     26  O   UNL     1       0.002  -0.004   0.002  0.00  0.00    -0.495 OA
ENDBRANCH  15  26
ENDBRANCH  14  21
ENDBRANCH  13  14
ENDBRANCH   1  13
BRANCH   2  27
ATOM     27  S   UNL     1      -1.559  -8.838   2.978  0.00  0.00    -0.108 S 
BRANCH  27  28
ATOM     28  C   UNL     1       0.095  -8.822   3.722  0.00  0.00    +0.193 C 
BRANCH  28  29
ATOM     29  C   UNL     1       0.021  -9.375   5.122  0.00  0.00    +0.317 C 
ATOM     30  O   UNL     1      -1.039  -9.742   5.572  0.00  0.00    -0.250 OA
BRANCH  29  31
ATOM     31  O   UNL     1       1.132  -9.460   5.870  0.00  0.00    -0.467 OA
ATOM     32  C   UNL     1       0.989  -9.994   7.188  0.00  0.00    +0.280 C 
ENDBRANCH  29  31
ENDBRANCH  28  29
ENDBRANCH  27  28
ENDBRANCH   2  27
TORSDOF 8
