REMARK  Name = ZINC38052296
REMARK  9 active torsions:
REMARK  status: ('A' for Active; 'I' for Inactive)
REMARK    1  A    between atoms: C_1  and  C_2
REMARK    2  A    between atoms: C_2  and  C_3
REMARK    3  A    between atoms: C_2  and  C_4
REMARK    4  A    between atoms: C_4  and  N_5
REMARK    5  A    between atoms: N_5  and  C_6
REMARK    6  A    between atoms: C_6  and  C_8
REMARK    7  A    between atoms: C_6  and  C_17
REMARK    8  A    between atoms: C_11  and  O_15
REMARK    9  A    between atoms: O_15  and  C_16
REMARK                            x       y       z     vdW  Elec       q    Type
REMARK                         _______ _______ _______ _____ _____    ______ ____
ROOT
ATOM      1  C   UNL     1      -2.795  -2.505  -0.105  0.00  0.00    +0.047 C 
ENDROOT
BRANCH   1   2
ATOM      2  C   UNL     1      -2.784  -3.991  -0.360  0.00  0.00    -0.051 A 
ATOM      3  C   UNL     1      -1.813  -4.784   0.223  0.00  0.00    +0.006 A 
ATOM      4  C   UNL     1      -1.801  -6.146  -0.009  0.00  0.00    +0.047 A 
ATOM      5  C   UNL     1      -2.763  -6.718  -0.828  0.00  0.00    +0.134 A 
ATOM      6  C   UNL     1      -3.737  -5.920  -1.412  0.00  0.00    +0.060 A 
ATOM      7  C   UNL     1      -3.748  -4.558  -1.172  0.00  0.00    +0.021 A 
ATOM      8 BR   UNL     1      -5.051  -6.695  -2.530  0.00  0.00    -0.047 Br
BRANCH   5   9
ATOM      9  O   UNL     1      -2.753  -8.057  -1.058  0.00  0.00    -0.494 OA
ATOM     10  C   UNL     1      -1.721  -8.816  -0.424  0.00  0.00    +0.277 C 
ENDBRANCH   5   9
ENDBRANCH   1   2
BRANCH   1  11
ATOM     11  C   UNL     1      -3.421  -2.231   1.237  0.00  0.00    +0.201 C 
ATOM     12  O   UNL     1      -2.783  -1.667   2.100  0.00  0.00    -0.277 OA
ATOM     13  N   UNL     1      -4.691  -2.611   1.479  0.00  0.00    -0.330 N 
ATOM     14  H   UNL     1      -5.202  -3.062   0.788  0.00  0.00    +0.145 HD
ATOM     15  H   UNL     1      -5.095  -2.434   2.343  0.00  0.00    +0.145 HD
ENDBRANCH   1  11
BRANCH   1  16
ATOM     16  N   UNL     1      -1.416  -1.997  -0.116  0.00  0.00    +0.389 N 
ATOM     17  H   UNL     1      -0.970  -2.253  -0.984  0.00  0.00    -0.084 HD
ATOM     18  H   UNL     1      -0.905  -2.397   0.656  0.00  0.00    -0.084 HD
BRANCH  16  19
ATOM     19  C   UNL     1      -1.433  -0.534   0.013  0.00  0.00    -0.078 C 
BRANCH  19  21
ATOM     20  C   UNL     1      -0.019   1.526   0.010  0.00  0.00    +0.005 C 
ATOM     21  C   UNL     1       0.002  -0.004   0.002  0.00  0.00    -0.034 C 
ATOM     22  C   UNL     1       0.742  -0.511   1.242  0.00  0.00    +0.005 C 
ENDBRANCH  19  21
ENDBRANCH  16  19
ENDBRANCH   1  16
TORSDOF 6
