REMARK  Name = ZINC16844607
REMARK  4 active torsions:
REMARK  status: ('A' for Active; 'I' for Inactive)
REMARK    1  A    between atoms: C_4  and  O_21
REMARK    2  A    between atoms: C_5  and  C_7
REMARK    3  A    between atoms: N_8  and  N_9
REMARK    4  A    between atoms: N_9  and  C_10
REMARK                            x       y       z     vdW  Elec       q    Type
REMARK                         _______ _______ _______ _____ _____    ______ ____
ROOT
ATOM      1  N   UNL     1       0.054  -4.239  -0.984  0.00  0.00    -0.221 N 
ATOM      2  H   UNL     1       0.843  -4.747  -1.229  0.00  0.00    +0.176 HD
ENDROOT
BRANCH   1   3
ATOM      3  C   UNL     1       0.018  -2.873  -1.195  0.00  0.00    +0.145 A 
ATOM      4  C   UNL     1      -1.115  -2.142  -0.844  0.00  0.00    +0.115 A 
ATOM      5  C   UNL     1      -1.123  -0.767  -1.068  0.00  0.00    +0.260 A 
ATOM      6  O   UNL     1      -2.101  -0.098  -0.771  0.00  0.00    -0.267 OA
ATOM      7  N   UNL     1      -0.037  -0.184  -1.618  0.00  0.00    -0.268 N 
ATOM      8  C   UNL     1      -0.037   1.161  -1.841  0.00  0.00    +0.096 A 
ATOM      9  C   UNL     1       1.036   1.771  -2.390  0.00  0.00    +0.018 A 
ATOM     10  C   UNL     1       2.170   1.022  -2.740  0.00  0.00    +0.005 A 
ATOM     11  C   UNL     1       2.181  -0.322  -2.522  0.00  0.00    +0.047 A 
ATOM     12  C   UNL     1       1.053  -0.940  -1.949  0.00  0.00    +0.142 A 
ATOM     13  N   UNL     1       1.065  -2.253  -1.735  0.00  0.00    -0.213 NA
ENDBRANCH   1   3
BRANCH   1  15
ATOM     14  C   UNL     1      -0.976  -6.151  -0.117  0.00  0.00    +0.141 C 
ATOM     15  N   UNL     1      -1.049  -4.890  -0.415  0.00  0.00    -0.189 NA
BRANCH  14  20
ATOM     16  C   UNL     1       2.722  -6.764   0.057  0.00  0.00    +0.001 A 
ATOM     17  C   UNL     1       2.782  -8.129  -0.165  0.00  0.00    +0.004 A 
ATOM     18  C   UNL     1       1.625  -8.855  -0.372  0.00  0.00    +0.046 A 
ATOM     19  C   UNL     1       0.394  -8.220  -0.358  0.00  0.00    +0.125 A 
ATOM     20  C   UNL     1       0.328  -6.838  -0.134  0.00  0.00    +0.036 A 
ATOM     21  C   UNL     1       1.506  -6.114   0.068  0.00  0.00    +0.013 A 
BRANCH  19  22
ATOM     22  O   UNL     1      -0.744  -8.932  -0.560  0.00  0.00    -0.506 OA
ATOM     23  H   UNL     1      -1.051  -8.931  -1.477  0.00  0.00    +0.292 HD
ENDBRANCH  19  22
ENDBRANCH  14  20
ENDBRANCH   1  15
TORSDOF 4
