REMARK  Name = ZINC46950620
REMARK  11 active torsions:
REMARK  status: ('A' for Active; 'I' for Inactive)
REMARK    1  A    between atoms: C_1  and  C_2
REMARK    2  A    between atoms: C_2  and  C_3
REMARK    3  A    between atoms: C_3  and  C_4
REMARK    4  A    between atoms: C_3  and  C_6
REMARK    5  A    between atoms: C_3  and  N_22
REMARK    6  A    between atoms: C_4  and  C_5
REMARK    7  A    between atoms: C_6  and  N_7
REMARK    8  A    between atoms: N_10  and  N_11
REMARK    9  A    between atoms: C_12  and  C_14
REMARK   10  A    between atoms: N_22  and  C_23
REMARK   11  A    between atoms: N_22  and  C_24
REMARK                            x       y       z     vdW  Elec       q    Type
REMARK                         _______ _______ _______ _____ _____    ______ ____
ROOT
ATOM      1  N   UNL     1       0.622  -0.069  -3.612  0.00  0.00    -0.300 N 
ATOM      2  C   UNL     1       0.124   0.531  -4.712  0.00  0.00    +0.316 C 
ATOM      3  O   UNL     1      -0.824   1.287  -4.616  0.00  0.00    -0.251 OA
ATOM      4  N   UNL     1       0.677   0.294  -5.918  0.00  0.00    -0.218 N 
ATOM      5  H   UNL     1       1.377  -0.672  -3.689  0.00  0.00    +0.150 HD
ATOM      6  H   UNL     1       0.319   0.726  -6.709  0.00  0.00    +0.174 HD
ENDROOT
BRANCH   4   7
ATOM      7  N   UNL     1       1.769  -0.577  -6.028  0.00  0.00    -0.233 N 
ATOM      8  C   UNL     1       2.322  -0.814  -7.234  0.00  0.00    +0.234 C 
ATOM      9  O   UNL     1       1.874  -0.274  -8.224  0.00  0.00    -0.274 OA
ATOM     10  H   UNL     1       2.127  -1.009  -5.237  0.00  0.00    +0.173 HD
BRANCH   8  11
ATOM     11  C   UNL     1       3.497  -1.751  -7.353  0.00  0.00    +0.099 C 
ATOM     12  C   UNL     1       3.087  -3.148  -6.860  0.00  0.00    +0.037 C 
ATOM     13  C   UNL     1       4.197  -4.155  -7.280  0.00  0.00    +0.166 C 
ATOM     14  S   UNL     1       4.578  -3.546  -8.977  0.00  0.00    -0.030 S 
ATOM     15  O   UNL     1       5.988  -3.509  -9.149  0.00  0.00    -0.174 OA
ATOM     16  O   UNL     1       3.779  -4.255  -9.913  0.00  0.00    -0.174 OA
ATOM     17  C   UNL     1       3.946  -1.826  -8.832  0.00  0.00    +0.178 C 
ENDBRANCH   8  11
ENDBRANCH   4   7
BRANCH   1  18
ATOM     18  C   UNL     1       0.020   0.189  -2.301  0.00  0.00    +0.094 C 
BRANCH  18  19
ATOM     19  C   UNL     1       0.665  -0.724  -1.256  0.00  0.00    -0.051 C 
BRANCH  19  20
ATOM     20  N   UNL     1       0.164  -0.369   0.079  0.00  0.00    +0.381 N 
ATOM     21  C   UNL     1      -1.282  -0.621   0.142  0.00  0.00    -0.096 C 
ATOM     22  C   UNL     1       0.848  -1.185   1.091  0.00  0.00    -0.096 C 
ATOM     23  H   UNL     1       0.344   0.608   0.257  0.00  0.00    -0.082 HD
ENDBRANCH  19  20
BRANCH  19  25
ATOM     24  C   UNL     1       0.941  -2.588  -2.897  0.00  0.00    +0.002 C 
ATOM     25  C   UNL     1       0.311  -2.180  -1.564  0.00  0.00    -0.014 C 
ENDBRANCH  19  25
BRANCH  19  26
ATOM     26  C   UNL     1       2.184  -0.549  -1.294  0.00  0.00    -0.014 C 
ATOM     27  C   UNL     1       2.545   0.875  -0.869  0.00  0.00    +0.002 C 
ENDBRANCH  19  26
ENDBRANCH  18  19
ENDBRANCH   1  18
TORSDOF 7
