REMARK  Name = ZINC53873336
REMARK  6 active torsions:
REMARK  status: ('A' for Active; 'I' for Inactive)
REMARK    1  A    between atoms: C_1  and  C_2
REMARK    2  A    between atoms: C_2  and  N_3
REMARK    3  A    between atoms: N_3  and  C_4
REMARK    4  A    between atoms: C_9  and  C_11
REMARK    5  A    between atoms: C_11  and  N_12
REMARK    6  A    between atoms: C_16  and  C_18
REMARK                            x       y       z     vdW  Elec       q    Type
REMARK                         _______ _______ _______ _____ _____    ______ ____
ROOT
ATOM      1  C   UNL     1      -3.949  -1.412  -0.023  0.00  0.00    -0.077 C 
ENDROOT
BRANCH   1   2
ATOM      2  N   UNL     1      -5.167  -1.917   0.625  0.00  0.00    +0.382 N 
ATOM      3  C   UNL     1      -5.940  -2.732  -0.336  0.00  0.00    -0.078 C 
ATOM      4  C   UNL     1      -7.424  -2.432  -0.005  0.00  0.00    -0.020 C 
ATOM      5  C   UNL     1      -7.367  -0.923   0.350  0.00  0.00    -0.017 C 
ATOM      6  C   UNL     1      -6.004  -0.784   1.061  0.00  0.00    -0.065 C 
ATOM      7  H   UNL     1      -4.918  -2.482   1.423  0.00  0.00    -0.081 HD
BRANCH   6   8
ATOM      8  C   UNL     1      -5.341   0.536   0.662  0.00  0.00    -0.025 C 
ATOM      9  C   UNL     1      -4.228   0.894   1.668  0.00  0.00    +0.002 C 
ATOM     10  C   UNL     1      -4.318   2.434   1.802  0.00  0.00    +0.000 C 
ATOM     11  C   UNL     1      -5.844   2.693   1.757  0.00  0.00    +0.000 C 
ATOM     12  C   UNL     1      -6.369   1.680   0.718  0.00  0.00    +0.002 C 
ENDBRANCH   6   8
ENDBRANCH   1   2
BRANCH   1  17
ATOM     13  C   UNL     1      -1.655  -2.051  -0.829  0.00  0.00    -0.070 C 
ATOM     14  C   UNL     1      -1.463  -2.623  -2.249  0.00  0.00    -0.016 C 
ATOM     15  C   UNL     1      -2.351  -3.892  -2.271  0.00  0.00    -0.001 C 
ATOM     16  C   UNL     1      -3.590  -3.456  -1.450  0.00  0.00    -0.000 C 
ATOM     17  C   UNL     1      -3.007  -2.581  -0.320  0.00  0.00    -0.042 C 
BRANCH  13  18
ATOM     18  N   UNL     1      -1.675  -0.583  -0.876  0.00  0.00    +0.381 N 
ATOM     19  H   UNL     1      -1.919  -0.221   0.033  0.00  0.00    -0.086 HD
ATOM     20  H   UNL     1      -2.356  -0.278  -1.555  0.00  0.00    -0.086 HD
BRANCH  18  22
ATOM     21  C   UNL     1      -0.367   1.441  -1.309  0.00  0.00    -0.017 C 
ATOM     22  C   UNL     1      -0.346  -0.088  -1.260  0.00  0.00    -0.086 C 
ENDBRANCH  18  22
ENDBRANCH  13  18
ENDBRANCH   1  17
TORSDOF 5
