REMARK  Name = ZINC67249021
REMARK  10 active torsions:
REMARK  status: ('A' for Active; 'I' for Inactive)
REMARK    1  A    between atoms: C_1  and  C_2
REMARK    2  A    between atoms: C_2  and  C_4
REMARK    3  A    between atoms: C_2  and  N_18
REMARK    4  A    between atoms: C_7  and  N_11
REMARK    5  A    between atoms: N_14  and  C_17
REMARK    6  A    between atoms: N_18  and  C_19
REMARK    7  A    between atoms: C_19  and  C_20
REMARK    8  A    between atoms: C_23  and  O_27
REMARK    9  A    between atoms: C_24  and  O_26
REMARK   10  A    between atoms: O_27  and  C_28
REMARK                            x       y       z     vdW  Elec       q    Type
REMARK                         _______ _______ _______ _____ _____    ______ ____
ROOT
ATOM      1  C   UNL     1      -0.019   1.526   0.010  0.00  0.00    -0.009 C 
ATOM      2  C   UNL     1       0.002  -0.004   0.002  0.00  0.00    -0.044 C 
ENDROOT
BRANCH   2   3
ATOM      3  C   UNL     1      -1.412  -0.526   0.013  0.00  0.00    -0.059 A 
ATOM      4  C   UNL     1      -2.121  -0.570   1.199  0.00  0.00    +0.004 A 
ATOM      5  C   UNL     1      -3.418  -1.048   1.213  0.00  0.00    +0.026 A 
ATOM      6  C   UNL     1      -4.009  -1.484   0.035  0.00  0.00    +0.065 A 
ATOM      7  C   UNL     1      -3.293  -1.438  -1.157  0.00  0.00    +0.144 A 
ATOM      8  C   UNL     1      -1.998  -0.953  -1.164  0.00  0.00    +0.042 A 
ATOM      9  F   UNL     1      -3.864  -1.861  -2.306  0.00  0.00    -0.204 F 
BRANCH   6  10
ATOM     10  N   UNL     1      -5.321  -1.969   0.046  0.00  0.00    -0.331 N 
ATOM     11  C   UNL     1      -5.598  -3.395   0.273  0.00  0.00    +0.086 C 
ATOM     12  C   UNL     1      -6.656  -3.516   1.374  0.00  0.00    -0.060 C 
ATOM     13  N   UNL     1      -7.835  -2.720   1.008  0.00  0.00    +0.380 N 
ATOM     14  C   UNL     1      -7.480  -1.296   0.955  0.00  0.00    -0.060 C 
ATOM     15  C   UNL     1      -6.463  -1.065  -0.161  0.00  0.00    +0.086 C 
ATOM     16  C   UNL     1      -8.890  -2.923   2.010  0.00  0.00    -0.096 C 
ATOM     17  H   UNL     1      -8.171  -3.016   0.104  0.00  0.00    -0.082 HD
ENDBRANCH   6  10
ENDBRANCH   2   3
BRANCH   2  18
ATOM     18  N   UNL     1       0.713  -0.491   1.192  0.00  0.00    +0.386 N 
ATOM     19  H   UNL     1       0.290  -0.099   2.020  0.00  0.00    -0.085 HD
ATOM     20  H   UNL     1       0.655  -1.497   1.230  0.00  0.00    -0.085 HD
BRANCH  18  21
ATOM     21  C   UNL     1       2.122  -0.083   1.122  0.00  0.00    -0.046 C 
BRANCH  21  22
ATOM     22  C   UNL     1       2.851  -0.582   2.343  0.00  0.00    -0.061 A 
ATOM     23  C   UNL     1       2.914   0.205   3.478  0.00  0.00    +0.005 A 
ATOM     24  C   UNL     1       3.581  -0.249   4.601  0.00  0.00    +0.049 A 
ATOM     25  C   UNL     1       4.189  -1.494   4.590  0.00  0.00    +0.161 A 
ATOM     26  C   UNL     1       4.125  -2.286   3.447  0.00  0.00    +0.159 A 
ATOM     27  C   UNL     1       3.450  -1.827   2.327  0.00  0.00    +0.051 A 
BRANCH  26  28
ATOM     28  O   UNL     1       4.720  -3.509   3.431  0.00  0.00    -0.503 OA
ATOM     29  H   UNL     1       4.145  -4.229   3.723  0.00  0.00    +0.292 HD
ENDBRANCH  26  28
BRANCH  25  30
ATOM     30  O   UNL     1       4.846  -1.942   5.693  0.00  0.00    -0.491 OA
ATOM     31  C   UNL     1       4.871  -1.075   6.829  0.00  0.00    +0.277 C 
ENDBRANCH  25  30
ENDBRANCH  21  22
ENDBRANCH  18  21
ENDBRANCH   2  18
TORSDOF 7
