REMARK  Name = ZINC65457200
REMARK  4 active torsions:
REMARK  status: ('A' for Active; 'I' for Inactive)
REMARK    1  A    between atoms: C_1  and  C_2
REMARK    2  A    between atoms: C_7  and  C_8
REMARK    3  A    between atoms: C_15  and  C_20
REMARK    4  A    between atoms: C_15  and  C_21
REMARK                            x       y       z     vdW  Elec       q    Type
REMARK                         _______ _______ _______ _____ _____    ______ ____
ROOT
ATOM      1  C   UNL     1       0.026  -0.020   2.507  0.00  0.00    +0.140 A 
ATOM      2  N   UNL     1       0.003   1.276   2.676  0.00  0.00    -0.223 NA
ATOM      3  C   UNL     1       0.011   1.555   4.006  0.00  0.00    +0.147 A 
ATOM      4  H   UNL     1       0.056  -1.573   3.905  0.00  0.00    +0.167 HD
ATOM      5  C   UNL     1       0.052   0.366   4.669  0.00  0.00    +0.049 A 
ATOM      6  N   UNL     1       0.045  -0.618   3.733  0.00  0.00    -0.341 N 
ATOM      7  C   UNL     1       0.106   0.133   6.146  0.00  0.00    +0.063 C 
ATOM      8  C   UNL     1      -0.630   1.182   6.936  0.00  0.00    -0.014 C 
ATOM      9  C   UNL     1       0.081   2.506   6.994  0.00  0.00    +0.111 C 
ATOM     10  N   UNL     1      -0.038   3.300   5.801  0.00  0.00    -0.310 N 
ATOM     11  C   UNL     1      -0.037   2.912   4.546  0.00  0.00    +0.264 C 
ATOM     12  O   UNL     1      -0.082   3.805   3.721  0.00  0.00    -0.268 OA
ATOM     13  C   UNL     1      -0.827   0.669   8.364  0.00  0.00    +0.013 C 
ATOM     14  C   UNL     1      -2.007   1.394   6.304  0.00  0.00    +0.013 C 
ATOM     15  H   UNL     1      -0.132   4.255   5.942  0.00  0.00    +0.149 HD
ENDROOT
BRANCH   1  22
ATOM     16  C   UNL     1      -0.018   1.503   0.010  0.00  0.00    +0.046 C 
ATOM     17  C   UNL     1       0.002  -0.004   0.002  0.00  0.00    -0.022 A 
ATOM     18  C   UNL     1       0.006  -0.698  -1.191  0.00  0.00    +0.114 A 
ATOM     19  N   UNL     1       0.024  -2.017  -1.207  0.00  0.00    -0.263 NA
ATOM     20  C   UNL     1       0.039  -2.731  -0.098  0.00  0.00    +0.111 A 
ATOM     21  C   UNL     1       0.036  -2.118   1.139  0.00  0.00    +0.031 A 
ATOM     22  C   UNL     1       0.023  -0.721   1.203  0.00  0.00    +0.023 A 
ENDBRANCH   1  22
TORSDOF 1
