REMARK  Name = ZINC63291215
REMARK  5 active torsions:
REMARK  status: ('A' for Active; 'I' for Inactive)
REMARK    1  A    between atoms: C_1  and  C_2
REMARK    2  A    between atoms: C_7  and  S_12
REMARK    3  A    between atoms: S_12  and  C_13
REMARK    4  A    between atoms: C_13  and  C_14
REMARK    5  A    between atoms: C_16  and  C_27
REMARK                            x       y       z     vdW  Elec       q    Type
REMARK                         _______ _______ _______ _____ _____    ______ ____
ROOT
ATOM      1  C   UNL     1       4.258  -4.812   1.809  0.00  0.00    +0.149 C 
ATOM      2  C   UNL     1       4.322  -5.165   3.310  0.00  0.00    +0.265 C 
ATOM      3  N   UNL     1       4.482  -6.625   3.325  0.00  0.00    -0.154 NA
ATOM      4  N   UNL     1       4.511  -7.082   2.187  0.00  0.00    -0.076 NA
ATOM      5  N   UNL     1       4.392  -6.133   1.164  0.00  0.00    -0.177 N 
ATOM      6  C   UNL     1       4.398  -6.384  -0.206  0.00  0.00    +0.228 A 
ATOM      7  C   UNL     1       4.419  -7.709  -0.836  0.00  0.00    +0.204 A 
ATOM      8  N   UNL     1       4.418  -7.548  -2.130  0.00  0.00    -0.032 NA
ATOM      9  O   UNL     1       4.397  -6.156  -2.394  0.00  0.00    -0.239 OA
ATOM     10  N   UNL     1       4.379  -5.483  -1.148  0.00  0.00    -0.030 NA
ATOM     11  N   UNL     1       4.438  -8.928  -0.167  0.00  0.00    -0.338 N 
ATOM     12  H   UNL     1       4.437  -8.949   0.803  0.00  0.00    +0.144 HD
ATOM     13  H   UNL     1       4.451  -9.757  -0.670  0.00  0.00    +0.144 HD
ENDROOT
BRANCH   2  14
ATOM     14  C   UNL     1       5.506  -4.495   3.959  0.00  0.00    +0.384 C 
ATOM     15  O   UNL     1       5.386  -3.383   4.445  0.00  0.00    -0.244 OA
ATOM     16  O   UNL     1       6.583  -5.064   3.999  0.00  0.00    -0.244 OA
ENDBRANCH   2  14
BRANCH   1  17
ATOM     17  C   UNL     1       2.914  -4.170   1.458  0.00  0.00    +0.100 C 
BRANCH  17  18
ATOM     18  S   UNL     1       1.565  -5.221   2.065  0.00  0.00    -0.113 S 
BRANCH  18  25
ATOM     19  C   UNL     1      -0.028   1.474  -0.073  0.00  0.00    +0.044 C 
ATOM     20  C   UNL     1      -0.010  -0.032  -0.051  0.00  0.00    -0.048 A 
ATOM     21  C   UNL     1      -0.021  -0.726  -1.275  0.00  0.00    +0.005 A 
ATOM     22  C   UNL     1      -0.008  -2.071  -1.347  0.00  0.00    +0.028 A 
ATOM     23  C   UNL     1       0.020  -2.864  -0.111  0.00  0.00    +0.061 A 
ATOM     24  N   UNL     1       0.037  -4.145   0.119  0.00  0.00    -0.355 N 
ATOM     25  C   UNL     1       0.062  -4.331   1.576  0.00  0.00    +0.235 C 
ATOM     26  N   UNL     1       0.057  -2.986   2.165  0.00  0.00    -0.355 N 
ATOM     27  C   UNL     1       0.032  -2.131   1.185  0.00  0.00    +0.061 A 
ATOM     28  C   UNL     1       0.021  -0.662   1.141  0.00  0.00    +0.030 A 
ATOM     29  H   UNL     1       0.034  -4.848  -0.549  0.00  0.00    +0.162 HD
ATOM     30  H   UNL     1       0.069  -2.775   3.111  0.00  0.00    +0.162 HD
ENDBRANCH  18  25
ENDBRANCH  17  18
ENDBRANCH   1  17
TORSDOF 4
