REMARK  Name = ZINC45592262
REMARK  8 active torsions:
REMARK  status: ('A' for Active; 'I' for Inactive)
REMARK    1  A    between atoms: C_1  and  C_2
REMARK    2  A    between atoms: C_5  and  S_7
REMARK    3  A    between atoms: S_7  and  C_8
REMARK    4  A    between atoms: C_8  and  C_9
REMARK    5  A    between atoms: C_9  and  C_10
REMARK    6  A    between atoms: C_10  and  C_11
REMARK    7  A    between atoms: C_10  and  C_12
REMARK    8  A    between atoms: C_10  and  N_15
REMARK                            x       y       z     vdW  Elec       q    Type
REMARK                         _______ _______ _______ _____ _____    ______ ____
ROOT
ATOM      1  C   UNL     1       0.097  -7.501  -1.794  0.00  0.00    +0.005 C 
ATOM      2  C   UNL     1       1.398  -7.207  -2.544  0.00  0.00    -0.001 C 
ENDROOT
BRANCH   1   3
ATOM      3  C   UNL     1      -0.006  -8.981  -1.528  0.00  0.00    +0.199 C 
ATOM      4  O   UNL     1       0.368  -9.434  -0.468  0.00  0.00    -0.278 OA
ATOM      5  N   UNL     1      -0.515  -9.801  -2.470  0.00  0.00    -0.330 N 
ATOM      6  H   UNL     1      -0.814  -9.439  -3.318  0.00  0.00    +0.145 HD
ATOM      7  H   UNL     1      -0.581 -10.754  -2.299  0.00  0.00    +0.145 HD
ENDBRANCH   1   3
BRANCH   1   8
ATOM      8  N   UNL     1      -1.046  -7.069  -2.609  0.00  0.00    +0.387 N 
ATOM      9  H   UNL     1      -0.977  -6.079  -2.787  0.00  0.00    -0.089 HD
ATOM     10  H   UNL     1      -1.043  -7.569  -3.486  0.00  0.00    -0.089 HD
ATOM     11  H   UNL     1      -1.904  -7.263  -2.115  0.00  0.00    -0.089 HD
ENDBRANCH   1   8
BRANCH   1  12
ATOM     12  C   UNL     1       0.091  -6.743  -0.466  0.00  0.00    +0.007 C 
BRANCH  12  13
ATOM     13  C   UNL     1       0.070  -5.237  -0.738  0.00  0.00    +0.075 C 
BRANCH  13  14
ATOM     14  S   UNL     1       0.064  -4.338   0.838  0.00  0.00    -0.097 S 
BRANCH  14  19
ATOM     15  C   UNL     1      -0.018   1.503   0.010  0.00  0.00    +0.075 C 
ATOM     16  C   UNL     1       0.002  -0.004   0.002  0.00  0.00    +0.100 A 
ATOM     17  N   UNL     1       0.010  -0.845  -1.012  0.00  0.00    -0.146 NA
ATOM     18  N   UNL     1       0.027  -2.095  -0.849  0.00  0.00    -0.135 NA
ATOM     19  C   UNL     1       0.039  -2.642   0.360  0.00  0.00    +0.158 A 
ATOM     20  S   UNL     1       0.031  -1.162   1.368  0.00  0.00    -0.044 S 
ENDBRANCH  14  19
ENDBRANCH  13  14
ENDBRANCH  12  13
ENDBRANCH   1  12
TORSDOF 6
