REMARK  Name = ZINC54968836
REMARK  11 active torsions:
REMARK  status: ('A' for Active; 'I' for Inactive)
REMARK    1  A    between atoms: C_1  and  C_2
REMARK    2  A    between atoms: C_2  and  C_3
REMARK    3  A    between atoms: C_11  and  C_19
REMARK    4  A    between atoms: C_12  and  C_14
REMARK    5  A    between atoms: C_14  and  N_15
REMARK    6  A    between atoms: N_15  and  C_16
REMARK    7  A    between atoms: C_16  and  C_17
REMARK    8  A    between atoms: C_16  and  C_18
REMARK    9  A    between atoms: C_19  and  C_20
REMARK   10  A    between atoms: C_19  and  C_21
REMARK   11  A    between atoms: C_19  and  C_22
REMARK                            x       y       z     vdW  Elec       q    Type
REMARK                         _______ _______ _______ _____ _____    ______ ____
ROOT
ATOM      1  C   UNL     1      -1.119  -0.820  -0.302  0.00  0.00    +0.075 C 
ATOM      2  C   UNL     1      -0.774  -2.322  -0.375  0.00  0.00    +0.024 C 
ATOM      3  C   UNL     1      -1.696  -2.836  -1.512  0.00  0.00    +0.021 C 
ATOM      4  C   UNL     1      -1.702  -1.625  -2.478  0.00  0.00    +0.107 C 
ATOM      5  N   UNL     1      -1.699  -0.439  -1.598  0.00  0.00    -0.307 N 
ATOM      6  C   UNL     1      -2.164   0.823  -1.936  0.00  0.00    +0.161 A 
ATOM      7  N   UNL     1      -2.759   1.205  -3.046  0.00  0.00    -0.229 NA
ATOM      8  C   UNL     1      -3.146   2.457  -3.215  0.00  0.00    +0.057 A 
ATOM      9  C   UNL     1      -2.903   3.320  -2.200  0.00  0.00    -0.002 A 
ATOM     10  S   UNL     1      -2.111   2.236  -1.023  0.00  0.00    -0.059 S 
ENDROOT
BRANCH   8  11
ATOM     11  C   UNL     1      -3.828   2.905  -4.482  0.00  0.00    +0.005 C 
ATOM     12  C   UNL     1      -4.104   1.690  -5.370  0.00  0.00    +0.017 C 
ATOM     13  C   UNL     1      -5.149   3.594  -4.134  0.00  0.00    +0.017 C 
ATOM     14  C   UNL     1      -2.922   3.887  -5.229  0.00  0.00    +0.017 C 
ENDBRANCH   8  11
BRANCH   1  16
ATOM     15  C   UNL     1       0.672  -0.313   1.365  0.00  0.00    +0.006 C 
ATOM     16  C   UNL     1       0.150  -0.006  -0.040  0.00  0.00    +0.019 C 
ENDBRANCH   1  16
BRANCH   9  17
ATOM     17  C   UNL     1      -3.219   4.790  -2.091  0.00  0.00    -0.037 C 
BRANCH  17  18
ATOM     18  N   UNL     1      -4.475   4.967  -1.351  0.00  0.00    +0.384 N 
ATOM     19  H   UNL     1      -5.205   4.429  -1.793  0.00  0.00    -0.085 HD
ATOM     20  H   UNL     1      -4.353   4.652  -0.400  0.00  0.00    -0.085 HD
BRANCH  18  21
ATOM     21  C   UNL     1      -4.847   6.388  -1.351  0.00  0.00    -0.078 C 
ATOM     22  C   UNL     1      -6.216   6.558  -0.690  0.00  0.00    -0.014 C 
ATOM     23  C   UNL     1      -3.801   7.189  -0.572  0.00  0.00    -0.014 C 
ENDBRANCH  18  21
ENDBRANCH  17  18
ENDBRANCH   9  17
TORSDOF 5
