REMARK  Name = ZINC20679185
REMARK  6 active torsions:
REMARK  status: ('A' for Active; 'I' for Inactive)
REMARK    1  A    between atoms: C_1  and  N_2
REMARK    2  A    between atoms: N_2  and  C_3
REMARK    3  A    between atoms: N_2  and  C_13
REMARK    4  A    between atoms: C_3  and  C_4
REMARK    5  A    between atoms: N_9  and  C_10
REMARK    6  A    between atoms: C_10  and  C_11
REMARK                            x       y       z     vdW  Elec       q    Type
REMARK                         _______ _______ _______ _____ _____    ______ ____
ROOT
ATOM      1  C   UNL     1      -0.013   1.086   0.008  0.00  0.00    +0.019 C 
ENDROOT
BRANCH   1   2
ATOM      2  C   UNL     1      -0.742   1.585  -1.213  0.00  0.00    +0.204 C 
ATOM      3  O   UNL     1      -1.736   2.268  -1.089  0.00  0.00    -0.277 OA
ATOM      4  N   UNL     1      -0.288   1.272  -2.443  0.00  0.00    -0.242 N 
ATOM      5  C   UNL     1      -0.940   1.719  -3.535  0.00  0.00    +0.306 C 
ATOM      6  O   UNL     1      -1.937   2.403  -3.410  0.00  0.00    -0.252 OA
ATOM      7  N   UNL     1      -0.487   1.406  -4.765  0.00  0.00    -0.296 N 
ATOM      8  H   UNL     1       0.614   0.653  -2.556  0.00  0.00    +0.159 HD
ATOM      9  H   UNL     1       0.415   0.786  -4.878  0.00  0.00    +0.151 HD
BRANCH   7  10
ATOM     10  C   UNL     1      -1.196   1.891  -5.952  0.00  0.00    +0.132 C 
BRANCH  10  11
ATOM     11  C   UNL     1      -0.490   1.405  -7.192  0.00  0.00    -0.016 C 
ATOM     12  C   UNL     1      -1.151   0.731  -8.100  0.00  0.00    +0.005 C 
ENDBRANCH  10  11
ENDBRANCH   7  10
ENDBRANCH   1   2
BRANCH   1  14
ATOM     13  C   UNL     1      -2.034   0.955   1.335  0.00  0.00    -0.095 C 
ATOM     14  N   UNL     1      -0.700   1.560   1.217  0.00  0.00    +0.387 N 
ATOM     15  H   UNL     1      -0.829   2.648   1.127  0.00  0.00    -0.081 HD
BRANCH  14  16
ATOM     16  C   UNL     1       0.104   1.297   2.417  0.00  0.00    -0.046 C 
ATOM     17  C   UNL     1       0.220  -0.219   2.644  0.00  0.00    +0.009 C 
ATOM     18  C   UNL     1       0.781  -0.500   4.058  0.00  0.00    +0.164 C 
ATOM     19  S   UNL     1       0.223   0.969   5.013  0.00  0.00    -0.033 S 
ATOM     20  O   UNL     1       1.363   1.687   5.465  0.00  0.00    -0.174 OA
ATOM     21  O   UNL     1      -0.765   0.562   5.951  0.00  0.00    -0.174 OA
ATOM     22  C   UNL     1      -0.590   1.921   3.662  0.00  0.00    +0.151 C 
ENDBRANCH  14  16
ENDBRANCH   1  14
TORSDOF 5
