REMARK  Name = ZINC41413434
REMARK  5 active torsions:
REMARK  status: ('A' for Active; 'I' for Inactive)
REMARK    1  A    between atoms: C_6  and  C_7
REMARK    2  A    between atoms: C_7  and  C_9
REMARK    3  A    between atoms: C_7  and  C_12
REMARK    4  A    between atoms: C_9  and  C_10
REMARK    5  A    between atoms: C_10  and  N_11
REMARK                            x       y       z     vdW  Elec       q    Type
REMARK                         _______ _______ _______ _____ _____    ______ ____
ROOT
ATOM      1  C   UNL     1      -1.207  -0.834  -0.069  0.00  0.00    +0.020 C 
ENDROOT
BRANCH   1   7
ATOM      2  C   UNL     1       0.484   1.006  -0.194  0.00  0.00    +0.008 A 
ATOM      3  C   UNL     1       1.790   1.454  -0.262  0.00  0.00    +0.050 A 
ATOM      4  C   UNL     1       2.837   0.545  -0.275  0.00  0.00    +0.162 A 
ATOM      5  C   UNL     1       2.569  -0.818  -0.219  0.00  0.00    +0.162 A 
ATOM      6  C   UNL     1       1.257  -1.261  -0.153  0.00  0.00    +0.053 A 
ATOM      7  C   UNL     1       0.218  -0.349  -0.141  0.00  0.00    -0.040 A 
ATOM      8  O   UNL     1       3.582  -1.727  -0.224  0.00  0.00    -0.485 OA
ATOM      9  C   UNL     1       4.862  -1.262  -0.666  0.00  0.00    +0.270 C 
ATOM     10  C   UNL     1       5.149   0.080   0.021  0.00  0.00    +0.270 C 
ATOM     11  O   UNL     1       4.117   1.001  -0.346  0.00  0.00    -0.485 OA
ENDBRANCH   1   7
BRANCH   1  12
ATOM     12  C   UNL     1      -1.972  -0.354  -1.304  0.00  0.00    -0.004 C 
ATOM     13  C   UNL     1      -3.386  -0.939  -1.288  0.00  0.00    +0.004 C 
ATOM     14  C   UNL     1      -4.150  -0.459  -2.523  0.00  0.00    +0.000 C 
ATOM     15  C   UNL     1      -3.421  -0.924  -3.786  0.00  0.00    +0.000 C 
ATOM     16  C   UNL     1      -2.007  -0.340  -3.803  0.00  0.00    +0.000 C 
ATOM     17  C   UNL     1      -1.243  -0.819  -2.567  0.00  0.00    +0.004 C 
ENDBRANCH   1  12
BRANCH   1  18
ATOM     18  C   UNL     1      -1.873  -0.276   1.191  0.00  0.00    -0.011 C 
BRANCH  18  19
ATOM     19  C   UNL     1      -1.179  -0.846   2.429  0.00  0.00    -0.086 C 
BRANCH  19  20
ATOM     20  N   UNL     1      -1.894  -0.409   3.636  0.00  0.00    +0.378 N 
ATOM     21  H   UNL     1      -2.847  -0.740   3.601  0.00  0.00    -0.090 HD
ATOM     22  H   UNL     1      -1.437  -0.785   4.453  0.00  0.00    -0.090 HD
ATOM     23  H   UNL     1      -1.890   0.599   3.683  0.00  0.00    -0.090 HD
ENDBRANCH  19  20
ENDBRANCH  18  19
ENDBRANCH   1  18
TORSDOF 5
