REMARK  Name = ZINC64097937
REMARK  6 active torsions:
REMARK  status: ('A' for Active; 'I' for Inactive)
REMARK    1  A    between atoms: C_1  and  O_2
REMARK    2  A    between atoms: O_2  and  C_3
REMARK    3  A    between atoms: C_10  and  C_18
REMARK    4  A    between atoms: C_20  and  O_38
REMARK    5  A    between atoms: C_22  and  O_37
REMARK    6  A    between atoms: N_24  and  C_27
REMARK                            x       y       z     vdW  Elec       q    Type
REMARK                         _______ _______ _______ _____ _____    ______ ____
ROOT
ATOM      1  C   UNL     1       0.385  -4.173   5.213  0.00  0.00    +0.179 C 
ATOM      2  C   UNL     1       0.710  -2.899   5.935  0.00  0.00    +0.200 C 
ATOM      3  N   UNL     1       0.698  -2.800   7.207  0.00  0.00    -0.204 NA
ATOM      4  C   UNL     1       0.376  -3.895   8.108  0.00  0.00    +0.338 C 
ATOM      5  N   UNL     1      -0.372  -4.951   7.443  0.00  0.00    -0.225 N 
ATOM      6  C   UNL     1      -0.374  -5.103   6.116  0.00  0.00    +0.237 C 
ATOM      7  O   UNL     1      -1.006  -6.017   5.630  0.00  0.00    -0.274 OA
ENDROOT
BRANCH   1  14
ATOM      8  C   UNL     1       0.109  -1.291   0.553  0.00  0.00    +0.121 A 
ATOM      9  C   UNL     1       0.712  -0.329   1.383  0.00  0.00    +0.047 A 
ATOM     10  C   UNL     1       1.460  -0.663   2.456  0.00  0.00    +0.029 A 
ATOM     11  C   UNL     1       1.666  -2.074   2.792  0.00  0.00    +0.043 A 
ATOM     12  N   UNL     1       2.317  -2.656   3.773  0.00  0.00    -0.376 N 
ATOM     13  C   UNL     1       2.269  -4.100   3.567  0.00  0.00    +0.124 C 
ATOM     14  C   UNL     1       1.685  -4.848   4.768  0.00  0.00    +0.101 C 
ATOM     15  N   UNL     1       1.409  -6.235   4.359  0.00  0.00    -0.310 NA
ATOM     16  C   UNL     1       0.340  -6.343   3.362  0.00  0.00    +0.085 C 
ATOM     17  C   UNL     1       0.777  -5.676   2.045  0.00  0.00    +0.048 C 
ATOM     18  C   UNL     1       1.316  -4.308   2.401  0.00  0.00    -0.036 C 
ATOM     19  C   UNL     1       1.023  -3.093   1.923  0.00  0.00    +0.003 A 
ATOM     20  C   UNL     1       0.230  -2.620   0.781  0.00  0.00    +0.055 A 
ATOM     21  H   UNL     1       2.250  -6.691   4.039  0.00  0.00    +0.122 HD
ATOM     22  H   UNL     1       2.754  -2.202   4.510  0.00  0.00    +0.160 HD
BRANCH   8  24
ATOM     23  C   UNL     1      -0.726   0.539  -0.715  0.00  0.00    +0.277 C 
ATOM     24  O   UNL     1      -0.625  -0.872  -0.511  0.00  0.00    -0.495 OA
ENDBRANCH   8  24
ENDBRANCH   1  14
BRANCH   5  25
ATOM     25  C   UNL     1      -1.115  -5.840   8.222  0.00  0.00    +0.048 A 
ATOM     26  C   UNL     1      -2.431  -5.566   8.526  0.00  0.00    +0.024 A 
ATOM     27  C   UNL     1      -3.180  -6.445   9.302  0.00  0.00    +0.002 A 
ATOM     28  C   UNL     1      -2.636  -7.596   9.783  0.00  0.00    +0.008 A 
ATOM     29  C   UNL     1      -1.297  -7.913   9.496  0.00  0.00    -0.016 A 
ATOM     30  C   UNL     1      -0.526  -7.029   8.702  0.00  0.00    +0.004 A 
ATOM     31  C   UNL     1       0.809  -7.350   8.412  0.00  0.00    +0.010 A 
ATOM     32  C   UNL     1       1.344  -8.506   8.892  0.00  0.00    +0.001 A 
ATOM     33  C   UNL     1       0.585  -9.379   9.668  0.00  0.00    +0.001 A 
ATOM     34  C   UNL     1      -0.709  -9.095   9.980  0.00  0.00    +0.008 A 
ENDBRANCH   5  25
BRANCH   4  35
ATOM     35  O   UNL     1       1.591  -4.443   8.625  0.00  0.00    -0.356 OA
ATOM     36  H   UNL     1       2.130  -3.809   9.118  0.00  0.00    +0.214 HD
ENDBRANCH   4  35
BRANCH   2  37
ATOM     37  O   UNL     1       1.029  -1.808   5.207  0.00  0.00    -0.495 OA
ATOM     38  H   UNL     1       1.226  -1.025   5.738  0.00  0.00    +0.293 HD
ENDBRANCH   2  37
TORSDOF 5
