REMARK  Name = ZINC03875485
REMARK  3 active torsions:
REMARK  status: ('A' for Active; 'I' for Inactive)
REMARK    1  A    between atoms: C_2  and  C_3
REMARK    2  A    between atoms: C_3  and  C_4
REMARK    3  A    between atoms: C_4  and  C_13
REMARK                            x       y       z     vdW  Elec       q    Type
REMARK                         _______ _______ _______ _____ _____    ______ ____
ROOT
ATOM      1  C   UNL     1      -3.307   1.388   1.207  0.00  0.00    +0.133 C 
ATOM      2  C   UNL     1      -3.721   2.829   0.978  0.00  0.00    +0.236 C 
ATOM      3  O   UNL     1      -4.344   3.155  -0.009  0.00  0.00    -0.274 OA
ATOM      4  N   UNL     1      -3.369   3.735   1.915  0.00  0.00    -0.239 N 
ATOM      5  C   UNL     1      -2.680   3.392   3.010  0.00  0.00    +0.312 C 
ATOM      6  O   UNL     1      -2.406   4.272   3.801  0.00  0.00    -0.252 OA
ATOM      7  N   UNL     1      -2.272   2.150   3.296  0.00  0.00    -0.239 N 
ATOM      8  C   UNL     1      -2.530   1.107   2.479  0.00  0.00    +0.236 C 
ATOM      9  O   UNL     1      -2.154  -0.013   2.752  0.00  0.00    -0.274 OA
ATOM     10  H   UNL     1      -3.623   4.663   1.791  0.00  0.00    +0.159 HD
ATOM     11  H   UNL     1      -1.777   1.995   4.116  0.00  0.00    +0.159 HD
ENDROOT
BRANCH   1  12
ATOM     12  C   UNL     1      -4.573   0.529   1.224  0.00  0.00    +0.036 C 
ATOM     13  C   UNL     1      -5.463   0.906   2.431  0.00  0.00    +0.013 C 
ATOM     14  C   UNL     1      -6.030  -0.474   2.835  0.00  0.00    +0.027 C 
ATOM     15  C   UNL     1      -5.016  -1.471   2.323  0.00  0.00    -0.031 C 
ATOM     16  C   UNL     1      -4.221  -0.924   1.441  0.00  0.00    -0.026 C 
ENDBRANCH   1  12
BRANCH   1  17
ATOM     17  C   UNL     1      -2.451   0.944   0.019  0.00  0.00    +0.052 C 
BRANCH  17  19
ATOM     18  C   UNL     1      -0.013   1.076   0.008  0.00  0.00    +0.004 C 
ATOM     19  C   UNL     1      -1.156   1.715   0.017  0.00  0.00    -0.033 C 
ENDBRANCH  17  19
ENDBRANCH   1  17
TORSDOF 3
