REMARK  Name = ZINC37989589
REMARK  7 active torsions:
REMARK  status: ('A' for Active; 'I' for Inactive)
REMARK    1  A    between atoms: C_1  and  C_2
REMARK    2  A    between atoms: C_2  and  C_4
REMARK    3  A    between atoms: C_2  and  N_11
REMARK    4  A    between atoms: C_4  and  N_5
REMARK    5  A    between atoms: N_11  and  S_12
REMARK    6  A    between atoms: S_12  and  C_15
REMARK    7  A    between atoms: N_17  and  C_20
REMARK                            x       y       z     vdW  Elec       q    Type
REMARK                         _______ _______ _______ _____ _____    ______ ____
ROOT
ATOM      1  N   UNL     1       0.610  -0.405   1.185  0.00  0.00    +0.470 NA
ENDROOT
BRANCH   1   2
ATOM      2  S   UNL     1      -0.037  -0.016   2.658  0.00  0.00    -0.042 S 
ATOM      3  O   UNL     1      -0.005   1.402   2.755  0.00  0.00    -0.190 OA
ATOM      4  O   UNL     1      -1.241  -0.760   2.782  0.00  0.00    -0.190 OA
BRANCH   2   5
ATOM      5  C   UNL     1       1.063  -0.630   3.890  0.00  0.00    +0.168 A 
ATOM      6  C   UNL     1       1.349  -1.927   4.121  0.00  0.00    +0.150 A 
ATOM      7  N   UNL     1       2.244  -1.956   5.157  0.00  0.00    -0.325 N 
ATOM      8  C   UNL     1       2.474  -0.675   5.523  0.00  0.00    +0.176 A 
ATOM      9  N   UNL     1       1.768   0.112   4.758  0.00  0.00    -0.332 N 
ATOM     10  C   UNL     1       2.841  -3.152   5.756  0.00  0.00    +0.151 C 
ATOM     11 CL   UNL     1       0.707  -3.296   3.269  0.00  0.00    -0.060 Cl
ATOM     12  H   UNL     1       1.754   1.080   4.810  0.00  0.00    +0.168 HD
ENDBRANCH   2   5
ENDBRANCH   1   2
BRANCH   1  14
ATOM     13  C   UNL     1      -0.233   1.500  -0.096  0.00  0.00    -0.021 C 
ATOM     14  C   UNL     1      -0.087  -0.022  -0.046  0.00  0.00    -0.120 C 
BRANCH  14  15
ATOM     15  C   UNL     1       0.718  -0.497  -1.257  0.00  0.00    -0.101 C 
BRANCH  15  16
ATOM     16  N   UNL     1       0.951  -1.944  -1.153  0.00  0.00    +0.379 N 
ATOM     17  C   UNL     1       1.848  -2.373  -2.232  0.00  0.00    -0.079 C 
ATOM     18  C   UNL     1       2.158  -3.864  -2.081  0.00  0.00    -0.019 C 
ATOM     19  C   UNL     1       0.853  -4.661  -2.153  0.00  0.00    -0.004 C 
ATOM     20  C   UNL     1      -0.104  -4.154  -1.070  0.00  0.00    -0.019 C 
ATOM     21  C   UNL     1      -0.330  -2.653  -1.259  0.00  0.00    -0.079 C 
ATOM     22  H   UNL     1       1.376  -2.152  -0.262  0.00  0.00    -0.082 HD
ENDBRANCH  15  16
ENDBRANCH  14  15
ENDBRANCH   1  14
TORSDOF 5
