REMARK  Name = ZINC23220018
REMARK  9 active torsions:
REMARK  status: ('A' for Active; 'I' for Inactive)
REMARK    1  A    between atoms: C_1  and  C_2
REMARK    2  A    between atoms: C_2  and  C_4
REMARK    3  A    between atoms: C_2  and  N_14
REMARK    4  A    between atoms: N_6  and  C_7
REMARK    5  A    between atoms: C_7  and  C_8
REMARK    6  A    between atoms: C_7  and  C_9
REMARK    7  A    between atoms: C_7  and  C_11
REMARK    8  A    between atoms: C_11  and  C_12
REMARK    9  A    between atoms: C_11  and  C_13
REMARK                            x       y       z     vdW  Elec       q    Type
REMARK                         _______ _______ _______ _____ _____    ______ ____
ROOT
ATOM      1  C   UNL     1       0.008   1.526  -0.009  0.00  0.00    -0.004 C 
ATOM      2  C   UNL     1       0.002  -0.004   0.002  0.00  0.00    +0.017 C 
ENDROOT
BRANCH   2   3
ATOM      3  N   UNL     1       0.814  -0.489   1.126  0.00  0.00    +0.390 N 
ATOM      4  C   UNL     1       2.157   0.106   1.056  0.00  0.00    -0.073 C 
ATOM      5  C   UNL     1       2.878  -0.159   2.379  0.00  0.00    +0.017 C 
ATOM      6  C   UNL     1       2.795  -1.625   2.720  0.00  0.00    -0.048 A 
ATOM      7  C   UNL     1       3.659  -2.134   3.676  0.00  0.00    +0.004 A 
ATOM      8  C   UNL     1       3.610  -3.471   4.017  0.00  0.00    +0.000 A 
ATOM      9  C   UNL     1       2.696  -4.305   3.401  0.00  0.00    +0.000 A 
ATOM     10  C   UNL     1       1.836  -3.799   2.447  0.00  0.00    +0.002 A 
ATOM     11  C   UNL     1       1.885  -2.456   2.103  0.00  0.00    -0.061 A 
ATOM     12  C   UNL     1       0.934  -1.948   1.051  0.00  0.00    -0.042 C 
ATOM     13  H   UNL     1       0.374  -0.231   1.997  0.00  0.00    -0.080 HD
ENDBRANCH   2   3
BRANCH   2  14
ATOM     14  C   UNL     1      -1.413  -0.500   0.153  0.00  0.00    +0.200 C 
ATOM     15  O   UNL     1      -1.715  -1.190   1.104  0.00  0.00    -0.278 OA
ATOM     16  N   UNL     1      -2.342  -0.177  -0.768  0.00  0.00    -0.299 N 
ATOM     17  H   UNL     1      -2.100   0.374  -1.528  0.00  0.00    +0.150 HD
BRANCH  16  18
ATOM     18  C   UNL     1      -3.718  -0.659  -0.621  0.00  0.00    +0.121 C 
ATOM     19  C   UNL     1      -3.724  -2.189  -0.610  0.00  0.00    +0.048 C 
BRANCH  18  20
ATOM     20  C   UNL     1      -4.563  -0.154  -1.792  0.00  0.00    +0.020 C 
ATOM     21  C   UNL     1      -5.966  -0.758  -1.705  0.00  0.00    +0.010 C 
ATOM     22  C   UNL     1      -4.660   1.371  -1.730  0.00  0.00    +0.010 C 
ENDBRANCH  18  20
BRANCH  18  23
ATOM     23  C   UNL     1      -4.281  -0.158   0.644  0.00  0.00    +0.088 C 
ATOM     24  N   UNL     1      -4.715   0.229   1.619  0.00  0.00    -0.194 NA
ENDBRANCH  18  23
ENDBRANCH  16  18
ENDBRANCH   2  14
TORSDOF 5
