REMARK  Name = ZINC63386247
REMARK  14 active torsions:
REMARK  status: ('A' for Active; 'I' for Inactive)
REMARK    1  A    between atoms: C_1  and  C_2
REMARK    2  A    between atoms: C_7  and  O_14
REMARK    3  A    between atoms: C_9  and  O_10
REMARK    4  A    between atoms: O_10  and  C_11
REMARK    5  A    between atoms: C_11  and  C_13
REMARK    6  A    between atoms: O_14  and  C_15
REMARK    7  A    between atoms: C_15  and  C_17
REMARK    8  A    between atoms: C_21  and  C_23
REMARK    9  A    between atoms: C_23  and  C_24
REMARK   10  A    between atoms: N_26  and  C_27
REMARK   11  A    between atoms: C_27  and  C_28
REMARK   12  A    between atoms: C_28  and  C_29
REMARK   13  A    between atoms: C_32  and  O_38
REMARK   14  A    between atoms: O_38  and  C_39
REMARK                            x       y       z     vdW  Elec       q    Type
REMARK                         _______ _______ _______ _____ _____    ______ ____
ROOT
ATOM      1  C   UNL     1       0.510   1.918  -0.168  0.00  0.00    +0.013 C 
ATOM      2  C   UNL     1       0.499   0.398   0.005  0.00  0.00    +0.037 C 
ATOM      3  C   UNL     1       0.822  -0.259  -1.313  0.00  0.00    +0.041 A 
ATOM      4  C   UNL     1       1.633  -1.377  -1.393  0.00  0.00    +0.142 A 
ATOM      5  C   UNL     1       1.895  -1.956  -2.630  0.00  0.00    +0.093 A 
ATOM      6  C   UNL     1       1.352  -1.415  -3.784  0.00  0.00    +0.139 A 
ATOM      7  C   UNL     1       0.544  -0.291  -3.705  0.00  0.00    +0.093 A 
ATOM      8  C   UNL     1       0.280   0.285  -2.474  0.00  0.00    +0.142 A 
ATOM      9  O   UNL     1       2.202  -1.931  -0.288  0.00  0.00    -0.425 OA
ATOM     10  C   UNL     1       1.782  -1.492   0.915  0.00  0.00    +0.317 C 
ATOM     11  O   UNL     1       1.607  -2.251   1.839  0.00  0.00    -0.250 OA
ATOM     12  C   UNL     1       1.542  -0.002   1.053  0.00  0.00    +0.114 C 
ENDROOT
BRANCH   8  13
ATOM     13  O   UNL     1      -0.513   1.386  -2.398  0.00  0.00    -0.425 OA
BRANCH  13  14
ATOM     14  C   UNL     1      -1.826   1.204  -2.185  0.00  0.00    +0.309 C 
ATOM     15  O   UNL     1      -2.282   0.086  -2.145  0.00  0.00    -0.251 OA
ATOM     16  C   UNL     1      -2.731   2.394  -1.995  0.00  0.00    +0.136 C 
ENDBRANCH  13  14
ENDBRANCH   8  13
BRANCH   6  17
ATOM     17  O   UNL     1       1.611  -1.984  -4.990  0.00  0.00    -0.426 OA
BRANCH  17  18
ATOM     18  C   UNL     1       0.969  -3.122  -5.302  0.00  0.00    +0.309 C 
ATOM     19  O   UNL     1       0.128  -3.564  -4.556  0.00  0.00    -0.251 OA
ATOM     20  C   UNL     1       1.299  -3.847  -6.581  0.00  0.00    +0.136 C 
ENDBRANCH  17  18
ENDBRANCH   6  17
BRANCH  12  21
ATOM     21  C   UNL     1       2.845   0.760   0.806  0.00  0.00    +0.111 C 
BRANCH  21  22
ATOM     22  C   UNL     1       3.824   0.454   1.910  0.00  0.00    +0.214 C 
ATOM     23  O   UNL     1       3.510  -0.300   2.807  0.00  0.00    -0.276 OA
ATOM     24  N   UNL     1       5.048   1.017   1.901  0.00  0.00    -0.315 N 
ATOM     25  H   UNL     1       5.300   1.620   1.184  0.00  0.00    +0.149 HD
BRANCH  24  26
ATOM     26  C   UNL     1       5.999   0.720   2.975  0.00  0.00    +0.108 C 
BRANCH  26  27
ATOM     27  C   UNL     1       7.303   1.482   2.728  0.00  0.00    +0.052 C 
BRANCH  27  28
ATOM     28  C   UNL     1       8.281   1.175   3.832  0.00  0.00    -0.040 C 
ATOM     29  C   UNL     1       9.255   0.238   3.819  0.00  0.00    +0.002 A 
ATOM     30  C   UNL     1       9.680  -0.742   2.812  0.00  0.00    +0.055 A 
ATOM     31  C   UNL     1      10.713  -1.574   3.086  0.00  0.00    +0.121 A 
ATOM     32  C   UNL     1      11.403  -1.536   4.311  0.00  0.00    +0.047 A 
ATOM     33  C   UNL     1      11.086  -0.671   5.298  0.00  0.00    +0.029 A 
ATOM     34  C   UNL     1       9.983   0.276   5.108  0.00  0.00    +0.043 A 
ATOM     35  N   UNL     1       9.479   1.200   5.887  0.00  0.00    -0.380 N 
ATOM     36  C   UNL     1       8.376   1.860   5.178  0.00  0.00    +0.144 C 
ATOM     37  H   UNL     1       9.785   1.416   6.782  0.00  0.00    +0.160 HD
BRANCH  31  38
ATOM     38  O   UNL     1      11.096  -2.476   2.145  0.00  0.00    -0.495 OA
ATOM     39  C   UNL     1      12.190  -3.334   2.475  0.00  0.00    +0.277 C 
ENDBRANCH  31  38
ENDBRANCH  27  28
ENDBRANCH  26  27
ENDBRANCH  24  26
ENDBRANCH  21  22
ENDBRANCH  12  21
TORSDOF 10
