REMARK  Name = ZINC20573486
REMARK  3 active torsions:
REMARK  status: ('A' for Active; 'I' for Inactive)
REMARK    1  A    between atoms: C_6  and  C_11
REMARK    2  A    between atoms: N_13  and  C_14
REMARK    3  A    between atoms: C_14  and  C_15
REMARK                            x       y       z     vdW  Elec       q    Type
REMARK                         _______ _______ _______ _____ _____    ______ ____
ROOT
ATOM      1  C   UNL     1       6.031  -6.257  -0.087  0.00  0.00    +0.233 C 
ATOM      2  O   UNL     1       4.895  -6.681  -0.078  0.00  0.00    -0.274 OA
ATOM      3  N   UNL     1       7.070  -7.115  -0.101  0.00  0.00    -0.300 N 
ATOM      4  C   UNL     1       8.453  -6.617  -0.106  0.00  0.00    +0.110 C 
ATOM      5  C   UNL     1       9.200  -7.247  -1.286  0.00  0.00    +0.047 C 
ATOM      6  C   UNL     1       9.078  -8.770  -1.206  0.00  0.00    +0.064 C 
ATOM      7  C   UNL     1       7.607  -9.177  -1.291  0.00  0.00    +0.047 C 
ATOM      8  C   UNL     1       6.843  -8.567  -0.107  0.00  0.00    +0.110 C 
ATOM      9  C   UNL     1       9.848  -9.400  -2.336  0.00  0.00    +0.057 A 
ATOM     10  C   UNL     1      11.057  -9.989  -2.183  0.00  0.00    +0.039 A 
ATOM     11  N   UNL     1      11.449 -10.441  -3.374  0.00  0.00    -0.349 N 
ATOM     12  C   UNL     1      10.533 -10.156  -4.264  0.00  0.00    +0.171 A 
ATOM     13  N   UNL     1       9.517  -9.505  -3.650  0.00  0.00    -0.348 N 
ATOM     14  H   UNL     1       8.706  -9.175  -4.069  0.00  0.00    +0.166 HD
ATOM     15  C   UNL     1      11.769 -10.072  -0.856  0.00  0.00    +0.070 C 
ATOM     16  C   UNL     1      11.106  -9.069   0.099  0.00  0.00    +0.088 C 
ATOM     17  N   UNL     1       9.647  -9.242   0.066  0.00  0.00    -0.305 NA
ATOM     18  H   UNL     1       9.210  -8.782   0.851  0.00  0.00    +0.123 HD
ATOM     19  H   UNL     1      12.281 -10.906  -3.553  0.00  0.00    +0.166 HD
ENDROOT
BRANCH   1  20
ATOM     20  C   UNL     1       6.281  -4.771  -0.082  0.00  0.00    +0.200 C 
BRANCH  20  23
ATOM     21  C   UNL     1       4.977  -2.713  -0.059  0.00  0.00    +0.244 C 
ATOM     22  O   UNL     1       6.019  -2.087  -0.066  0.00  0.00    -0.270 OA
ATOM     23  N   UNL     1       5.000  -4.060  -0.066  0.00  0.00    -0.303 N 
ATOM     24  H   UNL     1       4.168  -4.560  -0.060  0.00  0.00    +0.150 HD
BRANCH  21  30
ATOM     25  C   UNL     1      -0.016   1.357   0.009  0.00  0.00    +0.001 A 
ATOM     26  C   UNL     1       1.168   2.091   0.002  0.00  0.00    +0.001 A 
ATOM     27  C   UNL     1       2.378   1.468  -0.013  0.00  0.00    +0.008 A 
ATOM     28  C   UNL     1       2.437   0.063  -0.021  0.00  0.00    -0.017 A 
ATOM     29  C   UNL     1       3.667  -0.611  -0.036  0.00  0.00    +0.021 A 
ATOM     30  C   UNL     1       3.685  -1.996  -0.043  0.00  0.00    +0.037 A 
ATOM     31  C   UNL     1       2.482  -2.725  -0.035  0.00  0.00    +0.013 A 
ATOM     32  C   UNL     1       1.283  -2.090  -0.021  0.00  0.00    +0.009 A 
ATOM     33  C   UNL     1       1.231  -0.684  -0.013  0.00  0.00    -0.018 A 
ATOM     34  C   UNL     1       0.002  -0.004   0.002  0.00  0.00    +0.008 A 
ENDBRANCH  21  30
ENDBRANCH  20  23
ENDBRANCH   1  20
TORSDOF 3
