REMARK  Name = ZINC63899675
REMARK  7 active torsions:
REMARK  status: ('A' for Active; 'I' for Inactive)
REMARK    1  A    between atoms: C_7  and  C_10
REMARK    2  A    between atoms: C_10  and  C_11
REMARK    3  A    between atoms: C_11  and  N_12
REMARK    4  A    between atoms: C_13  and  C_15
REMARK    5  A    between atoms: C_15  and  C_16
REMARK    6  A    between atoms: C_16  and  C_17
REMARK    7  A    between atoms: C_23  and  C_25
REMARK                            x       y       z     vdW  Elec       q    Type
REMARK                         _______ _______ _______ _____ _____    ______ ____
ROOT
ATOM      1  C   UNL     1      -1.986  -7.025  -4.059  0.00  0.00    +0.105 C 
ENDROOT
BRANCH   1   2
ATOM      2  C   UNL     1      -2.927  -8.202  -4.058  0.00  0.00    +0.216 C 
ATOM      3  O   UNL     1      -3.367  -8.625  -3.010  0.00  0.00    -0.276 OA
ATOM      4  N   UNL     1      -3.279  -8.785  -5.221  0.00  0.00    -0.296 N 
ATOM      5  C   UNL     1      -2.816  -8.379  -6.560  0.00  0.00    +0.108 C 
ATOM      6  C   UNL     1      -3.914  -8.884  -7.530  0.00  0.00    +0.021 C 
ATOM      7  C   UNL     1      -4.313 -10.232  -6.873  0.00  0.00    +0.027 C 
ATOM      8  C   UNL     1      -4.184  -9.935  -5.364  0.00  0.00    +0.107 C 
BRANCH   8   9
ATOM      9  C   UNL     1      -3.601 -11.149  -4.639  0.00  0.00    +0.154 C 
ATOM     10  N   UNL     1      -4.379 -12.361  -4.929  0.00  0.00    -0.329 N 
ATOM     11  C   UNL     1      -3.724 -13.408  -5.578  0.00  0.00    +0.042 A 
ATOM     12  C   UNL     1      -4.303 -14.639  -5.935  0.00  0.00    +0.024 A 
ATOM     13  C   UNL     1      -3.571 -15.611  -6.575  0.00  0.00    +0.002 A 
ATOM     14  C   UNL     1      -2.239 -15.411  -6.890  0.00  0.00    +0.001 A 
ATOM     15  C   UNL     1      -1.643 -14.208  -6.550  0.00  0.00    +0.016 A 
ATOM     16  C   UNL     1      -2.377 -13.236  -5.909  0.00  0.00    +0.031 A 
ATOM     17  S   UNL     1      -1.960 -11.605  -5.330  0.00  0.00    -0.099 S 
ATOM     18  H   UNL     1      -5.313 -12.431  -4.677  0.00  0.00    +0.147 HD
ENDBRANCH   8   9
ENDBRANCH   1   2
BRANCH   1  19
ATOM     19  C   UNL     1      -1.752  -6.557  -2.622  0.00  0.00    +0.105 C 
BRANCH  19  21
ATOM     20  N   UNL     1      -0.458  -4.798  -1.460  0.00  0.00    -0.315 N 
ATOM     21  C   UNL     1      -0.811  -5.380  -2.623  0.00  0.00    +0.213 C 
ATOM     22  O   UNL     1      -0.371  -4.957  -3.671  0.00  0.00    -0.276 OA
ATOM     23  H   UNL     1      -0.810  -5.136  -0.622  0.00  0.00    +0.149 HD
BRANCH  20  24
ATOM     24  C   UNL     1       0.457  -3.653  -1.462  0.00  0.00    +0.108 C 
BRANCH  24  25
ATOM     25  C   UNL     1       0.691  -3.186  -0.024  0.00  0.00    +0.052 C 
BRANCH  25  32
ATOM     26  C   UNL     1      -0.016   1.348   0.009  0.00  0.00    +0.001 A 
ATOM     27  C   UNL     1       1.166   2.101   0.002  0.00  0.00    +0.002 A 
ATOM     28  C   UNL     1       2.391   1.535  -0.013  0.00  0.00    +0.026 A 
ATOM     29  C   UNL     1       2.529   0.120  -0.022  0.00  0.00    +0.043 A 
ATOM     30  N   UNL     1       3.587  -0.654  -0.037  0.00  0.00    -0.380 N 
ATOM     31  C   UNL     1       3.143  -2.053  -0.041  0.00  0.00    +0.144 C 
ATOM     32  C   UNL     1       1.631  -2.008  -0.025  0.00  0.00    -0.040 C 
ATOM     33  C   UNL     1       1.295  -0.698  -0.014  0.00  0.00    -0.001 A 
ATOM     34  C   UNL     1       0.002  -0.004   0.002  0.00  0.00    +0.010 A 
ATOM     35  H   UNL     1       4.509  -0.353  -0.045  0.00  0.00    +0.160 HD
ENDBRANCH  25  32
ENDBRANCH  24  25
ENDBRANCH  20  24
ENDBRANCH  19  21
ENDBRANCH   1  19
TORSDOF 7
