REMARK  Name = ZINC49234465
REMARK  4 active torsions:
REMARK  status: ('A' for Active; 'I' for Inactive)
REMARK    1  A    between atoms: C_3  and  N_20
REMARK    2  A    between atoms: C_4  and  S_8
REMARK    3  A    between atoms: S_8  and  N_11
REMARK    4  A    between atoms: C_14  and  C_17
REMARK                            x       y       z     vdW  Elec       q    Type
REMARK                         _______ _______ _______ _____ _____    ______ ____
ROOT
ATOM      1  S   UNL     1       3.932  -0.844  -0.041  0.00  0.00    +0.103 S 
ATOM      2  O   UNL     1       4.736  -0.268   0.980  0.00  0.00    -0.146 OA
ATOM      3  O   UNL     1       3.618  -2.230  -0.072  0.00  0.00    -0.146 OA
ENDROOT
BRANCH   1   7
ATOM      4  C   UNL     1      -0.017   1.379   0.010  0.00  0.00    +0.017 A 
ATOM      5  C   UNL     1       1.169   2.087   0.002  0.00  0.00    +0.026 A 
ATOM      6  C   UNL     1       2.381   1.409  -0.013  0.00  0.00    +0.052 A 
ATOM      7  C   UNL     1       2.397   0.020  -0.021  0.00  0.00    +0.134 A 
ATOM      8  C   UNL     1       1.208  -0.682  -0.013  0.00  0.00    +0.046 A 
ATOM      9  C   UNL     1       0.002  -0.004   0.002  0.00  0.00    +0.020 A 
ATOM     10 BR   UNL     1      -1.624  -0.970   0.012  0.00  0.00    -0.050 Br
BRANCH   6  11
ATOM     11  N   UNL     1       3.582   2.123  -0.021  0.00  0.00    -0.356 N 
ATOM     12  H   UNL     1       3.570   3.093  -0.016  0.00  0.00    +0.142 HD
ATOM     13  H   UNL     1       4.428   1.649  -0.032  0.00  0.00    +0.142 HD
ENDBRANCH   6  11
ENDBRANCH   1   7
BRANCH   1  14
ATOM     14  N   UNL     1       4.673  -0.494  -1.480  0.00  0.00    -0.103 NA
ATOM     15  C   UNL     1       5.843  -1.013  -1.757  0.00  0.00    +0.192 A 
ATOM     16  N   UNL     1       6.627  -0.851  -2.879  0.00  0.00    -0.336 N 
ATOM     17  C   UNL     1       7.824  -1.503  -2.937  0.00  0.00    +0.028 A 
ATOM     18  C   UNL     1       8.215  -2.278  -1.925  0.00  0.00    +0.070 A 
ATOM     19  S   UNL     1       6.855  -2.113  -0.779  0.00  0.00    -0.057 S 
ATOM     20  H   UNL     1       6.334  -0.285  -3.611  0.00  0.00    +0.168 HD
BRANCH  17  21
ATOM     21  C   UNL     1       8.706  -1.348  -4.149  0.00  0.00    +0.036 C 
ATOM     22  C   UNL     1       8.122  -0.616  -5.359  0.00  0.00    +0.010 C 
ATOM     23  C   UNL     1       9.189   0.061  -4.496  0.00  0.00    +0.010 C 
ENDBRANCH  17  21
ENDBRANCH   1  14
TORSDOF 4
