REMARK  Name = ZINC51217517
REMARK  12 active torsions:
REMARK  status: ('A' for Active; 'I' for Inactive)
REMARK    1  A    between atoms: C_1  and  C_2
REMARK    2  A    between atoms: C_2  and  C_4
REMARK    3  A    between atoms: C_2  and  N_7
REMARK    4  A    between atoms: N_7  and  C_8
REMARK    5  A    between atoms: N_7  and  C_9
REMARK    6  A    between atoms: C_9  and  C_10
REMARK    7  A    between atoms: C_10  and  C_15
REMARK    8  A    between atoms: C_15  and  N_16
REMARK    9  A    between atoms: N_16  and  C_17
REMARK   10  A    between atoms: C_17  and  C_18
REMARK   11  A    between atoms: C_17  and  C_19
REMARK   12  A    between atoms: C_17  and  C_20
REMARK                            x       y       z     vdW  Elec       q    Type
REMARK                         _______ _______ _______ _____ _____    ______ ____
ROOT
ATOM      1  C   UNL     1      -2.557  -2.309   0.380  0.00  0.00    -0.059 C 
ATOM      2  C   UNL     1      -3.436  -1.885  -0.815  0.00  0.00    +0.003 C 
ATOM      3  C   UNL     1      -4.782  -1.475  -0.169  0.00  0.00    +0.000 C 
ATOM      4  C   UNL     1      -4.335  -0.769   1.135  0.00  0.00    +0.000 C 
ATOM      5  C   UNL     1      -3.128  -1.599   1.620  0.00  0.00    +0.003 C 
ENDROOT
BRANCH   1   6
ATOM      6  C   UNL     1      -1.109  -1.872   0.146  0.00  0.00    -0.074 C 
BRANCH   6   7
ATOM      7  N   UNL     1      -0.524  -2.674  -0.936  0.00  0.00    +0.380 N 
ATOM      8  C   UNL     1      -1.180  -2.336  -2.206  0.00  0.00    -0.096 C 
ATOM      9  H   UNL     1      -0.659  -3.655  -0.739  0.00  0.00    -0.082 HD
BRANCH   7  11
ATOM     10  C   UNL     1       1.523  -3.223  -2.164  0.00  0.00    -0.013 C 
ATOM     11  C   UNL     1       0.913  -2.388  -1.036  0.00  0.00    -0.069 C 
BRANCH  11  12
ATOM     12  C   UNL     1       1.597  -2.740   0.286  0.00  0.00    -0.025 C 
ATOM     13  C   UNL     1       2.143  -1.586   1.129  0.00  0.00    +0.002 C 
ATOM     14  C   UNL     1       3.107  -2.512   0.384  0.00  0.00    +0.002 C 
ENDBRANCH  11  12
ENDBRANCH   7  11
ENDBRANCH   6   7
ENDBRANCH   1   6
BRANCH   1  15
ATOM     15  C   UNL     1      -2.622  -3.826   0.568  0.00  0.00    -0.077 C 
BRANCH  15  16
ATOM     16  N   UNL     1      -4.016  -4.232   0.791  0.00  0.00    +0.383 N 
ATOM     17  H   UNL     1      -4.371  -3.776   1.617  0.00  0.00    -0.085 HD
ATOM     18  H   UNL     1      -4.575  -3.968  -0.006  0.00  0.00    -0.085 HD
BRANCH  16  19
ATOM     19  C   UNL     1      -4.078  -5.689   0.971  0.00  0.00    -0.077 C 
ATOM     20  C   UNL     1      -3.231  -6.090   2.180  0.00  0.00    -0.011 C 
ATOM     21  C   UNL     1      -5.530  -6.112   1.204  0.00  0.00    -0.011 C 
ATOM     22  C   UNL     1      -3.540  -6.382  -0.282  0.00  0.00    -0.011 C 
ENDBRANCH  16  19
ENDBRANCH  15  16
ENDBRANCH   1  15
TORSDOF 7
