REMARK  Name = ZINC44730047
REMARK  6 active torsions:
REMARK  status: ('A' for Active; 'I' for Inactive)
REMARK    1  A    between atoms: C_1  and  C_2
REMARK    2  A    between atoms: C_4  and  C_8
REMARK    3  A    between atoms: C_5  and  C_7
REMARK    4  A    between atoms: C_8  and  C_10
REMARK    5  A    between atoms: C_8  and  N_11
REMARK    6  A    between atoms: N_11  and  C_12
REMARK                            x       y       z     vdW  Elec       q    Type
REMARK                         _______ _______ _______ _____ _____    ______ ____
ROOT
ATOM      1  N   UNL     1      -2.756  -3.098  -0.587  0.00  0.00    +0.394 N 
ATOM      2  H   UNL     1      -3.248  -2.450   0.009  0.00  0.00    -0.083 HD
ATOM      3  H   UNL     1      -2.639  -2.691  -1.503  0.00  0.00    -0.083 HD
ENDROOT
BRANCH   1   4
ATOM      4  C   UNL     1      -3.527  -4.343  -0.700  0.00  0.00    +0.051 C 
ATOM      5  C   UNL     1      -4.917  -4.059  -1.222  0.00  0.00    -0.013 A 
ATOM      6  C   UNL     1      -5.032  -4.747  -2.423  0.00  0.00    +0.037 A 
ATOM      7  C   UNL     1      -6.226  -4.666  -3.136  0.00  0.00    +0.023 A 
ATOM      8  C   UNL     1      -7.274  -3.912  -2.649  0.00  0.00    +0.003 A 
ATOM      9  C   UNL     1      -7.149  -3.231  -1.452  0.00  0.00    +0.020 A 
ATOM     10  C   UNL     1      -5.964  -3.307  -0.737  0.00  0.00    +0.045 A 
ATOM     11 CL   UNL     1      -5.800  -2.454   0.766  0.00  0.00    -0.083 Cl
ATOM     12  N   UNL     1      -3.848  -5.433  -2.701  0.00  0.00    -0.286 N 
ATOM     13  C   UNL     1      -2.917  -5.253  -1.745  0.00  0.00    +0.208 C 
ATOM     14  O   UNL     1      -1.801  -5.727  -1.724  0.00  0.00    -0.277 OA
ATOM     15  H   UNL     1      -3.712  -5.978  -3.492  0.00  0.00    +0.155 HD
ENDBRANCH   1   4
BRANCH   1  16
ATOM     16  C   UNL     1      -1.437  -3.390  -0.009  0.00  0.00    -0.039 C 
ATOM     17  C   UNL     1      -1.609  -3.892   1.426  0.00  0.00    -0.009 C 
BRANCH  16  21
ATOM     18  C   UNL     1      -0.018   1.503   0.010  0.00  0.00    +0.086 C 
ATOM     19  C   UNL     1       0.002  -0.004   0.002  0.00  0.00    +0.102 A 
ATOM     20  C   UNL     1      -1.078  -0.805   0.003  0.00  0.00    +0.046 A 
ATOM     21  C   UNL     1      -0.601  -2.136  -0.007  0.00  0.00    -0.021 A 
ATOM     22  C   UNL     1       0.742  -2.069  -0.013  0.00  0.00    +0.104 A 
ATOM     23  O   UNL     1       1.102  -0.775  -0.013  0.00  0.00    -0.465 OA
ATOM     24  C   UNL     1       1.684  -3.245  -0.023  0.00  0.00    +0.086 C 
ENDBRANCH  16  21
ENDBRANCH   1  16
TORSDOF 3
