REMARK  Name = ZINC40320417
REMARK  5 active torsions:
REMARK  status: ('A' for Active; 'I' for Inactive)
REMARK    1  A    between atoms: C_1  and  C_2
REMARK    2  A    between atoms: C_4  and  S_10
REMARK    3  A    between atoms: C_6  and  N_9
REMARK    4  A    between atoms: C_7  and  C_8
REMARK    5  A    between atoms: S_10  and  N_13
REMARK                            x       y       z     vdW  Elec       q    Type
REMARK                         _______ _______ _______ _____ _____    ______ ____
ROOT
ATOM      1  S   UNL     1       0.027  -2.937  -2.746  0.00  0.00    +0.061 S 
ATOM      2  O   UNL     1      -0.505  -4.229  -2.485  0.00  0.00    -0.153 OA
ATOM      3  O   UNL     1      -0.540  -2.060  -3.709  0.00  0.00    -0.153 OA
ENDROOT
BRANCH   1   4
ATOM      4  N   UNL     1       1.610  -3.157  -3.181  0.00  0.00    -0.180 NA
ATOM      5  C   UNL     1       2.301  -2.148  -3.994  0.00  0.00    +0.091 C 
ATOM      6  C   UNL     1       3.688  -1.855  -3.396  0.00  0.00    -0.061 C 
ATOM      7  N   UNL     1       4.370  -3.128  -3.209  0.00  0.00    +0.383 N 
ATOM      8  C   UNL     1       5.759  -3.041  -2.753  0.00  0.00    -0.078 C 
ATOM      9  C   UNL     1       6.012  -4.316  -1.912  0.00  0.00    -0.020 C 
ATOM     10  C   UNL     1       4.640  -5.044  -1.864  0.00  0.00    -0.016 C 
ATOM     11  C   UNL     1       3.657  -3.895  -2.153  0.00  0.00    -0.053 C 
ATOM     12  C   UNL     1       2.340  -4.367  -2.749  0.00  0.00    +0.094 C 
ATOM     13  H   UNL     1       4.345  -3.650  -4.072  0.00  0.00    -0.081 HD
ENDBRANCH   1   4
BRANCH   1  17
ATOM     14  C   UNL     1      -0.018   1.503   0.010  0.00  0.00    +0.044 C 
ATOM     15  C   UNL     1       0.002  -0.004   0.002  0.00  0.00    -0.044 A 
ATOM     16  C   UNL     1       0.006  -0.688  -1.200  0.00  0.00    +0.032 A 
ATOM     17  C   UNL     1       0.024  -2.071  -1.212  0.00  0.00    +0.107 A 
ATOM     18  C   UNL     1       0.039  -2.773  -0.023  0.00  0.00    +0.051 A 
ATOM     19  C   UNL     1       0.036  -2.089   1.186  0.00  0.00    +0.030 A 
ATOM     20  C   UNL     1       0.023  -0.700   1.194  0.00  0.00    -0.027 A 
ATOM     21  C   UNL     1       0.025   0.046   2.504  0.00  0.00    +0.046 C 
BRANCH  19  22
ATOM     22  N   UNL     1       0.051  -2.796   2.390  0.00  0.00    -0.358 N 
ATOM     23  H   UNL     1       0.064  -3.766   2.383  0.00  0.00    +0.142 HD
ATOM     24  H   UNL     1       0.049  -2.318   3.234  0.00  0.00    +0.142 HD
ENDBRANCH  19  22
ENDBRANCH   1  17
TORSDOF 3
