REMARK  Name = ZINC58299799
REMARK  5 active torsions:
REMARK  status: ('A' for Active; 'I' for Inactive)
REMARK    1  A    between atoms: C_4  and  C_7
REMARK    2  A    between atoms: C_9  and  C_15
REMARK    3  A    between atoms: C_15  and  N_16
REMARK    4  A    between atoms: N_16  and  C_17
REMARK    5  A    between atoms: C_17  and  C_18
REMARK                            x       y       z     vdW  Elec       q    Type
REMARK                         _______ _______ _______ _____ _____    ______ ____
ROOT
ATOM      1  N   UNL     1       4.498  -0.112  -3.700  0.00  0.00    +0.380 N 
ATOM      2  H   UNL     1       5.330  -0.679  -3.776  0.00  0.00    -0.086 HD
ATOM      3  H   UNL     1       3.708  -0.626  -4.059  0.00  0.00    -0.086 HD
ENDROOT
BRANCH   1   4
ATOM      4  C   UNL     1       4.263   0.226  -2.290  0.00  0.00    -0.076 C 
BRANCH   4   6
ATOM      5  C   UNL     1       3.711  -0.707  -0.038  0.00  0.00    +0.150 C 
ATOM      6  C   UNL     1       4.080  -1.060  -1.481  0.00  0.00    +0.005 C 
ATOM      7  C   UNL     1       5.387  -1.859  -1.485  0.00  0.00    +0.007 C 
ATOM      8  C   UNL     1       5.214  -3.103  -0.609  0.00  0.00    +0.028 C 
ATOM      9  C   UNL     1       4.801  -2.672   0.801  0.00  0.00    +0.160 C 
ATOM     10  O   UNL     1       3.596  -1.907   0.730  0.00  0.00    -0.372 OA
BRANCH   5  14
ATOM     11  C   UNL     1      -0.017   1.378   0.010  0.00  0.00    +0.000 A 
ATOM     12  C   UNL     1       1.171   2.086   0.002  0.00  0.00    +0.000 A 
ATOM     13  C   UNL     1       2.377   1.411  -0.013  0.00  0.00    +0.006 A 
ATOM     14  C   UNL     1       2.396   0.029  -0.020  0.00  0.00    -0.019 A 
ATOM     15  C   UNL     1       1.208  -0.679  -0.012  0.00  0.00    +0.006 A 
ATOM     16  C   UNL     1       0.002  -0.004   0.002  0.00  0.00    +0.000 A 
ENDBRANCH   5  14
ENDBRANCH   4   6
ENDBRANCH   1   4
BRANCH   1  17
ATOM     17  C   UNL     1       4.674   1.122  -4.477  0.00  0.00    -0.076 C 
BRANCH  17  18
ATOM     18  C   UNL     1       4.920   0.769  -5.946  0.00  0.00    +0.010 C 
ATOM     19  C   UNL     1       6.247   0.013  -6.073  0.00  0.00    +0.106 C 
ATOM     20  N   UNL     1       6.430  -0.378  -7.485  0.00  0.00    -0.329 N 
ATOM     21  C   UNL     1       6.117   0.594  -8.437  0.00  0.00    +0.117 A 
ATOM     22  C   UNL     1       6.389   0.621  -9.760  0.00  0.00    +0.064 A 
ATOM     23  C   UNL     1       5.867   1.814 -10.277  0.00  0.00    +0.136 A 
ATOM     24  N   UNL     1       5.302   2.477  -9.296  0.00  0.00    -0.178 NA
ATOM     25  N   UNL     1       5.442   1.732  -8.126  0.00  0.00    -0.251 N 
ATOM     26  C   UNL     1       4.974   2.057  -6.776  0.00  0.00    +0.148 C 
ATOM     27  H   UNL     1       6.749  -1.259  -7.736  0.00  0.00    +0.147 HD
ENDBRANCH  17  18
ENDBRANCH   1  17
TORSDOF 5
