REMARK  Name = ZINC54480950
REMARK  5 active torsions:
REMARK  status: ('A' for Active; 'I' for Inactive)
REMARK    1  A    between atoms: C_1  and  C_2
REMARK    2  A    between atoms: C_2  and  C_3
REMARK    3  A    between atoms: C_2  and  N_12
REMARK    4  A    between atoms: N_15  and  C_16
REMARK    5  A    between atoms: C_21  and  N_22
REMARK                            x       y       z     vdW  Elec       q    Type
REMARK                         _______ _______ _______ _____ _____    ______ ____
ROOT
ATOM      1  N   UNL     1      -1.365  -0.536   0.013  0.00  0.00    -0.290 N 
ATOM      2  C   UNL     1      -2.025  -0.666   1.180  0.00  0.00    +0.304 C 
ATOM      3  O   UNL     1      -1.477  -0.371   2.225  0.00  0.00    -0.252 OA
ATOM      4  N   UNL     1      -3.293  -1.122   1.190  0.00  0.00    -0.267 N 
ATOM      5  H   UNL     1      -1.802  -0.771  -0.821  0.00  0.00    +0.151 HD
ATOM      6  H   UNL     1      -3.759  -1.279   0.354  0.00  0.00    +0.156 HD
ENDROOT
BRANCH   4   7
ATOM      7  C   UNL     1      -3.939  -1.371   2.409  0.00  0.00    +0.073 A 
ATOM      8  C   UNL     1      -3.203  -1.649   3.553  0.00  0.00    +0.028 A 
ATOM      9  C   UNL     1      -3.886  -1.888   4.738  0.00  0.00    +0.019 A 
ATOM     10  C   UNL     1      -5.266  -1.844   4.744  0.00  0.00    +0.084 A 
ATOM     11  N   UNL     1      -5.943  -1.578   3.642  0.00  0.00    -0.348 N 
ATOM     12  C   UNL     1      -5.333  -1.338   2.493  0.00  0.00    +0.121 A 
ATOM     13  H   UNL     1      -6.912  -1.554   3.677  0.00  0.00    +0.167 HD
BRANCH  12  14
ATOM     14  N   UNL     1      -6.087  -1.056   1.357  0.00  0.00    -0.311 N 
ATOM     15  C   UNL     1      -6.639  -2.138   0.527  0.00  0.00    +0.134 C 
ATOM     16  C   UNL     1      -8.132  -1.865   0.308  0.00  0.00    +0.178 C 
ATOM     17  O   UNL     1      -8.300  -0.535  -0.188  0.00  0.00    -0.377 OA
ATOM     18  C   UNL     1      -7.861   0.485   0.713  0.00  0.00    +0.178 C 
ATOM     19  C   UNL     1      -6.359   0.333   0.955  0.00  0.00    +0.134 C 
ENDBRANCH  12  14
ENDBRANCH   4   7
BRANCH   1  21
ATOM     20  C   UNL     1       0.005   1.490  -0.002  0.00  0.00    +0.036 C 
ATOM     21  C   UNL     1       0.014  -0.040   0.002  0.00  0.00    +0.137 C 
BRANCH  21  22
ATOM     22  C   UNL     1       0.719  -0.541  -1.232  0.00  0.00    +0.126 A 
ATOM     23  C   UNL     1       1.986  -0.975  -1.269  0.00  0.00    +0.055 A 
ATOM     24  C   UNL     1       2.246  -1.361  -2.661  0.00  0.00    +0.020 A 
ATOM     25  C   UNL     1       3.349  -1.877  -3.340  0.00  0.00    +0.011 A 
ATOM     26  C   UNL     1       3.261  -2.134  -4.680  0.00  0.00    +0.001 A 
ATOM     27  C   UNL     1       2.081  -1.886  -5.367  0.00  0.00    +0.004 A 
ATOM     28  C   UNL     1       0.980  -1.376  -4.712  0.00  0.00    +0.047 A 
ATOM     29  C   UNL     1       1.049  -1.107  -3.351  0.00  0.00    +0.135 A 
ATOM     30  O   UNL     1       0.165  -0.624  -2.455  0.00  0.00    -0.458 OA
ENDBRANCH  21  22
ENDBRANCH   1  21
TORSDOF 4
