REMARK  Name = ZINC53631727
REMARK  10 active torsions:
REMARK  status: ('A' for Active; 'I' for Inactive)
REMARK    1  A    between atoms: C_1  and  C_2
REMARK    2  A    between atoms: C_2  and  C_3
REMARK    3  A    between atoms: C_3  and  C_4
REMARK    4  A    between atoms: N_6  and  C_22
REMARK    5  A    between atoms: C_10  and  C_11
REMARK    6  A    between atoms: C_10  and  N_13
REMARK    7  A    between atoms: C_11  and  C_12
REMARK    8  A    between atoms: N_13  and  C_14
REMARK    9  A    between atoms: C_14  and  C_15
REMARK   10  A    between atoms: C_15  and  C_16
REMARK                            x       y       z     vdW  Elec       q    Type
REMARK                         _______ _______ _______ _____ _____    ______ ____
ROOT
ATOM      1  C   UNL     1       0.739  -2.004  -1.265  0.00  0.00    +0.073 C 
ATOM      2  N   UNL     1       0.230  -2.783  -0.361  0.00  0.00    -0.179 NA
ATOM      3  N   UNL     1       0.425  -4.126  -0.679  0.00  0.00    -0.158 N 
ATOM      4  C   UNL     1       1.093  -4.234  -1.846  0.00  0.00    +0.271 C 
ATOM      5  O   UNL     1       1.425  -5.263  -2.409  0.00  0.00    -0.268 OA
ATOM      6  C   UNL     1       1.334  -2.859  -2.303  0.00  0.00    +0.078 C 
ATOM      7  C   UNL     1       1.982  -2.457  -3.458  0.00  0.00    +0.018 C 
ENDROOT
BRANCH   3   8
ATOM      8  C   UNL     1      -0.029  -5.257   0.135  0.00  0.00    +0.249 C 
ATOM      9  N   UNL     1      -1.478  -5.195   0.364  0.00  0.00    -0.315 N 
ATOM     10  C   UNL     1      -1.918  -5.071   1.681  0.00  0.00    +0.043 A 
ATOM     11  C   UNL     1      -3.261  -4.997   2.092  0.00  0.00    +0.024 A 
ATOM     12  C   UNL     1      -3.594  -4.875   3.421  0.00  0.00    +0.002 A 
ATOM     13  C   UNL     1      -2.618  -4.821   4.399  0.00  0.00    +0.001 A 
ATOM     14  C   UNL     1      -1.287  -4.893   4.024  0.00  0.00    +0.016 A 
ATOM     15  C   UNL     1      -0.955  -5.014   2.693  0.00  0.00    +0.032 A 
ATOM     16  S   UNL     1       0.609  -5.131   1.854  0.00  0.00    -0.080 S 
ATOM     17  H   UNL     1      -2.107  -5.238  -0.374  0.00  0.00    +0.149 HD
ENDBRANCH   3   8
BRANCH   7  18
ATOM     18  C   UNL     1       2.532  -3.486  -4.412  0.00  0.00    +0.048 C 
ATOM     19  C   UNL     1       1.508  -3.755  -5.517  0.00  0.00    +0.010 C 
ENDBRANCH   7  18
BRANCH   7  20
ATOM     20  N   UNL     1       2.123  -1.143  -3.729  0.00  0.00    -0.346 N 
ATOM     21  H   UNL     1       1.769  -0.480  -3.115  0.00  0.00    +0.146 HD
BRANCH  20  22
ATOM     22  C   UNL     1       2.809  -0.717  -4.951  0.00  0.00    +0.107 C 
BRANCH  22  23
ATOM     23  C   UNL     1       2.831   0.812  -5.017  0.00  0.00    +0.073 C 
BRANCH  23  24
ATOM     24  C   UNL     1       3.537   1.250  -6.274  0.00  0.00    +0.035 A 
ATOM     25  H   UNL     1       3.872   1.981  -9.289  0.00  0.00    +0.166 HD
ATOM     26  C   UNL     1       2.977   1.380  -7.492  0.00  0.00    +0.105 A 
ATOM     27  N   UNL     1       3.966   1.799  -8.341  0.00  0.00    -0.352 N 
ATOM     28  C   UNL     1       5.097   1.910  -7.611  0.00  0.00    +0.171 A 
ATOM     29  N   UNL     1       4.831   1.585  -6.375  0.00  0.00    -0.350 N 
ATOM     30  H   UNL     1       5.470   1.584  -5.645  0.00  0.00    +0.166 HD
ENDBRANCH  23  24
ENDBRANCH  22  23
ENDBRANCH  20  22
ENDBRANCH   7  20
BRANCH   1  31
ATOM     31  C   UNL     1       0.718  -0.497  -1.257  0.00  0.00    +0.057 C 
BRANCH  31  33
ATOM     32  C   UNL     1      -0.019   1.526   0.010  0.00  0.00    +0.004 C 
ATOM     33  C   UNL     1       0.002  -0.004   0.002  0.00  0.00    +0.003 C 
ENDBRANCH  31  33
ENDBRANCH   1  31
TORSDOF 8
