REMARK  Name = ZINC52546881
REMARK  10 active torsions:
REMARK  status: ('A' for Active; 'I' for Inactive)
REMARK    1  A    between atoms: C_1  and  C_2
REMARK    2  A    between atoms: C_8  and  N_10
REMARK    3  A    between atoms: N_10  and  C_11
REMARK    4  A    between atoms: N_10  and  C_12
REMARK    5  A    between atoms: C_12  and  C_13
REMARK    6  A    between atoms: C_16  and  C_19
REMARK    7  A    between atoms: C_19  and  N_20
REMARK    8  A    between atoms: N_20  and  C_21
REMARK    9  A    between atoms: C_21  and  C_22
REMARK   10  A    between atoms: C_21  and  C_23
REMARK                            x       y       z     vdW  Elec       q    Type
REMARK                         _______ _______ _______ _____ _____    ______ ____
ROOT
ATOM      1  C   UNL     1       4.179   0.144  -0.051  0.00  0.00    -0.064 A 
ATOM      2  C   UNL     1       4.358   1.353  -0.697  0.00  0.00    +0.002 A 
ATOM      3  C   UNL     1       5.616   1.921  -0.764  0.00  0.00    +0.002 A 
ATOM      4  C   UNL     1       6.696   1.281  -0.185  0.00  0.00    -0.064 A 
ATOM      5  C   UNL     1       6.517   0.073   0.462  0.00  0.00    +0.002 A 
ATOM      6  C   UNL     1       5.258  -0.494   0.533  0.00  0.00    +0.002 A 
ENDROOT
BRANCH   1   7
ATOM      7  C   UNL     1       2.808  -0.476   0.022  0.00  0.00    -0.043 C 
BRANCH   7   8
ATOM      8  N   UNL     1       2.120  -0.002   1.231  0.00  0.00    +0.383 N 
ATOM      9  C   UNL     1       2.831  -0.489   2.421  0.00  0.00    -0.095 C 
ATOM     10  H   UNL     1       2.107   1.006   1.237  0.00  0.00    -0.081 HD
BRANCH   8  17
ATOM     11  C   UNL     1      -0.019   1.526   0.010  0.00  0.00    +0.006 C 
ATOM     12  C   UNL     1       0.002  -0.004   0.002  0.00  0.00    -0.028 C 
ATOM     13  C   UNL     1      -1.433  -0.534   0.013  0.00  0.00    +0.002 C 
ATOM     14  C   UNL     1      -2.149  -0.040   1.272  0.00  0.00    +0.000 C 
ATOM     15  C   UNL     1      -1.409  -0.547   2.511  0.00  0.00    -0.002 C 
ATOM     16  C   UNL     1       0.026  -0.018   2.500  0.00  0.00    -0.015 C 
ATOM     17  C   UNL     1       0.742  -0.511   1.242  0.00  0.00    -0.066 C 
ENDBRANCH   8  17
ENDBRANCH   7   8
ENDBRANCH   1   7
BRANCH   4  18
ATOM     18  C   UNL     1       8.068   1.901  -0.259  0.00  0.00    -0.046 C 
BRANCH  18  19
ATOM     19  N   UNL     1       8.274   2.773   0.905  0.00  0.00    +0.383 N 
ATOM     20  H   UNL     1       7.576   3.502   0.907  0.00  0.00    -0.085 HD
ATOM     21  H   UNL     1       8.196   2.230   1.751  0.00  0.00    -0.085 HD
BRANCH  19  22
ATOM     22  C   UNL     1       9.611   3.377   0.833  0.00  0.00    -0.078 C 
ATOM     23  C   UNL     1       9.780   4.380   1.975  0.00  0.00    -0.014 C 
ATOM     24  C   UNL     1      10.673   2.282   0.954  0.00  0.00    -0.014 C 
ENDBRANCH  19  22
ENDBRANCH  18  19
ENDBRANCH   4  18
TORSDOF 6
