REMARK  Name = ZINC59793168
REMARK  9 active torsions:
REMARK  status: ('A' for Active; 'I' for Inactive)
REMARK    1  A    between atoms: C_3  and  N_34
REMARK    2  A    between atoms: C_6  and  C_7
REMARK    3  A    between atoms: C_10  and  S_13
REMARK    4  A    between atoms: S_13  and  C_14
REMARK    5  A    between atoms: C_14  and  C_15
REMARK    6  A    between atoms: C_15  and  C_16
REMARK    7  A    between atoms: N_18  and  C_19
REMARK    8  A    between atoms: C_22  and  S_25
REMARK    9  A    between atoms: S_25  and  N_28
REMARK                            x       y       z     vdW  Elec       q    Type
REMARK                         _______ _______ _______ _____ _____    ______ ____
ROOT
ATOM      1  C   UNL     1      -0.971  -7.466  -0.031  0.00  0.00    +0.218 C 
ATOM      2  O   UNL     1       0.128  -6.953  -0.048  0.00  0.00    -0.275 OA
ATOM      3  N   UNL     1      -1.088  -8.809  -0.035  0.00  0.00    -0.285 N 
ATOM      4  H   UNL     1      -1.963  -9.220   0.045  0.00  0.00    +0.155 HD
ENDROOT
BRANCH   3   5
ATOM      5  C   UNL     1       0.053  -9.610  -0.157  0.00  0.00    +0.033 A 
ATOM      6  C   UNL     1      -0.008 -10.804  -0.864  0.00  0.00    +0.025 A 
ATOM      7  C   UNL     1       1.120 -11.593  -0.982  0.00  0.00    +0.030 A 
ATOM      8  C   UNL     1       2.308 -11.195  -0.397  0.00  0.00    +0.106 A 
ATOM      9  C   UNL     1       2.371 -10.007   0.308  0.00  0.00    +0.030 A 
ATOM     10  C   UNL     1       1.249  -9.211   0.425  0.00  0.00    +0.025 A 
BRANCH   8  11
ATOM     11  S   UNL     1       3.744 -12.204  -0.550  0.00  0.00    +0.061 S 
ATOM     12  O   UNL     1       4.587 -11.880   0.547  0.00  0.00    -0.153 OA
ATOM     13  O   UNL     1       3.287 -13.527  -0.794  0.00  0.00    -0.153 OA
BRANCH  11  14
ATOM     14  N   UNL     1       4.540 -11.719  -1.919  0.00  0.00    -0.172 NA
ATOM     15  C   UNL     1       4.241 -12.327  -3.225  0.00  0.00    +0.137 C 
ATOM     16  C   UNL     1       3.985 -11.203  -4.235  0.00  0.00    +0.177 C 
ATOM     17  O   UNL     1       5.077 -10.281  -4.199  0.00  0.00    -0.377 OA
ATOM     18  C   UNL     1       5.246  -9.623  -2.941  0.00  0.00    +0.177 C 
ATOM     19  C   UNL     1       5.563 -10.662  -1.866  0.00  0.00    +0.137 C 
ENDBRANCH  11  14
ENDBRANCH   8  11
ENDBRANCH   3   5
BRANCH   1  20
ATOM     20  C   UNL     1      -2.205  -6.602  -0.005  0.00  0.00    +0.107 C 
BRANCH  20  21
ATOM     21  C   UNL     1      -1.796  -5.128  -0.005  0.00  0.00    +0.086 C 
BRANCH  21  22
ATOM     22  S   UNL     1      -3.282  -4.088   0.026  0.00  0.00    -0.086 S 
BRANCH  22  26
ATOM     23  C   UNL     1      -1.272  -0.766   0.007  0.00  0.00    +0.182 A 
ATOM     24  N   UNL     1      -1.381  -2.103   0.002  0.00  0.00    -0.201 NA
ATOM     25  H   UNL     1      -4.355  -1.247   0.059  0.00  0.00    +0.191 HD
ATOM     26  C   UNL     1      -2.651  -2.443   0.023  0.00  0.00    +0.185 A 
ATOM     27  N   UNL     1      -3.388  -1.310   0.042  0.00  0.00    -0.253 N 
ATOM     28  N   UNL     1      -2.476  -0.242   0.036  0.00  0.00    -0.152 NA
BRANCH  23  34
ATOM     29  C   UNL     1      -0.018   1.389  -0.005  0.00  0.00    +0.014 A 
ATOM     30  C   UNL     1       1.169   2.093  -0.022  0.00  0.00    +0.033 A 
ATOM     31  C   UNL     1       2.376   1.418  -0.046  0.00  0.00    +0.126 A 
ATOM     32  C   UNL     1       2.401   0.035  -0.053  0.00  0.00    +0.033 A 
ATOM     33  C   UNL     1       1.220  -0.679  -0.036  0.00  0.00    +0.014 A 
ATOM     34  C   UNL     1       0.001  -0.004  -0.012  0.00  0.00    +0.021 A 
BRANCH  31  35
ATOM     35  N   UNL     1       3.646   2.179  -0.065  0.00  0.00    +0.056 N 
ATOM     36  O   UNL     1       3.627   3.387  -0.059  0.00  0.00    -0.126 OA
ATOM     37  O   UNL     1       4.702   1.591  -0.086  0.00  0.00    -0.126 OA
ENDBRANCH  31  35
ENDBRANCH  23  34
ENDBRANCH  22  26
ENDBRANCH  21  22
ENDBRANCH  20  21
ENDBRANCH   1  20
TORSDOF 9
