REMARK  Name = ZINC20680367
REMARK  7 active torsions:
REMARK  status: ('A' for Active; 'I' for Inactive)
REMARK    1  A    between atoms: C_1  and  C_2
REMARK    2  A    between atoms: C_2  and  C_3
REMARK    3  A    between atoms: C_3  and  C_5
REMARK    4  A    between atoms: C_3  and  N_6
REMARK    5  A    between atoms: C_7  and  C_9
REMARK    6  A    between atoms: C_22  and  C_25
REMARK    7  A    between atoms: C_28  and  O_31
REMARK                            x       y       z     vdW  Elec       q    Type
REMARK                         _______ _______ _______ _____ _____    ______ ____
ROOT
ATOM      1  C   UNL     1       1.251   2.099   0.001  0.00  0.00    +0.037 A 
ATOM      2  C   UNL     1       2.472   1.416  -0.008  0.00  0.00    +0.015 A 
ATOM      3  C   UNL     1       3.648   2.129  -0.022  0.00  0.00    +0.024 A 
ATOM      4  C   UNL     1       3.622   3.523  -0.015  0.00  0.00    +0.031 A 
ATOM      5  C   UNL     1       2.417   4.209   0.003  0.00  0.00    -0.019 A 
ATOM      6  C   UNL     1       1.233   3.493   0.009  0.00  0.00    +0.019 A 
ATOM      7  C   UNL     1       2.333   5.712   0.021  0.00  0.00    +0.049 C 
ATOM      8  C   UNL     1       1.587   6.112   1.286  0.00  0.00    -0.023 C 
ATOM      9  C   UNL     1       2.433   6.417   2.239  0.00  0.00    -0.030 C 
ATOM     10  C   UNL     1       3.861   6.269   1.747  0.00  0.00    +0.033 C 
ATOM     11  C   UNL     1       3.710   6.373   0.211  0.00  0.00    +0.029 C 
ATOM     12  C   UNL     1       4.813   5.609  -0.498  0.00  0.00    +0.105 C 
ATOM     13  N   UNL     1       4.829   4.220  -0.027  0.00  0.00    -0.336 N 
ATOM     14  H   UNL     1       5.774   3.761   0.301  0.00  0.00    +0.147 HD
ENDROOT
BRANCH  12  15
ATOM     15  C   UNL     1       4.564   5.632  -1.985  0.00  0.00    -0.027 A 
ATOM     16  C   UNL     1       3.653   4.756  -2.546  0.00  0.00    +0.009 A 
ATOM     17  C   UNL     1       3.419   4.779  -3.907  0.00  0.00    +0.046 A 
ATOM     18  C   UNL     1       4.107   5.675  -4.713  0.00  0.00    +0.117 A 
ATOM     19  C   UNL     1       5.025   6.548  -4.148  0.00  0.00    +0.046 A 
ATOM     20  C   UNL     1       5.251   6.525  -2.786  0.00  0.00    +0.009 A 
BRANCH  18  21
ATOM     21  O   UNL     1       3.882   5.696  -6.053  0.00  0.00    -0.507 OA
ATOM     22  H   UNL     1       4.429   6.406  -6.691  0.00  0.00    +0.292 HD
ENDBRANCH  18  21
ENDBRANCH  12  15
BRANCH   1  24
ATOM     23  N   UNL     1       0.002  -0.004   0.002  0.00  0.00    -0.309 N 
ATOM     24  C   UNL     1      -0.016   1.344   0.009  0.00  0.00    +0.244 C 
ATOM     25  O   UNL     1      -1.077   1.937   0.018  0.00  0.00    -0.270 OA
ATOM     26  H   UNL     1       0.962  -0.541  -0.010  0.00  0.00    +0.149 HD
BRANCH  23  27
ATOM     27  C   UNL     1      -1.256  -0.754   0.010  0.00  0.00    +0.070 C 
ATOM     28  C   UNL     1      -1.745  -0.914   1.451  0.00  0.00    +0.028 C 
BRANCH  27  30
ATOM     29  C   UNL     1      -0.663  -1.978  -2.086  0.00  0.00    +0.005 C 
ATOM     30  C   UNL     1      -1.032  -2.135  -0.609  0.00  0.00    +0.018 C 
ENDBRANCH  27  30
ENDBRANCH  23  27
ENDBRANCH   1  24
TORSDOF 5
