REMARK  Name = ZINC36143959
REMARK  3 active torsions:
REMARK  status: ('A' for Active; 'I' for Inactive)
REMARK    1  A    between atoms: C_1  and  C_2
REMARK    2  A    between atoms: C_2  and  O_3
REMARK    3  A    between atoms: O_3  and  C_4
REMARK                            x       y       z     vdW  Elec       q    Type
REMARK                         _______ _______ _______ _____ _____    ______ ____
ROOT
ATOM      1  C   UNL     1       0.842  -1.874  -1.339  0.00  0.00    +0.156 C 
ATOM      2  C   UNL     1       2.171  -2.146  -2.049  0.00  0.00    +0.084 C 
ATOM      3  C   UNL     1       2.197  -3.618  -2.476  0.00  0.00    +0.110 C 
ATOM      4  C   UNL     1       3.557  -3.946  -3.094  0.00  0.00    +0.029 C 
ATOM      5  C   UNL     1       3.607  -5.436  -3.444  0.00  0.00    -0.079 C 
ATOM      6  N   UNL     1       3.411  -6.233  -2.228  0.00  0.00    +0.379 N 
ATOM      7  C   UNL     1       2.076  -5.978  -1.672  0.00  0.00    -0.079 C 
ATOM      8  C   UNL     1       1.967  -4.509  -1.254  0.00  0.00    +0.029 C 
ATOM      9  O   UNL     1       1.164  -3.835  -3.435  0.00  0.00    -0.485 OA
ATOM     10  C   UNL     1      -0.080  -3.367  -3.151  0.00  0.00    +0.131 A 
ATOM     11  C   UNL     1      -0.295  -2.425  -2.162  0.00  0.00    +0.027 A 
ATOM     12  C   UNL     1      -1.579  -1.969  -1.911  0.00  0.00    +0.059 A 
ATOM     13  C   UNL     1      -2.651  -2.452  -2.644  0.00  0.00    +0.163 A 
ATOM     14  C   UNL     1      -2.437  -3.400  -3.637  0.00  0.00    +0.166 A 
ATOM     15  C   UNL     1      -1.155  -3.856  -3.885  0.00  0.00    +0.095 A 
ATOM     16  O   UNL     1      -3.474  -3.884  -4.374  0.00  0.00    -0.485 OA
ATOM     17  C   UNL     1      -4.790  -3.676  -3.850  0.00  0.00    +0.270 C 
ATOM     18  C   UNL     1      -4.897  -2.217  -3.387  0.00  0.00    +0.270 C 
ATOM     19  O   UNL     1      -3.905  -1.991  -2.379  0.00  0.00    -0.485 OA
ATOM     20  H   UNL     1       3.498  -7.213  -2.451  0.00  0.00    -0.086 HD
ATOM     21  H   UNL     1       4.111  -5.982  -1.546  0.00  0.00    -0.086 HD
ENDROOT
BRANCH   1  22
ATOM     22  O   UNL     1       0.671  -0.465  -1.174  0.00  0.00    -0.372 OA
BRANCH  22  24
ATOM     23  C   UNL     1       1.107   1.577   0.043  0.00  0.00    +0.034 C 
ATOM     24  C   UNL     1       1.249   0.054   0.025  0.00  0.00    +0.157 C 
ENDBRANCH  22  24
ENDBRANCH   1  22
TORSDOF 2
