REMARK  Name = ZINC20100766
REMARK  9 active torsions:
REMARK  status: ('A' for Active; 'I' for Inactive)
REMARK    1  A    between atoms: C_1  and  C_2
REMARK    2  A    between atoms: C_2  and  O_3
REMARK    3  A    between atoms: O_3  and  C_4
REMARK    4  A    between atoms: C_9  and  O_10
REMARK    5  A    between atoms: O_10  and  C_11
REMARK    6  A    between atoms: C_11  and  C_12
REMARK    7  A    between atoms: N_14  and  N_15
REMARK    8  A    between atoms: C_16  and  C_17
REMARK    9  A    between atoms: C_22  and  O_23
REMARK                            x       y       z     vdW  Elec       q    Type
REMARK                         _______ _______ _______ _____ _____    ______ ____
ROOT
ATOM      1  C   UNL     1      -2.453  -2.724   0.010  0.00  0.00    +0.270 C 
ATOM      2  O   UNL     1      -3.426  -1.999   0.023  0.00  0.00    -0.270 OA
ATOM      3  N   UNL     1      -2.610  -4.062   0.004  0.00  0.00    -0.204 N 
ATOM      4  H   UNL     1      -1.728  -4.720  -0.008  0.00  0.00    +0.177 HD
ENDROOT
BRANCH   3   5
ATOM      5  N   UNL     1      -3.897  -4.617   0.013  0.00  0.00    -0.188 NA
ATOM      6  C   UNL     1      -4.048  -5.907   0.007  0.00  0.00    +0.142 C 
BRANCH   6   7
ATOM      7  C   UNL     1      -5.400  -6.490   0.017  0.00  0.00    +0.038 A 
ATOM      8  C   UNL     1      -5.566  -7.878   0.011  0.00  0.00    +0.032 A 
ATOM      9  C   UNL     1      -6.833  -8.419   0.020  0.00  0.00    +0.066 A 
ATOM     10  C   UNL     1      -7.949  -7.590   0.035  0.00  0.00    +0.210 A 
ATOM     11  C   UNL     1      -7.795  -6.211   0.042  0.00  0.00    +0.107 A 
ATOM     12  C   UNL     1      -6.526  -5.655   0.037  0.00  0.00    +0.143 A 
ATOM     13 BR   UNL     1      -9.317  -5.090   0.064  0.00  0.00    -0.042 Br
ATOM     14  O   UNL     1      -9.195  -8.131   0.045  0.00  0.00    -0.285 OA
ATOM     15 BR   UNL     1      -7.055 -10.297   0.012  0.00  0.00    -0.046 Br
BRANCH  12  16
ATOM     16  O   UNL     1      -6.374  -4.305   0.049  0.00  0.00    -0.505 OA
ATOM     17  H   UNL     1      -7.258  -3.652   0.065  0.00  0.00    +0.292 HD
ENDBRANCH  12  16
ENDBRANCH   6   7
ENDBRANCH   3   5
BRANCH   1  18
ATOM     18  C   UNL     1      -1.069  -2.127   0.000  0.00  0.00    +0.326 C 
BRANCH  18  19
ATOM     19  O   UNL     1      -1.165  -0.702   0.009  0.00  0.00    -0.479 OA
BRANCH  19  25
ATOM     20  C   UNL     1      -0.017   1.387   0.010  0.00  0.00    +0.162 A 
ATOM     21  C   UNL     1       1.175   2.093   0.002  0.00  0.00    +0.049 A 
ATOM     22  C   UNL     1       2.380   1.415  -0.013  0.00  0.00    +0.004 A 
ATOM     23  C   UNL     1       2.399   0.033  -0.021  0.00  0.00    +0.004 A 
ATOM     24  C   UNL     1       1.213  -0.677  -0.013  0.00  0.00    +0.049 A 
ATOM     25  C   UNL     1       0.002  -0.004   0.002  0.00  0.00    +0.163 A 
BRANCH  20  26
ATOM     26  O   UNL     1      -1.203   2.053   0.019  0.00  0.00    -0.489 OA
BRANCH  26  28
ATOM     27  C   UNL     1      -2.566   4.048   0.036  0.00  0.00    +0.048 C 
ATOM     28  C   UNL     1      -1.146   3.481   0.026  0.00  0.00    +0.226 C 
ENDBRANCH  26  28
ENDBRANCH  20  26
ENDBRANCH  19  25
ENDBRANCH  18  19
ENDBRANCH   1  18
TORSDOF 8
