REMARK  Name = ZINC47353808
REMARK  6 active torsions:
REMARK  status: ('A' for Active; 'I' for Inactive)
REMARK    1  A    between atoms: C_3  and  O_10
REMARK    2  A    between atoms: C_6  and  C_7
REMARK    3  A    between atoms: O_10  and  C_11
REMARK    4  A    between atoms: C_11  and  C_12
REMARK    5  A    between atoms: N_14  and  C_15
REMARK    6  A    between atoms: C_15  and  C_16
REMARK                            x       y       z     vdW  Elec       q    Type
REMARK                         _______ _______ _______ _____ _____    ______ ____
ROOT
ATOM      1  C   UNL     1       5.936   2.290  -0.043  0.00  0.00    +0.251 C 
ATOM      2  O   UNL     1       5.759   3.489  -0.035  0.00  0.00    -0.272 OA
ATOM      3  N   UNL     1       7.189   1.793  -0.058  0.00  0.00    -0.308 N 
ATOM      4  H   UNL     1       7.331   0.834  -0.064  0.00  0.00    +0.149 HD
ENDROOT
BRANCH   1   5
ATOM      5  C   UNL     1       4.755   1.354  -0.036  0.00  0.00    +0.324 C 
BRANCH   5   6
ATOM      6  O   UNL     1       3.545   2.114  -0.021  0.00  0.00    -0.483 OA
BRANCH   6   9
ATOM      7  C   UNL     1      -0.017   1.393   0.010  0.00  0.00    +0.016 A 
ATOM      8  C   UNL     1       1.167   2.096   0.002  0.00  0.00    +0.046 A 
ATOM      9  C   UNL     1       2.380   1.417  -0.013  0.00  0.00    +0.121 A 
ATOM     10  C   UNL     1       2.403   0.028  -0.021  0.00  0.00    +0.046 A 
ATOM     11  C   UNL     1       1.224  -0.682  -0.013  0.00  0.00    +0.016 A 
ATOM     12  C   UNL     1       0.002  -0.004   0.002  0.00  0.00    +0.037 A 
BRANCH  12  13
ATOM     13  C   UNL     1      -1.265  -0.761   0.011  0.00  0.00    +0.242 C 
ATOM     14  O   UNL     1      -2.327  -0.169   0.024  0.00  0.00    -0.270 OA
ATOM     15  N   UNL     1      -1.244  -2.109   0.003  0.00  0.00    -0.325 N 
ATOM     16  H   UNL     1      -0.397  -2.581  -0.008  0.00  0.00    +0.145 HD
ATOM     17  H   UNL     1      -2.077  -2.607   0.009  0.00  0.00    +0.145 HD
ENDBRANCH  12  13
ENDBRANCH   6   9
ENDBRANCH   5   6
ENDBRANCH   1   5
BRANCH   3  18
ATOM     18  C   UNL     1       8.337   2.703  -0.065  0.00  0.00    +0.139 C 
BRANCH  18  19
ATOM     19  C   UNL     1       9.613   1.902  -0.081  0.00  0.00    -0.026 A 
ATOM     20  C   UNL     1      10.223   1.513   1.105  0.00  0.00    +0.023 A 
ATOM     21  C   UNL     1      11.391   0.779   1.056  0.00  0.00    +0.084 A 
ATOM     22  N   UNL     1      11.932   0.444  -0.101  0.00  0.00    -0.350 N 
ATOM     23  C   UNL     1      11.381   0.796  -1.252  0.00  0.00    +0.099 A 
ATOM     24  C   UNL     1      10.200   1.532  -1.277  0.00  0.00    +0.047 A 
ATOM     25  N   UNL     1      11.985   0.422  -2.447  0.00  0.00    -0.317 N 
ATOM     26  C   UNL     1      11.493   0.746  -3.794  0.00  0.00    +0.106 C 
ATOM     27  C   UNL     1      12.467   0.104  -4.805  0.00  0.00    +0.020 C 
ATOM     28  C   UNL     1      13.138  -1.021  -3.974  0.00  0.00    +0.020 C 
ATOM     29  C   UNL     1      13.229  -0.359  -2.574  0.00  0.00    +0.106 C 
ATOM     30  H   UNL     1      12.753  -0.072  -0.107  0.00  0.00    +0.166 HD
ENDBRANCH  18  19
ENDBRANCH   3  18
TORSDOF 6
