REMARK  Name = ZINC40348330
REMARK  7 active torsions:
REMARK  status: ('A' for Active; 'I' for Inactive)
REMARK    1  A    between atoms: C_1  and  C_2
REMARK    2  A    between atoms: C_5  and  C_7
REMARK    3  A    between atoms: C_7  and  C_9
REMARK    4  A    between atoms: C_7  and  N_10
REMARK    5  A    between atoms: N_10  and  S_11
REMARK    6  A    between atoms: S_11  and  C_14
REMARK    7  A    between atoms: C_19  and  N_20
REMARK                            x       y       z     vdW  Elec       q    Type
REMARK                         _______ _______ _______ _____ _____    ______ ____
ROOT
ATOM      1  S   UNL     1       3.596  -4.213  -1.726  0.00  0.00    +0.061 S 
ATOM      2  O   UNL     1       4.739  -3.752  -2.434  0.00  0.00    -0.153 OA
ATOM      3  O   UNL     1       3.677  -5.211  -0.717  0.00  0.00    -0.153 OA
ENDROOT
BRANCH   1   4
ATOM      4  C   UNL     1       2.461  -4.808  -2.934  0.00  0.00    +0.126 A 
ATOM      5  C   UNL     1       1.883  -6.054  -2.786  0.00  0.00    +0.031 A 
ATOM      6  C   UNL     1       0.992  -6.522  -3.733  0.00  0.00    +0.017 A 
ATOM      7  C   UNL     1       0.676  -5.745  -4.834  0.00  0.00    +0.020 A 
ATOM      8  C   UNL     1       1.251  -4.498  -4.989  0.00  0.00    +0.040 A 
ATOM      9  C   UNL     1       2.142  -4.023  -4.035  0.00  0.00    +0.052 A 
ATOM     10 BR   UNL     1      -0.543  -6.391  -6.127  0.00  0.00    -0.050 Br
BRANCH   9  11
ATOM     11  N   UNL     1       2.721  -2.761  -4.185  0.00  0.00    -0.356 N 
ATOM     12  H   UNL     1       3.281  -2.397  -3.482  0.00  0.00    +0.142 HD
ATOM     13  H   UNL     1       2.562  -2.248  -4.993  0.00  0.00    +0.142 HD
ENDBRANCH   9  11
ENDBRANCH   1   4
BRANCH   1  14
ATOM     14  N   UNL     1       2.908  -2.882  -1.021  0.00  0.00    -0.180 NA
ATOM     15  H   UNL     1       3.318  -2.010  -1.127  0.00  0.00    +0.149 HD
BRANCH  14  16
ATOM     16  C   UNL     1       1.679  -3.022  -0.236  0.00  0.00    +0.139 C 
ATOM     17  C   UNL     1       2.033  -3.153   1.247  0.00  0.00    +0.034 C 
BRANCH  16  22
ATOM     18  C   UNL     1       0.260   1.781  -0.835  0.00  0.00    +0.086 C 
ATOM     19  C   UNL     1       0.194   0.281  -0.700  0.00  0.00    +0.102 A 
ATOM     20  C   UNL     1      -0.925  -0.464  -0.743  0.00  0.00    +0.045 A 
ATOM     21  C   UNL     1      -0.527  -1.810  -0.575  0.00  0.00    +0.046 A 
ATOM     22  C   UNL     1       0.811  -1.807  -0.440  0.00  0.00    +0.123 A 
ATOM     23  O   UNL     1       1.243  -0.538  -0.522  0.00  0.00    -0.463 OA
ENDBRANCH  16  22
ENDBRANCH  14  16
ENDBRANCH   1  14
TORSDOF 5
