REMARK  Name = ZINC12402348
REMARK  8 active torsions:
REMARK  status: ('A' for Active; 'I' for Inactive)
REMARK    1  A    between atoms: C_1  and  C_2
REMARK    2  A    between atoms: C_2  and  C_33
REMARK    3  A    between atoms: C_6  and  C_22
REMARK    4  A    between atoms: C_8  and  C_20
REMARK    5  A    between atoms: C_9  and  N_19
REMARK    6  A    between atoms: N_10  and  C_11
REMARK    7  A    between atoms: C_16  and  C_17
REMARK    8  A    between atoms: C_25  and  N_27
REMARK                            x       y       z     vdW  Elec       q    Type
REMARK                         _______ _______ _______ _____ _____    ______ ____
ROOT
ATOM      1  C   UNL     1      -5.776   7.866  -2.694  0.00  0.00    +0.011 C 
ATOM      2  C   UNL     1      -4.474   7.406  -3.353  0.00  0.00    -0.023 C 
ATOM      3  C   UNL     1      -3.306   7.619  -2.387  0.00  0.00    +0.058 C 
ATOM      4  C   UNL     1      -3.522   6.794  -1.142  0.00  0.00    +0.025 C 
ATOM      5  C   UNL     1      -4.181   5.618  -1.192  0.00  0.00    +0.026 C 
ATOM      6  C   UNL     1      -4.378   4.785   0.048  0.00  0.00    +0.104 C 
ATOM      7  C   UNL     1      -4.169   5.602   1.289  0.00  0.00    +0.077 C 
ATOM      8  C   UNL     1      -3.510   6.789   1.244  0.00  0.00    +0.107 C 
ATOM      9  N   UNL     1      -3.026   7.266   0.046  0.00  0.00    -0.259 N 
ATOM     10  C   UNL     1      -4.709   5.135  -2.404  0.00  0.00    +0.162 C 
ATOM     11  O   UNL     1      -5.293   4.069  -2.417  0.00  0.00    -0.292 OA
ATOM     12  C   UNL     1      -4.565   5.912  -3.684  0.00  0.00    +0.086 C 
ATOM     13  C   UNL     1      -4.234   8.207  -4.634  0.00  0.00    +0.011 C 
ENDROOT
BRANCH   9  14
ATOM     14  C   UNL     1      -2.025   8.237   0.041  0.00  0.00    +0.057 A 
ATOM     15  C   UNL     1      -0.689   7.861   0.033  0.00  0.00    +0.025 A 
ATOM     16  C   UNL     1       0.300   8.824   0.029  0.00  0.00    +0.002 A 
ATOM     17  C   UNL     1      -0.030  10.169   0.032  0.00  0.00    +0.001 A 
ATOM     18  C   UNL     1      -1.352  10.561   0.039  0.00  0.00    +0.021 A 
ATOM     19  C   UNL     1      -2.364   9.598   0.039  0.00  0.00    +0.073 A 
BRANCH  19  20
ATOM     20  C   UNL     1      -3.739   9.999   0.041  0.00  0.00    +0.101 C 
ATOM     21  N   UNL     1      -4.830  10.316   0.043  0.00  0.00    -0.191 NA
ENDBRANCH  19  20
ENDBRANCH   9  14
BRANCH   6  22
ATOM     22  C   UNL     1      -3.395   3.643   0.038  0.00  0.00    +0.005 A 
ATOM     23  C   UNL     1      -3.636   2.309   0.032  0.00  0.00    +0.014 A 
ATOM     24  C   UNL     1      -2.565   1.434   0.017  0.00  0.00    +0.041 A 
ATOM     25  C   UNL     1      -1.306   1.937   0.019  0.00  0.00    +0.164 A 
ATOM     26  S   UNL     1      -1.611   3.696   0.029  0.00  0.00    -0.068 S 
BRANCH  25  27
ATOM     27  N   UNL     1      -0.014   1.214   0.009  0.00  0.00    +0.063 N 
ATOM     28  O   UNL     1       0.002  -0.004   0.002  0.00  0.00    -0.126 OA
ATOM     29  O   UNL     1       1.032   1.837   0.002  0.00  0.00    -0.126 OA
ENDBRANCH  25  27
ENDBRANCH   6  22
BRANCH   8  30
ATOM     30  N   UNL     1      -3.325   7.515   2.396  0.00  0.00    -0.345 N 
ATOM     31  H   UNL     1      -3.665   7.179   3.241  0.00  0.00    +0.144 HD
ATOM     32  H   UNL     1      -2.854   8.362   2.365  0.00  0.00    +0.144 HD
ENDBRANCH   8  30
BRANCH   7  33
ATOM     33  C   UNL     1      -4.673   5.124   2.541  0.00  0.00    +0.099 C 
ATOM     34  N   UNL     1      -5.073   4.744   3.534  0.00  0.00    -0.191 NA
ENDBRANCH   7  33
TORSDOF 6
