REMARK  Name = ZINC52037362
REMARK  5 active torsions:
REMARK  status: ('A' for Active; 'I' for Inactive)
REMARK    1  A    between atoms: C_1  and  C_2
REMARK    2  A    between atoms: C_2  and  C_3
REMARK    3  A    between atoms: C_2  and  C_4
REMARK    4  A    between atoms: C_2  and  N_5
REMARK    5  A    between atoms: N_11  and  C_14
REMARK                            x       y       z     vdW  Elec       q    Type
REMARK                         _______ _______ _______ _____ _____    ______ ____
ROOT
ATOM      1  N   UNL     1       2.358   1.125  -0.889  0.00  0.00    -0.314 N 
ATOM      2  C   UNL     1       2.089  -0.033  -1.579  0.00  0.00    +0.154 C 
ATOM      3  N   UNL     1       1.237  -0.895  -1.098  0.00  0.00    -0.375 N 
ATOM      4  N   UNL     1       2.717  -0.283  -2.776  0.00  0.00    -0.302 N 
ATOM      5  C   UNL     1       2.005  -0.960  -3.868  0.00  0.00    +0.126 C 
ATOM      6  C   UNL     1       2.076  -0.077  -5.120  0.00  0.00    +0.124 C 
ATOM      7  N   UNL     1       3.473   0.328  -5.330  0.00  0.00    -0.326 N 
ATOM      8  C   UNL     1       4.186   1.005  -4.238  0.00  0.00    +0.124 C 
ATOM      9  C   UNL     1       4.113   0.127  -2.987  0.00  0.00    +0.126 C 
ATOM     10  H   UNL     1       3.046   1.730  -1.207  0.00  0.00    +0.149 HD
ATOM     11  H   UNL     1       1.104  -1.746  -1.544  0.00  0.00    +0.158 HD
ATOM     12  H   UNL     1       0.736  -0.685  -0.294  0.00  0.00    +0.158 HD
ENDROOT
BRANCH   7  13
ATOM     13  C   UNL     1       4.112   0.074  -6.547  0.00  0.00    +0.048 A 
ATOM     14  C   UNL     1       4.064   1.014  -7.568  0.00  0.00    +0.024 A 
ATOM     15  C   UNL     1       4.697   0.761  -8.769  0.00  0.00    +0.002 A 
ATOM     16  C   UNL     1       5.379  -0.428  -8.956  0.00  0.00    +0.002 A 
ATOM     17  C   UNL     1       5.429  -1.367  -7.942  0.00  0.00    +0.022 A 
ATOM     18  C   UNL     1       4.803  -1.117  -6.736  0.00  0.00    +0.062 A 
ATOM     19 CL   UNL     1       4.872  -2.293  -5.460  0.00  0.00    -0.082 Cl
ENDBRANCH   7  13
BRANCH   1  21
ATOM     20  C   UNL     1       1.863   0.373   1.385  0.00  0.00    +0.031 C 
ATOM     21  C   UNL     1       1.605   1.447   0.325  0.00  0.00    +0.026 C 
ATOM     22  C   UNL     1       0.110   1.494   0.001  0.00  0.00    +0.031 C 
ATOM     23  C   UNL     1       2.054   2.808   0.859  0.00  0.00    +0.031 C 
ENDBRANCH   1  21
TORSDOF 2
