REMARK  Name = ZINC37387053
REMARK  6 active torsions:
REMARK  status: ('A' for Active; 'I' for Inactive)
REMARK    1  A    between atoms: C_1  and  C_2
REMARK    2  A    between atoms: C_7  and  N_12
REMARK    3  A    between atoms: C_9  and  C_11
REMARK    4  A    between atoms: C_13  and  C_15
REMARK    5  A    between atoms: C_15  and  N_16
REMARK    6  A    between atoms: N_16  and  C_17
REMARK                            x       y       z     vdW  Elec       q    Type
REMARK                         _______ _______ _______ _____ _____    ______ ____
ROOT
ATOM      1  N   UNL     1      -0.612  -2.548   1.244  0.00  0.00    -0.314 N 
ATOM      2  C   UNL     1      -0.873  -3.776   1.733  0.00  0.00    +0.196 C 
ATOM      3  O   UNL     1       0.030  -4.462   2.164  0.00  0.00    -0.278 OA
ATOM      4  H   UNL     1      -1.333  -2.000   0.898  0.00  0.00    +0.149 HD
ENDROOT
BRANCH   1  10
ATOM      5  C   UNL     1      -0.019   1.526   0.010  0.00  0.00    +0.008 C 
ATOM      6  C   UNL     1       0.002  -0.004   0.002  0.00  0.00    -0.009 C 
ATOM      7  C   UNL     1       0.718  -0.497  -1.257  0.00  0.00    +0.003 C 
ATOM      8  C   UNL     1       0.739  -2.027  -1.265  0.00  0.00    +0.002 C 
ATOM      9  C   UNL     1       1.479  -2.534  -0.026  0.00  0.00    +0.022 C 
ATOM     10  C   UNL     1       0.763  -2.041   1.233  0.00  0.00    +0.076 C 
ATOM     11  C   UNL     1       0.742  -0.511   1.242  0.00  0.00    +0.009 C 
ATOM     12  C   UNL     1       0.026  -0.018   2.500  0.00  0.00    +0.009 C 
ENDBRANCH   1  10
BRANCH   2  13
ATOM     13  C   UNL     1      -2.287  -4.298   1.743  0.00  0.00    +0.015 C 
BRANCH  13  14
ATOM     14  N   UNL     1      -2.306  -5.648   2.322  0.00  0.00    +0.387 N 
ATOM     15  H   UNL     1      -1.726  -6.260   1.767  0.00  0.00    -0.085 HD
ATOM     16  H   UNL     1      -1.953  -5.614   3.266  0.00  0.00    -0.085 HD
BRANCH  14  17
ATOM     17  C   UNL     1      -3.684  -6.157   2.332  0.00  0.00    -0.071 C 
ATOM     18  C   UNL     1      -4.538  -5.348   3.330  0.00  0.00    -0.016 C 
ATOM     19  C   UNL     1      -5.484  -6.400   3.962  0.00  0.00    -0.002 C 
ATOM     20  C   UNL     1      -4.569  -7.643   4.096  0.00  0.00    -0.002 C 
ATOM     21  C   UNL     1      -3.704  -7.616   2.819  0.00  0.00    -0.016 C 
ENDBRANCH  14  17
ENDBRANCH  13  14
ENDBRANCH   2  13
TORSDOF 4
