REMARK  Name = ZINC35313265
REMARK  8 active torsions:
REMARK  status: ('A' for Active; 'I' for Inactive)
REMARK    1  A    between atoms: C_1  and  O_2
REMARK    2  A    between atoms: O_2  and  C_3
REMARK    3  A    between atoms: C_8  and  N_31
REMARK    4  A    between atoms: C_9  and  C_18
REMARK    5  A    between atoms: C_15  and  O_16
REMARK    6  A    between atoms: O_16  and  C_17
REMARK    7  A    between atoms: N_20  and  C_21
REMARK    8  A    between atoms: C_21  and  C_22
REMARK                            x       y       z     vdW  Elec       q    Type
REMARK                         _______ _______ _______ _____ _____    ______ ____
ROOT
ATOM      1  C   UNL     1      -1.201  -0.638   0.010  0.00  0.00    +0.162 A 
ATOM      2  C   UNL     1      -2.344   0.103   0.019  0.00  0.00    +0.059 A 
ATOM      3  C   UNL     1      -3.593  -0.548   0.028  0.00  0.00    +0.003 A 
ATOM      4  C   UNL     1      -4.792   0.167   0.037  0.00  0.00    +0.022 A 
ATOM      5  C   UNL     1      -6.008  -0.544   0.045  0.00  0.00    +0.028 A 
ATOM      6  C   UNL     1      -7.360   0.002   0.054  0.00  0.00    +0.053 A 
ATOM      7  C   UNL     1      -8.420  -0.874   0.060  0.00  0.00    +0.097 A 
ATOM      8  S   UNL     1      -7.639  -2.474   0.053  0.00  0.00    -0.064 S 
ATOM      9  C   UNL     1      -5.936  -1.963   0.043  0.00  0.00    +0.088 A 
ATOM     10  N   UNL     1      -4.811  -2.635   0.034  0.00  0.00    -0.349 N 
ATOM     11  C   UNL     1      -3.630  -2.012   0.026  0.00  0.00    +0.051 A 
ATOM     12  C   UNL     1      -2.420  -2.722   0.017  0.00  0.00    +0.075 A 
ATOM     13  C   UNL     1      -1.238  -2.040   0.003  0.00  0.00    +0.163 A 
ATOM     14  H   UNL     1      -4.837  -3.605   0.033  0.00  0.00    +0.166 HD
ENDROOT
BRANCH   7  15
ATOM     15  C   UNL     1      -9.804  -0.574   0.070  0.00  0.00    +0.253 C 
ATOM     16  O   UNL     1     -10.177   0.586   0.075  0.00  0.00    -0.270 OA
ATOM     17  N   UNL     1     -10.710  -1.572   0.075  0.00  0.00    -0.307 N 
ATOM     18  H   UNL     1     -10.414  -2.496   0.072  0.00  0.00    +0.149 HD
BRANCH  17  19
ATOM     19  C   UNL     1     -12.142  -1.262   0.086  0.00  0.00    +0.140 C 
BRANCH  19  20
ATOM     20  C   UNL     1     -12.933  -2.545   0.089  0.00  0.00    -0.027 A 
ATOM     21  C   UNL     1     -13.299  -3.133  -1.107  0.00  0.00    +0.009 A 
ATOM     22  C   UNL     1     -14.025  -4.309  -1.109  0.00  0.00    +0.050 A 
ATOM     23  C   UNL     1     -14.388  -4.902   0.090  0.00  0.00    +0.166 A 
ATOM     24  C   UNL     1     -14.019  -4.309   1.295  0.00  0.00    +0.167 A 
ATOM     25  C   UNL     1     -13.287  -3.133   1.289  0.00  0.00    +0.054 A 
ATOM     26  O   UNL     1     -14.491  -5.077   2.321  0.00  0.00    -0.453 OA
ATOM     27  C   UNL     1     -15.498  -5.923   1.736  0.00  0.00    +0.466 C 
ATOM     28  O   UNL     1     -15.090  -6.041   0.360  0.00  0.00    -0.453 OA
ENDBRANCH  19  20
ENDBRANCH  17  19
ENDBRANCH   7  15
BRANCH   6  29
ATOM     29  N   UNL     1      -7.572   1.373   0.057  0.00  0.00    -0.356 N 
ATOM     30  H   UNL     1      -6.816   1.981   0.053  0.00  0.00    +0.142 HD
ATOM     31  H   UNL     1      -8.476   1.724   0.064  0.00  0.00    +0.142 HD
ENDBRANCH   6  29
BRANCH   1  33
ATOM     32  C   UNL     1      -0.017   1.425   0.010  0.00  0.00    +0.277 C 
ATOM     33  O   UNL     1       0.002  -0.004   0.002  0.00  0.00    -0.491 OA
ENDBRANCH   1  33
BRANCH  13  34
ATOM     34  O   UNL     1      -0.070  -2.734  -0.012  0.00  0.00    -0.491 OA
ATOM     35  C   UNL     1      -0.164  -4.160  -0.019  0.00  0.00    +0.277 C 
ENDBRANCH  13  34
TORSDOF 6
