REMARK  Name = ZINC50871101
REMARK  6 active torsions:
REMARK  status: ('A' for Active; 'I' for Inactive)
REMARK    1  A    between atoms: C_1  and  C_2
REMARK    2  A    between atoms: C_2  and  C_3
REMARK    3  A    between atoms: C_4  and  C_17
REMARK    4  A    between atoms: C_7  and  O_15
REMARK    5  A    between atoms: C_12  and  N_13
REMARK    6  A    between atoms: O_15  and  C_16
REMARK                            x       y       z     vdW  Elec       q    Type
REMARK                         _______ _______ _______ _____ _____    ______ ____
ROOT
ATOM      1  C   UNL     1       0.695  -0.592  -1.210  0.00  0.00    -0.007 A 
ATOM      2  C   UNL     1      -0.023  -0.819  -2.377  0.00  0.00    +0.018 A 
ATOM      3  N   UNL     1       0.569  -1.146  -3.501  0.00  0.00    -0.355 N 
ATOM      4  C   UNL     1       1.898  -1.278  -3.583  0.00  0.00    +0.092 A 
ATOM      5  C   UNL     1       2.519  -1.629  -4.799  0.00  0.00    +0.144 A 
ATOM      6  C   UNL     1       3.878  -1.756  -4.853  0.00  0.00    +0.049 A 
ATOM      7  C   UNL     1       4.662  -1.543  -3.723  0.00  0.00    +0.019 A 
ATOM      8  C   UNL     1       4.095  -1.202  -2.531  0.00  0.00    +0.029 A 
ATOM      9  C   UNL     1       2.701  -1.062  -2.439  0.00  0.00    +0.037 A 
ATOM     10  C   UNL     1       2.076  -0.704  -1.222  0.00  0.00    +0.040 A 
ATOM     11 BR   UNL     1       5.180  -0.918  -1.009  0.00  0.00    -0.050 Br
ATOM     12  C   UNL     1      -1.524  -0.687  -2.350  0.00  0.00    +0.063 C 
ATOM     13  H   UNL     1       0.030  -1.296  -4.293  0.00  0.00    +0.166 HD
ENDROOT
BRANCH  10  14
ATOM     14  N   UNL     1       2.822  -0.477  -0.074  0.00  0.00    -0.357 N 
ATOM     15  H   UNL     1       2.579  -0.914   0.757  0.00  0.00    +0.142 HD
ATOM     16  H   UNL     1       3.587   0.120  -0.103  0.00  0.00    +0.142 HD
ENDBRANCH  10  14
BRANCH   1  18
ATOM     17  C   UNL     1      -0.156   1.304   0.144  0.00  0.00    +0.009 C 
ATOM     18  C   UNL     1      -0.023  -0.218   0.061  0.00  0.00    +0.035 C 
ENDBRANCH   1  18
BRANCH   5  19
ATOM     19  O   UNL     1       1.769  -1.842  -5.913  0.00  0.00    -0.493 OA
ATOM     20  C   UNL     1       2.468  -2.195  -7.108  0.00  0.00    +0.277 C 
ENDBRANCH   5  19
TORSDOF 3
