REMARK  Name = ZINC44495069
REMARK  8 active torsions:
REMARK  status: ('A' for Active; 'I' for Inactive)
REMARK    1  A    between atoms: C_1  and  C_2
REMARK    2  A    between atoms: C_2  and  N_3
REMARK    3  A    between atoms: C_5  and  C_8
REMARK    4  A    between atoms: C_8  and  C_10
REMARK    5  A    between atoms: C_8  and  N_11
REMARK    6  A    between atoms: N_11  and  C_12
REMARK    7  A    between atoms: C_12  and  C_14
REMARK    8  A    between atoms: C_12  and  C_15
REMARK                            x       y       z     vdW  Elec       q    Type
REMARK                         _______ _______ _______ _____ _____    ______ ____
ROOT
ATOM      1  N   UNL     1       3.888  -1.671  -4.171  0.00  0.00    +0.388 N 
ATOM      2  H   UNL     1       3.263  -1.447  -4.931  0.00  0.00    -0.084 HD
ATOM      3  H   UNL     1       4.282  -0.821  -3.798  0.00  0.00    -0.084 HD
ENDROOT
BRANCH   1   4
ATOM      4  C   UNL     1       3.143  -2.370  -3.115  0.00  0.00    -0.040 C 
ATOM      5  C   UNL     1       1.936  -1.527  -2.699  0.00  0.00    -0.009 C 
BRANCH   4   8
ATOM      6  N   UNL     1       5.021  -3.492  -0.198  0.00  0.00    -0.272 N 
ATOM      7  C   UNL     1       4.093  -3.697  -1.156  0.00  0.00    +0.110 A 
ATOM      8  C   UNL     1       4.041  -2.584  -1.925  0.00  0.00    -0.024 A 
ATOM      9  C   UNL     1       4.970  -1.669  -1.419  0.00  0.00    +0.136 A 
ATOM     10  N   UNL     1       5.553  -2.209  -0.380  0.00  0.00    -0.179 NA
BRANCH   6  12
ATOM     11  C   UNL     1       6.912  -4.673   0.808  0.00  0.00    +0.029 C 
ATOM     12  C   UNL     1       5.400  -4.442   0.851  0.00  0.00    +0.140 C 
ENDBRANCH   6  12
ENDBRANCH   4   8
ENDBRANCH   1   4
BRANCH   1  13
ATOM     13  C   UNL     1       4.968  -2.537  -4.664  0.00  0.00    -0.043 C 
ATOM     14  C   UNL     1       4.364  -3.754  -5.369  0.00  0.00    -0.009 C 
BRANCH  13  15
ATOM     15  C   UNL     1       5.825  -1.767  -5.636  0.00  0.00    -0.060 A 
ATOM     16  C   UNL     1       5.237  -0.902  -6.540  0.00  0.00    +0.003 A 
ATOM     17  C   UNL     1       6.022  -0.196  -7.432  0.00  0.00    +0.021 A 
ATOM     18  C   UNL     1       7.397  -0.354  -7.420  0.00  0.00    +0.059 A 
ATOM     19  C   UNL     1       7.985  -1.220  -6.514  0.00  0.00    +0.059 A 
ATOM     20  C   UNL     1       7.198  -1.923  -5.618  0.00  0.00    +0.023 A 
ATOM     21 CL   UNL     1       9.709  -1.421  -6.497  0.00  0.00    -0.082 Cl
ATOM     22 CL   UNL     1       8.383   0.532  -8.540  0.00  0.00    -0.082 Cl
ENDBRANCH  13  15
ENDBRANCH   1  13
TORSDOF 5
