REMARK  Name = ZINC50224841
REMARK  6 active torsions:
REMARK  status: ('A' for Active; 'I' for Inactive)
REMARK    1  A    between atoms: C_1  and  C_2
REMARK    2  A    between atoms: C_2  and  N_9
REMARK    3  A    between atoms: C_10  and  C_12
REMARK    4  A    between atoms: C_12  and  N_13
REMARK    5  A    between atoms: C_15  and  C_18
REMARK    6  A    between atoms: C_18  and  N_19
REMARK                            x       y       z     vdW  Elec       q    Type
REMARK                         _______ _______ _______ _____ _____    ______ ____
ROOT
ATOM      1  N   UNL     1       0.731  -0.456  -1.186  0.00  0.00    -0.307 N 
ATOM      2  C   UNL     1       0.300  -0.105  -2.414  0.00  0.00    +0.235 C 
ATOM      3  O   UNL     1      -0.690   0.584  -2.536  0.00  0.00    -0.274 OA
ATOM      4  H   UNL     1       1.523  -1.007  -1.089  0.00  0.00    +0.149 HD
ENDROOT
BRANCH   1   6
ATOM      5  C   UNL     1      -0.019   1.526   0.010  0.00  0.00    +0.033 C 
ATOM      6  C   UNL     1       0.002  -0.004   0.002  0.00  0.00    +0.053 C 
ATOM      7  C   UNL     1      -1.436  -0.513  -0.087  0.00  0.00    +0.049 C 
ATOM      8  C   UNL     1      -1.556  -1.909   0.586  0.00  0.00    +0.168 C 
ATOM      9  S   UNL     1      -0.454  -1.644   2.043  0.00  0.00    -0.029 S 
ATOM     10  O   UNL     1       0.203  -2.864   2.360  0.00  0.00    -0.174 OA
ATOM     11  O   UNL     1      -1.173  -0.950   3.053  0.00  0.00    -0.174 OA
ATOM     12  C   UNL     1       0.751  -0.495   1.257  0.00  0.00    +0.191 C 
ENDBRANCH   1   6
BRANCH   2  13
ATOM     13  C   UNL     1       1.050  -0.570  -3.636  0.00  0.00    +0.240 C 
BRANCH  13  14
ATOM     14  N   UNL     1       0.387  -0.060  -4.839  0.00  0.00    -0.243 N 
ATOM     15  C   UNL     1       0.971   0.667  -5.819  0.00  0.00    +0.132 A 
ATOM     16  C   UNL     1       0.002   0.923  -6.728  0.00  0.00    +0.066 A 
ATOM     17  N   UNL     1      -1.114   0.348  -6.266  0.00  0.00    -0.136 NA
ATOM     18  N   UNL     1      -0.851  -0.231  -5.148  0.00  0.00    -0.065 NA
BRANCH  16  19
ATOM     19  C   UNL     1       0.150   1.703  -8.009  0.00  0.00    -0.027 C 
BRANCH  19  20
ATOM     20  N   UNL     1       0.404   0.776  -9.120  0.00  0.00    +0.382 N 
ATOM     21  H   UNL     1      -0.369   0.134  -9.206  0.00  0.00    -0.090 HD
ATOM     22  H   UNL     1       0.503   1.299  -9.978  0.00  0.00    -0.090 HD
ATOM     23  H   UNL     1       1.252   0.260  -8.941  0.00  0.00    -0.090 HD
ENDBRANCH  19  20
ENDBRANCH  16  19
ENDBRANCH  13  14
ENDBRANCH   2  13
TORSDOF 5
