REMARK  Name = ZINC64375962
REMARK  8 active torsions:
REMARK  status: ('A' for Active; 'I' for Inactive)
REMARK    1  A    between atoms: C_4  and  S_11
REMARK    2  A    between atoms: C_5  and  C_7
REMARK    3  A    between atoms: S_11  and  N_14
REMARK    4  A    between atoms: N_14  and  N_15
REMARK    5  A    between atoms: N_18  and  C_19
REMARK    6  A    between atoms: C_19  and  C_20
REMARK    7  A    between atoms: C_20  and  C_21
REMARK    8  A    between atoms: C_21  and  N_22
REMARK                            x       y       z     vdW  Elec       q    Type
REMARK                         _______ _______ _______ _____ _____    ______ ____
ROOT
ATOM      1  N   UNL     1       3.844  -1.349   1.403  0.00  0.00    -0.107 NA
ATOM      2  H   UNL     1       4.574  -1.188   2.020  0.00  0.00    +0.172 HD
ENDROOT
BRANCH   1   3
ATOM      3  N   UNL     1       2.882  -2.325   1.695  0.00  0.00    -0.216 N 
ATOM      4  C   UNL     1       3.265  -3.592   1.953  0.00  0.00    +0.315 C 
ATOM      5  O   UNL     1       2.431  -4.439   2.206  0.00  0.00    -0.251 OA
ATOM      6  N   UNL     1       4.572  -3.919   1.929  0.00  0.00    -0.298 N 
ATOM      7  H   UNL     1       1.942  -2.090   1.711  0.00  0.00    +0.172 HD
ATOM      8  H   UNL     1       5.238  -3.243   1.727  0.00  0.00    +0.150 HD
BRANCH   6   9
ATOM      9  C   UNL     1       4.988  -5.295   2.210  0.00  0.00    +0.107 C 
BRANCH   9  10
ATOM     10  C   UNL     1       6.512  -5.396   2.119  0.00  0.00    +0.040 C 
BRANCH  10  11
ATOM     11  C   UNL     1       6.947  -6.833   2.412  0.00  0.00    +0.124 C 
BRANCH  11  12
ATOM     12  N   UNL     1       8.406  -6.930   2.325  0.00  0.00    -0.338 N 
ATOM     13  C   UNL     1       9.136  -7.220   1.204  0.00  0.00    +0.104 A 
ATOM     14  C   UNL     1      10.432  -7.206   1.569  0.00  0.00    +0.101 A 
ATOM     15  N   UNL     1      10.492  -6.915   2.877  0.00  0.00    -0.352 N 
ATOM     16  C   UNL     1       9.283  -6.744   3.336  0.00  0.00    +0.173 A 
ATOM     17  H   UNL     1      11.306  -6.840   3.398  0.00  0.00    +0.166 HD
ENDBRANCH  11  12
ENDBRANCH  10  11
ENDBRANCH   9  10
ENDBRANCH   6   9
ENDBRANCH   1   3
BRANCH   1  18
ATOM     18  S   UNL     1       3.733  -0.471   0.003  0.00  0.00    +0.074 S 
ATOM     19  O   UNL     1       3.665  -1.409  -1.062  0.00  0.00    -0.152 OA
ATOM     20  O   UNL     1       4.737   0.532   0.072  0.00  0.00    -0.152 OA
BRANCH  18  24
ATOM     21  C   UNL     1      -0.250   1.679   0.087  0.00  0.00    +0.001 A 
ATOM     22  C   UNL     1      -0.009   0.706  -0.866  0.00  0.00    +0.002 A 
ATOM     23  C   UNL     1       1.207   0.050  -0.892  0.00  0.00    +0.029 A 
ATOM     24  C   UNL     1       2.183   0.367   0.035  0.00  0.00    +0.118 A 
ATOM     25  C   UNL     1       1.942   1.339   0.987  0.00  0.00    +0.081 A 
ATOM     26  C   UNL     1       0.725   1.995   1.014  0.00  0.00    +0.014 A 
BRANCH  25  27
ATOM     27  C   UNL     1       3.006   1.684   1.998  0.00  0.00    +0.419 C 
ATOM     28  F   UNL     1       2.489   2.594   2.926  0.00  0.00    -0.166 F 
ATOM     29  F   UNL     1       3.412   0.521   2.661  0.00  0.00    -0.166 F 
ATOM     30  F   UNL     1       4.102   2.256   1.345  0.00  0.00    -0.166 F 
ENDBRANCH  25  27
ENDBRANCH  18  24
ENDBRANCH   1  18
TORSDOF 8
