REMARK  Name = ZINC38990158
REMARK  9 active torsions:
REMARK  status: ('A' for Active; 'I' for Inactive)
REMARK    1  A    between atoms: C_1  and  C_2
REMARK    2  A    between atoms: C_6  and  C_7
REMARK    3  A    between atoms: C_7  and  C_9
REMARK    4  A    between atoms: C_7  and  C_25
REMARK    5  A    between atoms: C_12  and  O_15
REMARK    6  A    between atoms: O_15  and  C_16
REMARK    7  A    between atoms: C_16  and  C_18
REMARK    8  A    between atoms: C_26  and  C_32
REMARK    9  A    between atoms: C_29  and  O_31
REMARK                            x       y       z     vdW  Elec       q    Type
REMARK                         _______ _______ _______ _____ _____    ______ ____
ROOT
ATOM      1  C   UNL     1       0.046  -0.169   2.452  0.00  0.00    +0.088 C 
ENDROOT
BRANCH   1   7
ATOM      2  C   UNL     1      -2.455  -1.446   0.984  0.00  0.00    +0.068 C 
ATOM      3  C   UNL     1      -1.051  -1.374   0.439  0.00  0.00    +0.068 A 
ATOM      4  N   UNL     1      -0.657  -1.823  -0.724  0.00  0.00    -0.176 NA
ATOM      5  N   UNL     1       0.714  -1.566  -0.854  0.00  0.00    -0.243 N 
ATOM      6  C   UNL     1       1.130  -0.947   0.272  0.00  0.00    +0.271 A 
ATOM      7  C   UNL     1       0.051  -0.810   1.089  0.00  0.00    +0.052 A 
ATOM      8  O   UNL     1       2.394  -0.531   0.538  0.00  0.00    -0.266 OA
ATOM      9  H   UNL     1       1.267  -1.793  -1.618  0.00  0.00    +0.192 HD
ENDBRANCH   1   7
BRANCH   1  10
ATOM     10  C   UNL     1      -0.896  -0.920   3.357  0.00  0.00    -0.035 A 
ATOM     11  C   UNL     1      -0.716  -2.275   3.567  0.00  0.00    +0.008 A 
ATOM     12  C   UNL     1      -1.578  -2.967   4.397  0.00  0.00    +0.046 A 
ATOM     13  C   UNL     1      -2.623  -2.301   5.020  0.00  0.00    +0.132 A 
ATOM     14  C   UNL     1      -2.801  -0.941   4.808  0.00  0.00    +0.046 A 
ATOM     15  C   UNL     1      -1.934  -0.253   3.981  0.00  0.00    +0.008 A 
BRANCH  13  16
ATOM     16  O   UNL     1      -3.473  -2.979   5.836  0.00  0.00    -0.422 OA
BRANCH  16  17
ATOM     17  C   UNL     1      -3.037  -3.309   7.067  0.00  0.00    +0.346 C 
ATOM     18  O   UNL     1      -1.954  -2.919   7.454  0.00  0.00    -0.244 OA
BRANCH  17  19
ATOM     19  C   UNL     1      -3.877  -4.146   7.947  0.00  0.00    +0.073 A 
ATOM     20  C   UNL     1      -5.121  -4.601   7.504  0.00  0.00    +0.016 A 
ATOM     21  C   UNL     1      -5.901  -5.383   8.331  0.00  0.00    +0.001 A 
ATOM     22  C   UNL     1      -5.454  -5.716   9.598  0.00  0.00    +0.001 A 
ATOM     23  C   UNL     1      -4.223  -5.269  10.045  0.00  0.00    +0.016 A 
ATOM     24  C   UNL     1      -3.430  -4.490   9.225  0.00  0.00    +0.032 A 
ATOM     25 BR   UNL     1      -1.744  -3.886   9.834  0.00  0.00    -0.049 Br
ENDBRANCH  17  19
ENDBRANCH  16  17
ENDBRANCH  13  16
ENDBRANCH   1  10
BRANCH   1  26
ATOM     26  C   UNL     1       1.437  -0.206   3.031  0.00  0.00    +0.017 C 
ATOM     27  C   UNL     1       2.254   0.820   3.276  0.00  0.00    +0.065 C 
ATOM     28  N   UNL     1       3.423   0.389   3.799  0.00  0.00    -0.156 NA
ATOM     29  N   UNL     1       3.500  -0.834   3.941  0.00  0.00    -0.151 NA
ATOM     30  C   UNL     1       2.232  -1.421   3.476  0.00  0.00    +0.284 C 
ATOM     31  C   UNL     1       1.917   2.264   3.007  0.00  0.00    +0.067 C 
BRANCH  30  32
ATOM     32  O   UNL     1       2.460  -2.306   2.378  0.00  0.00    -0.366 OA
ATOM     33  H   UNL     1       2.964  -3.098   2.610  0.00  0.00    +0.212 HD
ENDBRANCH  30  32
ENDBRANCH   1  26
TORSDOF 7
