REMARK  Name = ZINC05486691
REMARK  2 active torsions:
REMARK  status: ('A' for Active; 'I' for Inactive)
REMARK    1  A    between atoms: C_1  and  N_2
REMARK    2  A    between atoms: C_9  and  O_22
REMARK                            x       y       z     vdW  Elec       q    Type
REMARK                         _______ _______ _______ _____ _____    ______ ____
ROOT
ATOM      1  C   UNL     1      -1.403   3.604   2.422  0.00  0.00    +0.129 C 
ATOM      2  N   UNL     1      -0.611   3.046   1.317  0.00  0.00    -0.330 N 
ATOM      3  C   UNL     1      -0.742   1.586   1.261  0.00  0.00    +0.123 C 
ATOM      4  C   UNL     1      -0.013   1.086   0.008  0.00  0.00    +0.120 C 
ATOM      5  N   UNL     1      -0.733   1.577  -1.171  0.00  0.00    -0.340 N 
ATOM      6  C   UNL     1      -0.995   2.936  -1.097  0.00  0.00    +0.060 A 
ATOM      7  C   UNL     1      -0.946   3.650   0.110  0.00  0.00    +0.055 A 
ATOM      8  C   UNL     1      -1.231   5.009   0.125  0.00  0.00    +0.071 A 
ATOM      9  C   UNL     1      -1.561   5.683  -1.044  0.00  0.00    +0.130 A 
ATOM     10  C   UNL     1      -1.609   4.990  -2.256  0.00  0.00    +0.076 A 
ATOM     11  C   UNL     1      -1.323   3.607  -2.281  0.00  0.00    +0.059 A 
ATOM     12  C   UNL     1      -1.376   2.874  -3.558  0.00  0.00    +0.196 C 
ATOM     13  O   UNL     1      -0.897   1.759  -3.649  0.00  0.00    -0.287 OA
ATOM     14  C   UNL     1      -2.019   3.511  -4.728  0.00  0.00    +0.033 A 
ATOM     15  C   UNL     1      -2.345   2.761  -5.853  0.00  0.00    +0.012 A 
ATOM     16  C   UNL     1      -2.947   3.374  -6.937  0.00  0.00    +0.001 A 
ATOM     17  C   UNL     1      -3.227   4.729  -6.911  0.00  0.00    +0.001 A 
ATOM     18  C   UNL     1      -2.909   5.489  -5.800  0.00  0.00    +0.012 A 
ATOM     19  C   UNL     1      -2.304   4.889  -4.701  0.00  0.00    +0.033 A 
ATOM     20  C   UNL     1      -1.957   5.685  -3.503  0.00  0.00    +0.198 C 
ATOM     21  O   UNL     1      -1.959   6.901  -3.550  0.00  0.00    -0.286 OA
ATOM     22  H   UNL     1      -0.236   1.351  -2.019  0.00  0.00    +0.146 HD
ENDROOT
BRANCH   9  23
ATOM     23  O   UNL     1      -1.835   7.011  -1.008  0.00  0.00    -0.506 OA
ATOM     24  H   UNL     1      -2.769   7.215  -0.860  0.00  0.00    +0.292 HD
ENDBRANCH   9  23
TORSDOF 1
