REMARK  Name = ZINC15959927
REMARK  5 active torsions:
REMARK  status: ('A' for Active; 'I' for Inactive)
REMARK    1  A    between atoms: C_1  and  C_2
REMARK    2  A    between atoms: N_20  and  C_23
REMARK    3  A    between atoms: C_28  and  C_29
REMARK    4  A    between atoms: N_31  and  C_32
REMARK    5  A    between atoms: C_32  and  C_33
REMARK                            x       y       z     vdW  Elec       q    Type
REMARK                         _______ _______ _______ _____ _____    ______ ____
ROOT
ATOM      1  C   UNL     1       2.354   3.646   1.357  0.00  0.00    +0.035 C 
ATOM      2  C   UNL     1       1.691   3.309   0.020  0.00  0.00    +0.122 C 
ATOM      3  C   UNL     1       1.270   1.853  -0.000  0.00  0.00    +0.041 A 
ATOM      4  C   UNL     1      -0.018   1.447   0.010  0.00  0.00    -0.015 A 
ATOM      5  C   UNL     1       0.002  -0.004   0.002  0.00  0.00    +0.003 A 
ATOM      6  C   UNL     1      -1.016  -0.963   0.011  0.00  0.00    +0.010 A 
ATOM      7  C   UNL     1      -0.627  -2.280  -0.003  0.00  0.00    +0.001 A 
ATOM      8  C   UNL     1       0.707  -2.653  -0.025  0.00  0.00    +0.002 A 
ATOM      9  C   UNL     1       1.734  -1.725  -0.034  0.00  0.00    +0.026 A 
ATOM     10  C   UNL     1       1.369  -0.380  -0.019  0.00  0.00    +0.047 A 
ATOM     11  N   UNL     1       2.106   0.769  -0.021  0.00  0.00    -0.356 N 
ATOM     12  H   UNL     1       3.075   0.811  -0.035  0.00  0.00    +0.166 HD
ATOM     13  C   UNL     1      -1.228   2.347   0.017  0.00  0.00    +0.069 C 
ATOM     14  C   UNL     1      -0.820   3.744   0.499  0.00  0.00    +0.169 C 
ATOM     15  N   UNL     1       0.463   4.096  -0.149  0.00  0.00    -0.265 N 
ATOM     16  C   UNL     1       0.253   5.197  -0.872  0.00  0.00    +0.317 C 
ATOM     17  O   UNL     1       1.124   5.782  -1.485  0.00  0.00    -0.252 OA
ATOM     18  N   UNL     1      -1.031   5.582  -0.845  0.00  0.00    -0.192 N 
ATOM     19  C   UNL     1      -1.777   4.776  -0.062  0.00  0.00    +0.248 C 
ATOM     20  O   UNL     1      -2.968   4.860   0.148  0.00  0.00    -0.273 OA
ENDROOT
BRANCH  18  21
ATOM     21  C   UNL     1      -1.534   6.683  -1.542  0.00  0.00    +0.058 A 
ATOM     22  C   UNL     1      -2.017   6.530  -2.833  0.00  0.00    +0.025 A 
ATOM     23  C   UNL     1      -2.513   7.620  -3.521  0.00  0.00    +0.002 A 
ATOM     24  C   UNL     1      -2.535   8.872  -2.928  0.00  0.00    +0.001 A 
ATOM     25  C   UNL     1      -2.060   9.042  -1.645  0.00  0.00    +0.015 A 
ATOM     26  C   UNL     1      -1.559   7.948  -0.937  0.00  0.00    +0.059 A 
BRANCH  26  27
ATOM     27  C   UNL     1      -1.054   8.123   0.439  0.00  0.00    +0.246 C 
ATOM     28  O   UNL     1      -0.615   7.169   1.051  0.00  0.00    -0.270 OA
ATOM     29  N   UNL     1      -1.080   9.340   1.016  0.00  0.00    -0.309 N 
ATOM     30  H   UNL     1      -1.430  10.102   0.528  0.00  0.00    +0.149 HD
BRANCH  29  31
ATOM     31  C   UNL     1      -0.579   9.514   2.382  0.00  0.00    +0.136 C 
BRANCH  31  32
ATOM     32  C   UNL     1      -0.721  10.980   2.795  0.00  0.00    +0.135 C 
ATOM     33  C   UNL     1      -0.085  11.212   4.183  0.00  0.00    +0.035 C 
ATOM     34  C   UNL     1      -1.024  12.234   4.861  0.00  0.00    +0.031 C 
ATOM     35  C   UNL     1      -2.117  12.499   3.802  0.00  0.00    +0.160 C 
ATOM     36  O   UNL     1      -2.114  11.322   2.966  0.00  0.00    -0.375 OA
ENDBRANCH  31  32
ENDBRANCH  29  31
ENDBRANCH  26  27
ENDBRANCH  18  21
TORSDOF 4
