REMARK  Name = ZINC00512919
REMARK  9 active torsions:
REMARK  status: ('A' for Active; 'I' for Inactive)
REMARK    1  A    between atoms: C_1  and  C_2
REMARK    2  A    between atoms: C_4  and  C_23
REMARK    3  A    between atoms: C_6  and  C_8
REMARK    4  A    between atoms: N_10  and  C_11
REMARK    5  A    between atoms: C_11  and  N_13
REMARK    6  A    between atoms: N_13  and  C_14
REMARK    7  A    between atoms: C_16  and  C_22
REMARK    8  A    between atoms: C_18  and  C_21
REMARK    9  A    between atoms: C_19  and  O_20
REMARK                            x       y       z     vdW  Elec       q    Type
REMARK                         _______ _______ _______ _____ _____    ______ ____
ROOT
ATOM      1  C   UNL     1       0.450  -2.835   4.839  0.00  0.00    +0.141 C 
ATOM      2  S   UNL     1       0.967  -4.466   4.907  0.00  0.00    -0.018 S 
ENDROOT
BRANCH   1   5
ATOM      3  C   UNL     1       0.820  -2.813   2.534  0.00  0.00    +0.250 C 
ATOM      4  O   UNL     1       1.188  -3.971   2.582  0.00  0.00    -0.270 OA
ATOM      5  N   UNL     1       0.431  -2.183   3.660  0.00  0.00    -0.264 N 
ATOM      6  H   UNL     1       0.138  -1.259   3.622  0.00  0.00    +0.157 HD
BRANCH   3  12
ATOM      7  C   UNL     1      -0.093   1.329  -0.093  0.00  0.00    +0.044 C 
ATOM      8  C   UNL     1       0.362  -0.106  -0.027  0.00  0.00    -0.049 A 
ATOM      9  C   UNL     1       0.762  -0.757  -1.181  0.00  0.00    +0.006 A 
ATOM     10  C   UNL     1       1.181  -2.074  -1.130  0.00  0.00    -0.049 A 
ATOM     11  C   UNL     1       1.202  -2.748   0.074  0.00  0.00    +0.016 A 
ATOM     12  C   UNL     1       0.800  -2.098   1.242  0.00  0.00    +0.038 A 
ATOM     13  C   UNL     1       0.384  -0.766   1.184  0.00  0.00    +0.016 A 
ATOM     14  C   UNL     1       1.614  -2.775  -2.392  0.00  0.00    +0.044 C 
ENDBRANCH   3  12
ENDBRANCH   1   5
BRANCH   1  15
ATOM     15  N   UNL     1       0.061  -2.204   5.965  0.00  0.00    -0.294 N 
ATOM     16  H   UNL     1      -0.156  -1.259   5.941  0.00  0.00    +0.154 HD
BRANCH  15  17
ATOM     17  C   UNL     1      -0.030  -2.913   7.170  0.00  0.00    +0.075 A 
ATOM     18  C   UNL     1      -0.618  -4.169   7.195  0.00  0.00    +0.030 A 
ATOM     19  C   UNL     1      -0.706  -4.867   8.384  0.00  0.00    -0.048 A 
ATOM     20  C   UNL     1      -0.208  -4.317   9.551  0.00  0.00    +0.010 A 
ATOM     21  C   UNL     1       0.380  -3.065   9.534  0.00  0.00    -0.007 A 
ATOM     22  C   UNL     1       0.476  -2.362   8.344  0.00  0.00    +0.141 A 
ATOM     23  C   UNL     1       0.920  -2.469  10.808  0.00  0.00    +0.047 C 
ATOM     24  C   UNL     1      -1.346  -6.231   8.410  0.00  0.00    +0.044 C 
BRANCH  22  25
ATOM     25  O   UNL     1       1.060  -1.133   8.325  0.00  0.00    -0.505 OA
ATOM     26  H   UNL     1       0.445  -0.404   8.480  0.00  0.00    +0.292 HD
ENDBRANCH  22  25
ENDBRANCH  15  17
ENDBRANCH   1  15
TORSDOF 5
