REMARK  Name = ZINC38104349
REMARK  7 active torsions:
REMARK  status: ('A' for Active; 'I' for Inactive)
REMARK    1  A    between atoms: C_1  and  C_2
REMARK    2  A    between atoms: C_3  and  S_8
REMARK    3  A    between atoms: S_8  and  N_11
REMARK    4  A    between atoms: N_11  and  C_12
REMARK    5  A    between atoms: C_12  and  C_13
REMARK    6  A    between atoms: C_13  and  N_14
REMARK    7  A    between atoms: N_17  and  C_20
REMARK                            x       y       z     vdW  Elec       q    Type
REMARK                         _______ _______ _______ _____ _____    ______ ____
ROOT
ATOM      1  N   UNL     1       0.791  -1.253  -3.739  0.00  0.00    -0.188 NA
ATOM      2  H   UNL     1       1.624  -1.016  -4.176  0.00  0.00    +0.148 HD
ENDROOT
BRANCH   1   3
ATOM      3  S   UNL     1      -0.011  -0.130  -2.823  0.00  0.00    +0.067 S 
ATOM      4  O   UNL     1      -1.367  -0.154  -3.248  0.00  0.00    -0.152 OA
ATOM      5  O   UNL     1       0.775   1.053  -2.851  0.00  0.00    -0.152 OA
BRANCH   3   8
ATOM      6  C   UNL     1      -0.018   1.503   0.010  0.00  0.00    +0.068 C 
ATOM      7  C   UNL     1       0.002  -0.004   0.002  0.00  0.00    +0.074 A 
ATOM      8  C   UNL     1       0.006  -0.707  -1.159  0.00  0.00    +0.166 A 
ATOM      9  S   UNL     1       0.032  -2.379  -0.532  0.00  0.00    -0.036 S 
ATOM     10  C   UNL     1       0.036  -2.010   1.110  0.00  0.00    +0.169 A 
ATOM     11  N   UNL     1       0.023  -0.700   1.123  0.00  0.00    -0.231 NA
ATOM     12 CL   UNL     1       0.058  -3.101   2.461  0.00  0.00    -0.054 Cl
ENDBRANCH   3   8
ENDBRANCH   1   3
BRANCH   1  13
ATOM     13  C   UNL     1       0.243  -2.603  -3.889  0.00  0.00    +0.121 C 
BRANCH  13  14
ATOM     14  C   UNL     1       0.942  -3.312  -5.050  0.00  0.00    +0.101 C 
BRANCH  14  15
ATOM     15  N   UNL     1       0.393  -4.666  -5.200  0.00  0.00    -0.305 NA
ATOM     16  C   UNL     1       0.724  -5.501  -4.037  0.00  0.00    +0.066 C 
ATOM     17  C   UNL     1       0.085  -6.881  -4.204  0.00  0.00    -0.064 C 
ATOM     18  N   UNL     1       0.584  -7.506  -5.436  0.00  0.00    +0.379 N 
ATOM     19  C   UNL     1       0.224  -6.673  -6.591  0.00  0.00    -0.064 C 
ATOM     20  C   UNL     1       0.865  -5.291  -6.443  0.00  0.00    +0.066 C 
ATOM     21  C   UNL     1      -0.016  -8.838  -5.587  0.00  0.00    -0.096 C 
ATOM     22  H   UNL     1       1.588  -7.594  -5.385  0.00  0.00    -0.082 HD
ENDBRANCH  14  15
ENDBRANCH  13  14
ENDBRANCH   1  13
TORSDOF 5
