REMARK  Name = ZINC52223937
REMARK  6 active torsions:
REMARK  status: ('A' for Active; 'I' for Inactive)
REMARK    1  A    between atoms: C_2  and  C_20
REMARK    2  A    between atoms: N_5  and  C_6
REMARK    3  A    between atoms: C_6  and  C_7
REMARK    4  A    between atoms: N_9  and  C_10
REMARK    5  A    between atoms: C_20  and  C_21
REMARK    6  A    between atoms: C_21  and  O_22
REMARK                            x       y       z     vdW  Elec       q    Type
REMARK                         _______ _______ _______ _____ _____    ______ ____
ROOT
ATOM      1  C   UNL     1      -1.101  -1.826  -1.161  0.00  0.00    +0.235 C 
ATOM      2  O   UNL     1      -0.161  -1.776  -1.925  0.00  0.00    -0.274 OA
ATOM      3  N   UNL     1      -2.082  -2.729  -1.358  0.00  0.00    -0.308 N 
ATOM      4  H   UNL     1      -2.834  -2.769  -0.746  0.00  0.00    +0.149 HD
ENDROOT
BRANCH   3   5
ATOM      5  C   UNL     1      -2.013  -3.650  -2.495  0.00  0.00    +0.113 C 
ATOM      6  C   UNL     1      -1.128  -4.854  -2.101  0.00  0.00    +0.189 C 
ATOM      7  S   UNL     1      -2.406  -6.109  -1.653  0.00  0.00    -0.028 S 
ATOM      8  O   UNL     1      -1.950  -7.400  -2.031  0.00  0.00    -0.174 OA
ATOM      9  O   UNL     1      -2.846  -5.878  -0.322  0.00  0.00    -0.174 OA
ATOM     10  C   UNL     1      -3.709  -5.550  -2.835  0.00  0.00    +0.187 C 
ATOM     11  C   UNL     1      -3.429  -4.035  -2.895  0.00  0.00    +0.123 C 
ATOM     12 CL   UNL     1      -3.725  -3.467  -4.580  0.00  0.00    -0.118 Cl
ENDBRANCH   3   5
BRANCH   1  13
ATOM     13  C   UNL     1      -1.173  -0.878   0.009  0.00  0.00    +0.240 C 
BRANCH  13  18
ATOM     14  C   UNL     1      -0.016   1.349   0.009  0.00  0.00    +0.134 A 
ATOM     15  C   UNL     1       1.278   1.744  -0.001  0.00  0.00    +0.085 A 
ATOM     16  N   UNL     1       2.016   0.627  -0.014  0.00  0.00    -0.134 NA
ATOM     17  N   UNL     1       1.230  -0.391  -0.012  0.00  0.00    -0.065 NA
ATOM     18  N   UNL     1       0.002  -0.004   0.002  0.00  0.00    -0.243 N 
BRANCH  15  19
ATOM     19  C   UNL     1       1.789   3.162   0.002  0.00  0.00    +0.086 C 
BRANCH  19  20
ATOM     20  C   UNL     1       2.751   3.355   1.175  0.00  0.00    +0.162 C 
BRANCH  20  21
ATOM     21  O   UNL     1       3.235   4.700   1.177  0.00  0.00    -0.395 OA
ATOM     22  H   UNL     1       3.852   4.895   1.896  0.00  0.00    +0.209 HD
ENDBRANCH  20  21
ENDBRANCH  19  20
ENDBRANCH  15  19
ENDBRANCH  13  18
ENDBRANCH   1  13
TORSDOF 6
