REMARK  Name = ZINC32870819
REMARK  6 active torsions:
REMARK  status: ('A' for Active; 'I' for Inactive)
REMARK    1  A    between atoms: C_1  and  C_2
REMARK    2  A    between atoms: N_11  and  C_12
REMARK    3  A    between atoms: C_12  and  C_13
REMARK    4  A    between atoms: C_13  and  C_14
REMARK    5  A    between atoms: N_16  and  C_17
REMARK    6  A    between atoms: C_18  and  C_22
REMARK                            x       y       z     vdW  Elec       q    Type
REMARK                         _______ _______ _______ _____ _____    ______ ____
ROOT
ATOM      1  C   UNL     1      -3.521   6.999  -1.737  0.00  0.00    +0.219 C 
ATOM      2  O   UNL     1      -2.418   7.396  -2.049  0.00  0.00    -0.275 OA
ATOM      3  N   UNL     1      -4.615   7.704  -2.087  0.00  0.00    -0.279 N 
ATOM      4  H   UNL     1      -5.615   7.344  -1.804  0.00  0.00    +0.155 HD
ENDROOT
BRANCH   3   5
ATOM      5  C   UNL     1      -4.480   8.884  -2.803  0.00  0.00    +0.084 A 
ATOM      6  C   UNL     1      -5.478   9.739  -3.256  0.00  0.00    +0.065 A 
ATOM      7  C   UNL     1      -5.050  10.911  -3.981  0.00  0.00    +0.022 A 
ATOM      8  C   UNL     1      -3.727  11.070  -4.165  0.00  0.00    +0.048 A 
ATOM      9  S   UNL     1      -3.027   9.646  -3.357  0.00  0.00    -0.081 S 
BRANCH   6  10
ATOM     10  C   UNL     1      -6.897   9.465  -3.006  0.00  0.00    +0.244 C 
ATOM     11  O   UNL     1      -7.224   8.469  -2.388  0.00  0.00    -0.270 OA
ATOM     12  N   UNL     1      -7.838  10.316  -3.460  0.00  0.00    -0.325 N 
ATOM     13  H   UNL     1      -8.902  10.111  -3.272  0.00  0.00    +0.145 HD
ATOM     14  H   UNL     1      -7.541  11.216  -4.018  0.00  0.00    +0.145 HD
ENDBRANCH   6  10
ENDBRANCH   3   5
BRANCH   1  15
ATOM     15  C   UNL     1      -3.668   5.717  -0.959  0.00  0.00    +0.115 C 
BRANCH  15  16
ATOM     16  C   UNL     1      -2.284   5.120  -0.693  0.00  0.00    +0.114 C 
BRANCH  16  27
ATOM     17  C   UNL     1       2.682   1.515   0.806  0.00  0.00    +0.044 C 
ATOM     18  C   UNL     1       1.320   2.128   0.605  0.00  0.00    -0.050 A 
ATOM     19  C   UNL     1       1.176   3.503   0.576  0.00  0.00    +0.005 A 
ATOM     20  C   UNL     1      -0.071   4.061   0.394  0.00  0.00    +0.023 A 
ATOM     21  C   UNL     1      -1.193   3.246   0.236  0.00  0.00    +0.033 A 
ATOM     22  C   UNL     1      -1.042   1.871   0.255  0.00  0.00    -0.026 A 
ATOM     23  C   UNL     1       0.214   1.317   0.448  0.00  0.00    +0.008 A 
ATOM     24  C   UNL     1      -2.212   0.935   0.078  0.00  0.00    +0.038 C 
ATOM     25  C   UNL     1      -3.521   1.704   0.272  0.00  0.00    +0.024 C 
ATOM     26  C   UNL     1      -3.434   2.999  -0.544  0.00  0.00    +0.105 C 
ATOM     27  N   UNL     1      -2.428   3.871   0.065  0.00  0.00    -0.329 N 
ENDBRANCH  16  27
ENDBRANCH  15  16
ENDBRANCH   1  15
TORSDOF 5
