REMARK  Name = ZINC52712257
REMARK  10 active torsions:
REMARK  status: ('A' for Active; 'I' for Inactive)
REMARK    1  A    between atoms: C_1  and  C_2
REMARK    2  A    between atoms: C_2  and  O_3
REMARK    3  A    between atoms: O_3  and  C_4
REMARK    4  A    between atoms: C_11  and  C_13
REMARK    5  A    between atoms: C_13  and  C_15
REMARK    6  A    between atoms: C_13  and  N_16
REMARK    7  A    between atoms: N_16  and  C_17
REMARK    8  A    between atoms: C_17  and  C_19
REMARK    9  A    between atoms: C_17  and  C_20
REMARK   10  A    between atoms: C_25  and  C_28
REMARK                            x       y       z     vdW  Elec       q    Type
REMARK                         _______ _______ _______ _____ _____    ______ ____
ROOT
ATOM      1  N   UNL     1       4.129  -1.262  -5.460  0.00  0.00    +0.393 N 
ATOM      2  H   UNL     1       4.495  -0.902  -6.329  0.00  0.00    -0.084 HD
ATOM      3  H   UNL     1       3.593  -0.544  -4.997  0.00  0.00    -0.084 HD
ENDROOT
BRANCH   1   4
ATOM      4  C   UNL     1       3.266  -2.419  -5.733  0.00  0.00    -0.006 C 
ATOM      5  C   UNL     1       2.187  -2.022  -6.742  0.00  0.00    -0.006 C 
BRANCH   4  13
ATOM      6  C   UNL     1       1.000  -2.398  -1.278  0.00  0.00    +0.163 A 
ATOM      7  C   UNL     1       0.551  -3.378  -0.412  0.00  0.00    +0.049 A 
ATOM      8  C   UNL     1       0.706  -4.721  -0.723  0.00  0.00    +0.004 A 
ATOM      9  C   UNL     1       1.310  -5.097  -1.902  0.00  0.00    +0.012 A 
ATOM     10  C   UNL     1       1.768  -4.119  -2.785  0.00  0.00    +0.024 A 
ATOM     11  C   UNL     1       1.610  -2.759  -2.478  0.00  0.00    +0.176 A 
ATOM     12  O   UNL     1       2.132  -2.053  -3.502  0.00  0.00    -0.458 OA
ATOM     13  C   UNL     1       2.613  -2.872  -4.452  0.00  0.00    +0.092 A 
ATOM     14  C   UNL     1       2.439  -4.151  -4.091  0.00  0.00    +0.051 A 
BRANCH   6  15
ATOM     15  O   UNL     1       0.844  -1.085  -0.962  0.00  0.00    -0.489 OA
BRANCH  15  17
ATOM     16  C   UNL     1       0.123   0.727   0.465  0.00  0.00    +0.048 C 
ATOM     17  C   UNL     1       0.211  -0.790   0.285  0.00  0.00    +0.226 C 
ENDBRANCH  15  17
ENDBRANCH   6  15
ENDBRANCH   4  13
ENDBRANCH   1   4
BRANCH   1  18
ATOM     18  C   UNL     1       5.242  -1.676  -4.595  0.00  0.00    +0.014 C 
ATOM     19  C   UNL     1       6.142  -2.653  -5.353  0.00  0.00    -0.004 C 
BRANCH  18  20
ATOM     20  C   UNL     1       6.043  -0.464  -4.192  0.00  0.00    +0.204 C 
ATOM     21  O   UNL     1       5.718   0.636  -4.587  0.00  0.00    -0.277 OA
ATOM     22  N   UNL     1       7.119  -0.603  -3.393  0.00  0.00    -0.269 N 
ATOM     23  C   UNL     1       7.861   0.519  -3.021  0.00  0.00    +0.168 A 
ATOM     24  C   UNL     1       7.596   1.854  -3.400  0.00  0.00    +0.091 A 
ATOM     25  C   UNL     1       8.532   2.641  -2.840  0.00  0.00    +0.136 A 
ATOM     26  O   UNL     1       9.365   1.861  -2.133  0.00  0.00    -0.358 OA
ATOM     27  N   UNL     1       8.921   0.522  -2.254  0.00  0.00    -0.063 NA
ATOM     28  C   UNL     1       8.630   4.138  -2.983  0.00  0.00    +0.089 C 
ATOM     29  H   UNL     1       7.379  -1.482  -3.077  0.00  0.00    +0.156 HD
ENDBRANCH  18  20
ENDBRANCH   1  18
TORSDOF 6
