REMARK  Name = ZINC48843965
REMARK  3 active torsions:
REMARK  status: ('A' for Active; 'I' for Inactive)
REMARK    1  A    between atoms: C_4  and  N_10
REMARK    2  A    between atoms: C_6  and  N_9
REMARK    3  A    between atoms: C_16  and  C_19
REMARK                            x       y       z     vdW  Elec       q    Type
REMARK                         _______ _______ _______ _____ _____    ______ ____
ROOT
ATOM      1  N   UNL     1       2.863  -0.455   0.026  0.00  0.00    -0.298 N 
ATOM      2  C   UNL     1       4.206  -0.564   0.014  0.00  0.00    +0.302 C 
ATOM      3  O   UNL     1       4.856  -0.186   0.970  0.00  0.00    -0.253 OA
ATOM      4  N   UNL     1       4.830  -1.093  -1.058  0.00  0.00    -0.286 N 
ATOM      5  C   UNL     1       4.072  -1.447  -2.265  0.00  0.00    +0.110 C 
ATOM      6  C   UNL     1       4.365  -2.908  -2.621  0.00  0.00    +0.034 C 
ATOM      7  C   UNL     1       5.878  -3.104  -2.748  0.00  0.00    +0.105 C 
ATOM      8  C   UNL     1       6.549  -2.788  -1.410  0.00  0.00    +0.034 C 
ATOM      9  C   UNL     1       6.281  -1.321  -1.042  0.00  0.00    +0.110 C 
ATOM     10  H   UNL     1       2.350  -0.688  -0.764  0.00  0.00    +0.150 HD
ENDROOT
BRANCH   1  14
ATOM     11  C   UNL     1      -0.020   1.523   0.013  0.00  0.00    -0.001 C 
ATOM     12  C   UNL     1       1.415   2.054   0.002  0.00  0.00    +0.002 C 
ATOM     13  C   UNL     1       2.156   1.546   1.241  0.00  0.00    +0.021 C 
ATOM     14  C   UNL     1       2.177   0.017   1.232  0.00  0.00    +0.060 C 
ATOM     15  C   UNL     1       0.742  -0.514   1.242  0.00  0.00    -0.054 C 
ATOM     16  C   UNL     1       0.002  -0.007   0.003  0.00  0.00    -0.014 C 
BRANCH  15  17
ATOM     17  N   UNL     1       0.763  -1.983   1.233  0.00  0.00    +0.381 N 
ATOM     18  H   UNL     1       1.252  -2.317   2.050  0.00  0.00    -0.090 HD
ATOM     19  H   UNL     1      -0.183  -2.333   1.240  0.00  0.00    -0.090 HD
ATOM     20  H   UNL     1       1.236  -2.307   0.403  0.00  0.00    -0.090 HD
ENDBRANCH  15  17
ENDBRANCH   1  14
BRANCH   7  21
ATOM     21  C   UNL     1       6.169  -4.532  -3.132  0.00  0.00    +0.359 C 
ATOM     22  O   UNL     1       7.046  -4.779  -3.942  0.00  0.00    -0.246 OA
ATOM     23  O   UNL     1       5.527  -5.440  -2.632  0.00  0.00    -0.246 OA
ENDBRANCH   7  21
TORSDOF 3
