REMARK  Name = ZINC62732920
REMARK  10 active torsions:
REMARK  status: ('A' for Active; 'I' for Inactive)
REMARK    1  A    between atoms: C_1  and  C_2
REMARK    2  A    between atoms: C_2  and  C_4
REMARK    3  A    between atoms: C_2  and  O_6
REMARK    4  A    between atoms: O_6  and  C_7
REMARK    5  A    between atoms: C_8  and  C_15
REMARK    6  A    between atoms: C_15  and  N_16
REMARK    7  A    between atoms: N_16  and  C_17
REMARK    8  A    between atoms: C_17  and  C_18
REMARK    9  A    between atoms: C_17  and  C_19
REMARK   10  A    between atoms: C_17  and  C_20
REMARK                            x       y       z     vdW  Elec       q    Type
REMARK                         _______ _______ _______ _____ _____    ______ ____
ROOT
ATOM      1  C   UNL     1      -0.778  -0.709  -1.155  0.00  0.00    +0.142 A 
ATOM      2  C   UNL     1      -1.578   0.281  -1.706  0.00  0.00    -0.020 A 
ATOM      3  C   UNL     1      -2.134   0.102  -2.958  0.00  0.00    +0.025 A 
ATOM      4  C   UNL     1      -1.894  -1.065  -3.663  0.00  0.00    +0.043 A 
ATOM      5  C   UNL     1      -1.097  -2.054  -3.116  0.00  0.00    +0.043 A 
ATOM      6  C   UNL     1      -0.534  -1.877  -1.865  0.00  0.00    +0.084 A 
ATOM      7 CL   UNL     1       0.473  -3.115  -1.182  0.00  0.00    -0.080 Cl
ATOM      8 CL   UNL     1      -2.595  -1.287  -5.235  0.00  0.00    -0.083 Cl
ENDROOT
BRANCH   1   9
ATOM      9  O   UNL     1      -0.230  -0.535   0.077  0.00  0.00    -0.473 OA
BRANCH   9  11
ATOM     10  C   UNL     1      -0.859  -2.332   1.565  0.00  0.00    +0.068 C 
ATOM     11  C   UNL     1      -1.048  -0.858   1.203  0.00  0.00    +0.271 C 
BRANCH  11  12
ATOM     12  C   UNL     1      -0.661  -0.018   2.348  0.00  0.00    +0.107 C 
ATOM     13  N   UNL     1      -0.362   0.631   3.231  0.00  0.00    -0.193 NA
ENDBRANCH  11  12
ENDBRANCH   9  11
ENDBRANCH   1   9
BRANCH   2  14
ATOM     14  C   UNL     1      -1.840   1.551  -0.939  0.00  0.00    -0.042 C 
BRANCH  14  15
ATOM     15  N   UNL     1      -0.669   2.433  -1.037  0.00  0.00    +0.385 N 
ATOM     16  H   UNL     1       0.135   1.970  -0.641  0.00  0.00    -0.085 HD
ATOM     17  H   UNL     1      -0.490   2.647  -2.007  0.00  0.00    -0.085 HD
BRANCH  15  18
ATOM     18  C   UNL     1      -0.930   3.677  -0.301  0.00  0.00    -0.077 C 
ATOM     19  C   UNL     1      -1.226   3.351   1.164  0.00  0.00    -0.011 C 
ATOM     20  C   UNL     1       0.298   4.586  -0.383  0.00  0.00    -0.011 C 
ATOM     21  C   UNL     1      -2.135   4.392  -0.918  0.00  0.00    -0.011 C 
ENDBRANCH  15  18
ENDBRANCH  14  15
ENDBRANCH   2  14
TORSDOF 6
