REMARK  Name = ZINC57789474
REMARK  11 active torsions:
REMARK  status: ('A' for Active; 'I' for Inactive)
REMARK    1  A    between atoms: C_1  and  C_2
REMARK    2  A    between atoms: C_2  and  C_4
REMARK    3  A    between atoms: C_2  and  N_6
REMARK    4  A    between atoms: C_4  and  N_5
REMARK    5  A    between atoms: C_9  and  C_21
REMARK    6  A    between atoms: C_14  and  C_18
REMARK    7  A    between atoms: C_18  and  C_19
REMARK    8  A    between atoms: C_18  and  C_20
REMARK    9  A    between atoms: C_21  and  C_22
REMARK   10  A    between atoms: C_21  and  C_23
REMARK   11  A    between atoms: C_21  and  C_24
REMARK                            x       y       z     vdW  Elec       q    Type
REMARK                         _______ _______ _______ _____ _____    ______ ____
ROOT
ATOM      1  N   UNL     1       1.051  -0.727   0.658  0.00  0.00    -0.264 N 
ATOM      2  C   UNL     1       0.269  -1.617   1.407  0.00  0.00    +0.079 A 
ATOM      3  C   UNL     1      -0.718  -2.376   0.799  0.00  0.00    +0.031 A 
ATOM      4  C   UNL     1      -1.479  -3.248   1.556  0.00  0.00    -0.040 A 
ATOM      5  C   UNL     1      -1.257  -3.364   2.916  0.00  0.00    +0.008 A 
ATOM      6  C   UNL     1      -0.273  -2.610   3.529  0.00  0.00    +0.048 A 
ATOM      7  C   UNL     1       0.493  -1.736   2.778  0.00  0.00    +0.143 A 
ATOM      8  O   UNL     1       1.468  -0.989   3.363  0.00  0.00    -0.477 OA
ATOM      9  C   UNL     1       2.622  -0.702   2.568  0.00  0.00    +0.262 C 
ATOM     10  C   UNL     1       2.195  -0.250   1.195  0.00  0.00    +0.261 C 
ATOM     11  O   UNL     1       2.874   0.542   0.576  0.00  0.00    -0.271 OA
ENDROOT
BRANCH   4  12
ATOM     12  C   UNL     1      -2.554  -4.073   0.898  0.00  0.00    -0.013 C 
ATOM     13  C   UNL     1      -1.926  -4.965  -0.176  0.00  0.00    +0.015 C 
ATOM     14  C   UNL     1      -3.242  -4.948   1.948  0.00  0.00    +0.015 C 
ATOM     15  C   UNL     1      -3.585  -3.146   0.251  0.00  0.00    +0.015 C 
ENDBRANCH   4  12
BRANCH   9  16
ATOM     16  C   UNL     1       3.478  -1.963   2.440  0.00  0.00    +0.033 C 
ATOM     17  C   UNL     1       3.974  -2.385   3.825  0.00  0.00    +0.011 C 
ATOM     18  C   UNL     1       2.640  -3.089   1.832  0.00  0.00    +0.011 C 
ENDBRANCH   9  16
BRANCH   1  20
ATOM     19  C   UNL     1       0.341   1.177  -0.704  0.00  0.00    +0.026 C 
ATOM     20  C   UNL     1       0.637  -0.324  -0.688  0.00  0.00    +0.061 C 
BRANCH  20  21
ATOM     21  C   UNL     1       1.759  -0.633  -1.681  0.00  0.00    -0.064 C 
BRANCH  21  22
ATOM     22  N   UNL     1       2.076  -2.067  -1.632  0.00  0.00    +0.379 N 
ATOM     23  H   UNL     1       2.368  -2.315  -0.699  0.00  0.00    -0.090 HD
ATOM     24  H   UNL     1       1.257  -2.600  -1.881  0.00  0.00    -0.090 HD
ATOM     25  H   UNL     1       2.820  -2.269  -2.282  0.00  0.00    -0.090 HD
ENDBRANCH  21  22
ENDBRANCH  20  21
ENDBRANCH   1  20
TORSDOF 5
