REMARK  Name = ZINC04588638
REMARK  4 active torsions:
REMARK  status: ('A' for Active; 'I' for Inactive)
REMARK    1  A    between atoms: C_3  and  O_19
REMARK    2  A    between atoms: C_6  and  C_7
REMARK    3  A    between atoms: C_9  and  C_12
REMARK    4  A    between atoms: C_15  and  O_18
REMARK                            x       y       z     vdW  Elec       q    Type
REMARK                         _______ _______ _______ _____ _____    ______ ____
ROOT
ATOM      1  C   UNL     1       2.481   1.068  -0.015  0.00  0.00    +0.202 A 
ATOM      2  N   UNL     1       3.708   1.629  -0.030  0.00  0.00    -0.187 NA
ATOM      3  C   UNL     1       4.558   0.618  -0.038  0.00  0.00    +0.259 A 
ATOM      4  O   UNL     1       3.825  -0.507  -0.037  0.00  0.00    -0.332 OA
ATOM      5  N   UNL     1       2.644  -0.231  -0.024  0.00  0.00    -0.056 NA
ENDROOT
BRANCH   1  11
ATOM      6  C   UNL     1      -0.013   1.076   0.008  0.00  0.00    +0.015 A 
ATOM      7  C   UNL     1      -1.216   1.750   0.017  0.00  0.00    +0.046 A 
ATOM      8  C   UNL     1      -1.235   3.138   0.030  0.00  0.00    +0.117 A 
ATOM      9  C   UNL     1      -0.044   3.852   0.023  0.00  0.00    +0.046 A 
ATOM     10  C   UNL     1       1.162   3.183   0.008  0.00  0.00    +0.015 A 
ATOM     11  C   UNL     1       1.185   1.790   0.000  0.00  0.00    +0.023 A 
BRANCH   8  12
ATOM     12  O   UNL     1      -2.421   3.799   0.045  0.00  0.00    -0.507 OA
ATOM     13  H   UNL     1      -2.773   3.995  -0.834  0.00  0.00    +0.292 HD
ENDBRANCH   8  12
ENDBRANCH   1  11
BRANCH   3  14
ATOM     14  C   UNL     1       6.032   0.708  -0.052  0.00  0.00    +0.040 A 
ATOM     15  C   UNL     1       6.657   1.957  -0.057  0.00  0.00    +0.017 A 
ATOM     16  C   UNL     1       8.032   2.037  -0.065  0.00  0.00    +0.046 A 
ATOM     17  C   UNL     1       8.797   0.877  -0.079  0.00  0.00    +0.117 A 
ATOM     18  C   UNL     1       8.179  -0.368  -0.079  0.00  0.00    +0.046 A 
ATOM     19  C   UNL     1       6.804  -0.456  -0.066  0.00  0.00    +0.017 A 
BRANCH  17  20
ATOM     20  O   UNL     1      10.152   0.959  -0.092  0.00  0.00    -0.507 OA
ATOM     21  H   UNL     1      10.536   0.988  -0.979  0.00  0.00    +0.292 HD
ENDBRANCH  17  20
ENDBRANCH   3  14
TORSDOF 4
