REMARK  Name = ZINC57848509
REMARK  4 active torsions:
REMARK  status: ('A' for Active; 'I' for Inactive)
REMARK    1  A    between atoms: C_6  and  C_7
REMARK    2  A    between atoms: N_11  and  C_15
REMARK    3  A    between atoms: C_15  and  C_16
REMARK    4  A    between atoms: C_16  and  C_17
REMARK                            x       y       z     vdW  Elec       q    Type
REMARK                         _______ _______ _______ _____ _____    ______ ____
ROOT
ATOM      1  C   UNL     1      -1.293  -0.775   0.011  0.00  0.00    +0.191 C 
ATOM      2  C   UNL     1      -1.585  -1.311   1.398  0.00  0.00    +0.248 C 
ATOM      3  O   UNL     1      -1.759  -0.667   2.410  0.00  0.00    -0.273 OA
ATOM      4  N   UNL     1      -1.611  -2.653   1.272  0.00  0.00    -0.224 N 
ATOM      5  C   UNL     1      -1.379  -3.035   0.011  0.00  0.00    +0.309 C 
ATOM      6  O   UNL     1      -1.353  -4.195  -0.350  0.00  0.00    -0.252 OA
ATOM      7  N   UNL     1      -1.179  -1.988  -0.817  0.00  0.00    -0.284 N 
ATOM      8  H   UNL     1      -0.996  -2.026  -1.768  0.00  0.00    +0.151 HD
ENDROOT
BRANCH   1  14
ATOM      9  C   UNL     1      -0.017   1.378   0.010  0.00  0.00    +0.007 A 
ATOM     10  C   UNL     1       1.171   2.086   0.002  0.00  0.00    +0.020 A 
ATOM     11  C   UNL     1       2.378   1.410  -0.013  0.00  0.00    +0.041 A 
ATOM     12  C   UNL     1       2.396   0.027  -0.021  0.00  0.00    +0.020 A 
ATOM     13  C   UNL     1       1.208  -0.679  -0.013  0.00  0.00    +0.007 A 
ATOM     14  C   UNL     1       0.002  -0.004   0.002  0.00  0.00    -0.018 A 
ATOM     15 CL   UNL     1       3.870   2.298  -0.023  0.00  0.00    -0.084 Cl
ENDBRANCH   1  14
BRANCH   4  16
ATOM     16  C   UNL     1      -1.863  -3.579   2.379  0.00  0.00    +0.116 C 
BRANCH  16  17
ATOM     17  C   UNL     1      -3.365  -3.847   2.488  0.00  0.00    +0.004 C 
BRANCH  17  18
ATOM     18  C   UNL     1      -3.627  -4.814   3.645  0.00  0.00    -0.070 C 
ATOM     19  C   UNL     1      -5.112  -5.181   3.675  0.00  0.00    -0.016 C 
ATOM     20  C   UNL     1      -5.370  -6.149   4.833  0.00  0.00    -0.003 C 
ATOM     21  C   UNL     1      -4.906  -5.500   6.140  0.00  0.00    -0.019 C 
ATOM     22  C   UNL     1      -3.428  -5.122   6.019  0.00  0.00    -0.082 C 
ATOM     23  N   UNL     1      -3.252  -4.175   4.911  0.00  0.00    +0.381 N 
ATOM     24  H   UNL     1      -2.287  -3.886   4.868  0.00  0.00    -0.086 HD
ATOM     25  H   UNL     1      -3.837  -3.366   5.065  0.00  0.00    -0.086 HD
ENDBRANCH  17  18
ENDBRANCH  16  17
ENDBRANCH   4  16
TORSDOF 4
