REMARK  Name = ZINC12309375
REMARK  8 active torsions:
REMARK  status: ('A' for Active; 'I' for Inactive)
REMARK    1  A    between atoms: C_1  and  C_2
REMARK    2  A    between atoms: C_8  and  C_10
REMARK    3  A    between atoms: C_10  and  O_11
REMARK    4  A    between atoms: O_11  and  N_12
REMARK    5  A    between atoms: N_12  and  C_13
REMARK    6  A    between atoms: C_14  and  C_28
REMARK    7  A    between atoms: N_22  and  C_27
REMARK    8  A    between atoms: N_25  and  C_26
REMARK                            x       y       z     vdW  Elec       q    Type
REMARK                         _______ _______ _______ _____ _____    ______ ____
ROOT
ATOM      1  C   UNL     1      -0.018   1.472   0.010  0.00  0.00    +0.081 A 
ATOM      2  C   UNL     1       0.015   0.021  -0.259  0.00  0.00    -0.008 A 
ATOM      3  C   UNL     1       1.151  -0.651  -0.014  0.00  0.00    +0.089 A 
ATOM      4  N   UNL     1       2.267  -0.028   0.478  0.00  0.00    -0.347 N 
ATOM      5  H   UNL     1       3.097  -0.626   0.884  0.00  0.00    +0.167 HD
ATOM      6  C   UNL     1       2.395   1.325   0.486  0.00  0.00    +0.129 A 
ATOM      7  C   UNL     1       1.280   2.128   0.262  0.00  0.00    +0.106 A 
ATOM      8  C   UNL     1       1.419   3.535   0.279  0.00  0.00    +0.268 A 
ATOM      9  O   UNL     1       0.457   4.256   0.088  0.00  0.00    -0.267 OA
ATOM     10  N   UNL     1       2.640   4.063   0.512  0.00  0.00    -0.263 N 
ATOM     11  C   UNL     1       3.704   3.270   0.722  0.00  0.00    +0.333 A 
ATOM     12  O   UNL     1       4.789   3.780   0.926  0.00  0.00    -0.246 OA
ATOM     13  N   UNL     1       3.605   1.928   0.713  0.00  0.00    -0.282 N 
ATOM     14  C   UNL     1       4.796   1.107   0.948  0.00  0.00    +0.155 C 
ATOM     15  C   UNL     1       2.806   5.519   0.535  0.00  0.00    +0.157 C 
ATOM     16  C   UNL     1      -1.200  -0.691  -0.795  0.00  0.00    +0.047 C 
ENDROOT
BRANCH   1  17
ATOM     17  N   UNL     1      -1.145   2.147   0.019  0.00  0.00    -0.264 N 
ATOM     18  H   UNL     1      -2.021   1.763  -0.525  0.00  0.00    +0.194 HD
BRANCH  17  19
ATOM     19  O   UNL     1      -1.233   3.369   0.730  0.00  0.00    -0.265 OA
BRANCH  19  20
ATOM     20  C   UNL     1      -2.516   3.994   0.653  0.00  0.00    +0.288 C 
BRANCH  20  28
ATOM     21  C   UNL     1      -2.228   9.908   4.346  0.00  0.00    +0.089 C 
ATOM     22  C   UNL     1      -2.974   8.923   3.483  0.00  0.00    +0.136 A 
ATOM     23  C   UNL     1      -2.486   7.775   2.959  0.00  0.00    +0.091 A 
ATOM     24  C   UNL     1      -3.584   7.233   2.240  0.00  0.00    +0.168 A 
ATOM     25  N   UNL     1      -4.572   8.075   2.393  0.00  0.00    -0.063 NA
ATOM     26  O   UNL     1      -4.251   9.014   3.084  0.00  0.00    -0.358 OA
ATOM     27  N   UNL     1      -3.603   6.044   1.511  0.00  0.00    -0.266 N 
ATOM     28  C   UNL     1      -2.496   5.279   1.441  0.00  0.00    +0.247 C 
ATOM     29  O   UNL     1      -1.483   5.625   2.011  0.00  0.00    -0.273 OA
ATOM     30  H   UNL     1      -4.522   5.730   0.994  0.00  0.00    +0.156 HD
ENDBRANCH  20  28
ENDBRANCH  19  20
ENDBRANCH  17  19
ENDBRANCH   1  17
TORSDOF 4
