REMARK  Name = ZINC04223171
REMARK  3 active torsions:
REMARK  status: ('A' for Active; 'I' for Inactive)
REMARK    1  A    between atoms: C_6  and  N_7
REMARK    2  A    between atoms: C_8  and  C_10
REMARK    3  A    between atoms: C_10  and  C_11
REMARK                            x       y       z     vdW  Elec       q    Type
REMARK                         _______ _______ _______ _____ _____    ______ ____
ROOT
ATOM      1  C   UNL     1       3.764   7.551  -0.891  0.00  0.00    +0.089 C 
ENDROOT
BRANCH   1   2
ATOM      2  C   UNL     1       5.200   8.052  -0.724  0.00  0.00    +0.025 C 
ATOM      3  C   UNL     1       5.223   9.546  -0.873  0.00  0.00    +0.200 C 
ATOM      4  O   UNL     1       4.364  10.195  -0.315  0.00  0.00    -0.278 OA
ATOM      5  N   UNL     1       6.146  10.198  -1.594  0.00  0.00    -0.315 N 
ATOM      6  C   UNL     1       7.171   9.493  -2.352  0.00  0.00    +0.059 C 
ATOM      7  C   UNL     1       8.506  10.233  -2.315  0.00  0.00    +0.020 C 
ATOM      8  C   UNL     1       9.517   9.473  -3.179  0.00  0.00    +0.002 C 
ATOM      9  C   UNL     1       9.692   8.050  -2.650  0.00  0.00    -0.001 C 
ATOM     10  C   UNL     1       8.346   7.319  -2.659  0.00  0.00    -0.014 C 
ATOM     11  C   UNL     1       7.361   8.086  -1.780  0.00  0.00    -0.050 C 
ATOM     12  H   UNL     1       6.131  11.167  -1.612  0.00  0.00    +0.149 HD
ATOM     13  N   UNL     1       6.055   7.415  -1.739  0.00  0.00    +0.390 N 
ATOM     14  H   UNL     1       5.605   7.487  -2.659  0.00  0.00    -0.084 HD
ATOM     15  H   UNL     1       6.188   6.425  -1.500  0.00  0.00    -0.084 HD
ENDBRANCH   1   2
BRANCH   1  17
ATOM     16  N   UNL     1       2.545   5.406  -0.709  0.00  0.00    -0.285 N 
ATOM     17  C   UNL     1       3.715   6.069  -0.621  0.00  0.00    +0.216 C 
ATOM     18  O   UNL     1       4.729   5.473  -0.325  0.00  0.00    -0.276 OA
ATOM     19  H   UNL     1       1.749   5.866  -1.020  0.00  0.00    +0.155 HD
BRANCH  16  25
ATOM     20  C   UNL     1       3.280   3.564   0.671  0.00  0.00    +0.027 A 
ATOM     21  C   UNL     1       3.214   2.230   1.023  0.00  0.00    +0.051 A 
ATOM     22  C   UNL     1       2.348   1.375   0.358  0.00  0.00    +0.162 A 
ATOM     23  C   UNL     1       1.541   1.863  -0.664  0.00  0.00    +0.164 A 
ATOM     24  C   UNL     1       1.608   3.201  -1.018  0.00  0.00    +0.072 A 
ATOM     25  C   UNL     1       2.478   4.053  -0.351  0.00  0.00    +0.037 A 
ATOM     26  O   UNL     1       0.681   1.041  -1.326  0.00  0.00    -0.485 OA
ATOM     27  C   UNL     1       0.909  -0.367  -1.197  0.00  0.00    +0.270 C 
ATOM     28  C   UNL     1       1.154  -0.681   0.285  0.00  0.00    +0.270 C 
ATOM     29  O   UNL     1       2.299   0.063   0.717  0.00  0.00    -0.485 OA
ENDBRANCH  16  25
ENDBRANCH   1  17
TORSDOF 3
