REMARK  Name = ZINC36269048
REMARK  4 active torsions:
REMARK  status: ('A' for Active; 'I' for Inactive)
REMARK    1  A    between atoms: C_3  and  N_11
REMARK    2  A    between atoms: C_6  and  S_7
REMARK    3  A    between atoms: S_7  and  N_10
REMARK    4  A    between atoms: N_11  and  C_12
REMARK                            x       y       z     vdW  Elec       q    Type
REMARK                         _______ _______ _______ _____ _____    ______ ____
ROOT
ATOM      1  N   UNL     1       3.594   1.999  -0.022  0.00  0.00    -0.326 N 
ATOM      2  H   UNL     1       4.422   1.495  -0.033  0.00  0.00    +0.148 HD
ENDROOT
BRANCH   1   3
ATOM      3  C   UNL     1       3.628   3.463  -0.015  0.00  0.00    +0.069 C 
ATOM      4  C   UNL     1       3.504   3.986  -1.449  0.00  0.00    +0.003 C 
ATOM      5  C   UNL     1       3.578   5.513  -1.443  0.00  0.00    -0.080 C 
ATOM      6  N   UNL     1       4.880   5.943  -0.914  0.00  0.00    +0.383 N 
ATOM      7  C   UNL     1       5.035   5.464   0.461  0.00  0.00    -0.067 C 
ATOM      8  C   UNL     1       4.956   3.943   0.581  0.00  0.00    +0.010 C 
ATOM      9  C   UNL     1       4.144   6.200   1.471  0.00  0.00    -0.012 C 
ATOM     10  C   UNL     1       5.342   6.161   2.435  0.00  0.00    -0.003 C 
ATOM     11  C   UNL     1       6.242   6.071   1.190  0.00  0.00    -0.012 C 
ATOM     12  H   UNL     1       5.617   5.563  -1.488  0.00  0.00    -0.085 HD
ATOM     13  H   UNL     1       4.931   6.951  -0.927  0.00  0.00    -0.085 HD
ENDBRANCH   1   3
BRANCH   1  16
ATOM     14  C   UNL     1      -0.017   1.384   0.010  0.00  0.00    +0.033 A 
ATOM     15  C   UNL     1       1.190   2.061   0.002  0.00  0.00    +0.045 A 
ATOM     16  C   UNL     1       2.374   1.332  -0.013  0.00  0.00    +0.119 A 
ATOM     17  N   UNL     1       2.350   0.008  -0.020  0.00  0.00    -0.239 NA
ATOM     18  C   UNL     1       1.215  -0.664  -0.013  0.00  0.00    +0.141 A 
ATOM     19  C   UNL     1       0.002  -0.004   0.002  0.00  0.00    +0.123 A 
BRANCH  19  20
ATOM     20  S   UNL     1      -1.506  -0.915   0.012  0.00  0.00    +0.057 S 
ATOM     21  O   UNL     1      -1.205  -2.194   0.553  0.00  0.00    -0.153 OA
ATOM     22  O   UNL     1      -2.492  -0.061   0.577  0.00  0.00    -0.153 OA
BRANCH  20  23
ATOM     23  N   UNL     1      -1.941  -1.159  -1.567  0.00  0.00    -0.203 NA
ATOM     24  H   UNL     1      -2.444  -1.951  -1.814  0.00  0.00    +0.144 HD
ATOM     25  H   UNL     1      -1.693  -0.511  -2.244  0.00  0.00    +0.144 HD
ENDBRANCH  20  23
ENDBRANCH  19  20
ENDBRANCH   1  16
TORSDOF 4
