REMARK  Name = ZINC27234621
REMARK  8 active torsions:
REMARK  status: ('A' for Active; 'I' for Inactive)
REMARK    1  A    between atoms: C_1  and  N_2
REMARK    2  A    between atoms: N_2  and  C_3
REMARK    3  A    between atoms: C_4  and  C_6
REMARK    4  A    between atoms: C_6  and  N_7
REMARK    5  A    between atoms: N_7  and  C_8
REMARK    6  A    between atoms: N_7  and  C_9
REMARK    7  A    between atoms: C_9  and  C_10
REMARK    8  A    between atoms: C_15  and  C_18
REMARK                            x       y       z     vdW  Elec       q    Type
REMARK                         _______ _______ _______ _____ _____    ______ ____
ROOT
ATOM      1  C   UNL     1       1.744   3.023   0.790  0.00  0.00    +0.199 C 
ATOM      2  O   UNL     1       2.891   3.417   0.762  0.00  0.00    -0.278 OA
ATOM      3  N   UNL     1       1.363   2.000  -0.000  0.00  0.00    -0.299 N 
ATOM      4  C   UNL     1       2.316   1.340  -0.910  0.00  0.00    +0.112 C 
ATOM      5  C   UNL     1       2.441  -0.124  -0.481  0.00  0.00    +0.054 C 
ATOM      6  C   UNL     1       1.085  -0.711  -0.223  0.00  0.00    -0.039 C 
ATOM      7  C   UNL     1       0.002  -0.004   0.002  0.00  0.00    -0.004 C 
ATOM      8  C   UNL     1      -0.018   1.499   0.010  0.00  0.00    +0.135 C 
ENDROOT
BRANCH   6   9
ATOM      9  C   UNL     1       0.960  -2.182  -0.221  0.00  0.00    +0.003 A 
ATOM     10  C   UNL     1       0.958  -2.997  -1.307  0.00  0.00    +0.091 A 
ATOM     11  N   UNL     1       0.827  -4.295  -0.908  0.00  0.00    -0.360 N 
ATOM     12  H   UNL     1       0.813  -5.102  -1.656  0.00  0.00    +0.165 HD
ATOM     13  C   UNL     1       0.730  -4.364   0.465  0.00  0.00    +0.047 A 
ATOM     14  C   UNL     1       0.808  -3.050   0.959  0.00  0.00    +0.007 A 
ATOM     15  C   UNL     1       0.737  -2.815   2.330  0.00  0.00    +0.010 A 
ATOM     16  C   UNL     1       0.589  -3.875   3.197  0.00  0.00    +0.001 A 
ATOM     17  C   UNL     1       0.511  -5.172   2.711  0.00  0.00    +0.002 A 
ATOM     18  C   UNL     1       0.580  -5.420   1.358  0.00  0.00    +0.026 A 
ENDBRANCH   6   9
BRANCH   1  19
ATOM     19  C   UNL     1       0.745   3.677   1.710  0.00  0.00    +0.019 C 
BRANCH  19  20
ATOM     20  N   UNL     1       1.402   4.757   2.459  0.00  0.00    +0.389 N 
ATOM     21  C   UNL     1       2.418   4.220   3.373  0.00  0.00    -0.095 C 
ATOM     22  H   UNL     1       1.910   5.410   1.735  0.00  0.00    -0.081 HD
BRANCH  20  23
ATOM     23  C   UNL     1       0.417   5.569   3.186  0.00  0.00    +0.019 C 
BRANCH  23  27
ATOM     24  C   UNL     1       1.028   8.893   4.981  0.00  0.00    +0.131 C 
ATOM     25  N   UNL     1       0.375   7.697   4.445  0.00  0.00    -0.309 N 
ATOM     26  C   UNL     1      -1.054   7.476   4.678  0.00  0.00    +0.131 C 
ATOM     27  C   UNL     1       1.089   6.799   3.737  0.00  0.00    +0.199 C 
ATOM     28  O   UNL     1       2.272   6.982   3.544  0.00  0.00    -0.278 OA
ENDBRANCH  23  27
ENDBRANCH  20  23
ENDBRANCH  19  20
ENDBRANCH   1  19
TORSDOF 5
