REMARK  Name = ZINC43569887
REMARK  5 active torsions:
REMARK  status: ('A' for Active; 'I' for Inactive)
REMARK    1  A    between atoms: C_1  and  C_2
REMARK    2  A    between atoms: C_2  and  C_4
REMARK    3  A    between atoms: C_2  and  N_13
REMARK    4  A    between atoms: N_9  and  C_10
REMARK    5  A    between atoms: C_10  and  C_11
REMARK                            x       y       z     vdW  Elec       q    Type
REMARK                         _______ _______ _______ _____ _____    ______ ____
ROOT
ATOM      1  C   UNL     1      -0.015   1.521  -0.051  0.00  0.00    +0.034 C 
ATOM      2  C   UNL     1       0.003  -0.009  -0.034  0.00  0.00    +0.140 C 
ENDROOT
BRANCH   2   3
ATOM      3  N   UNL     1      -1.375  -0.515  -0.006  0.00  0.00    -0.289 NA
ATOM      4  C   UNL     1      -2.128   0.068   1.113  0.00  0.00    +0.104 C 
ATOM      5  C   UNL     1      -3.495  -0.616   1.217  0.00  0.00    +0.122 C 
ATOM      6  N   UNL     1      -4.161  -0.531  -0.091  0.00  0.00    -0.314 N 
ATOM      7  C   UNL     1      -3.416  -0.970  -1.281  0.00  0.00    +0.122 C 
ATOM      8  C   UNL     1      -2.052  -0.271  -1.287  0.00  0.00    +0.104 C 
ATOM      9  C   UNL     1      -5.459  -0.047  -0.201  0.00  0.00    +0.099 A 
ATOM     10  C   UNL     1      -6.023   0.137  -1.460  0.00  0.00    +0.042 A 
ATOM     11  C   UNL     1      -7.316   0.619  -1.554  0.00  0.00    +0.005 A 
ATOM     12  C   UNL     1      -8.005   0.901  -0.382  0.00  0.00    +0.018 A 
ATOM     13  C   UNL     1      -7.384   0.695   0.834  0.00  0.00    +0.084 A 
ATOM     14  N   UNL     1      -6.151   0.229   0.894  0.00  0.00    -0.350 N 
ATOM     15  H   UNL     1      -5.740   0.089   1.761  0.00  0.00    +0.166 HD
ENDBRANCH   2   3
BRANCH   2  16
ATOM     16  C   UNL     1       0.739  -0.488   1.191  0.00  0.00    +0.237 C 
ATOM     17  O   UNL     1       0.171  -1.183   2.006  0.00  0.00    -0.274 OA
ATOM     18  N   UNL     1       2.029  -0.145   1.380  0.00  0.00    -0.239 N 
ATOM     19  C   UNL     1       2.687  -0.573   2.475  0.00  0.00    +0.306 C 
ATOM     20  O   UNL     1       2.118  -1.270   3.292  0.00  0.00    -0.252 OA
ATOM     21  N   UNL     1       3.977  -0.230   2.664  0.00  0.00    -0.296 N 
ATOM     22  H   UNL     1       2.483   0.411   0.727  0.00  0.00    +0.159 HD
ATOM     23  H   UNL     1       4.431   0.326   2.011  0.00  0.00    +0.151 HD
BRANCH  21  24
ATOM     24  C   UNL     1       4.692  -0.696   3.854  0.00  0.00    +0.132 C 
BRANCH  24  25
ATOM     25  C   UNL     1       6.106  -0.176   3.825  0.00  0.00    -0.016 C 
ATOM     26  C   UNL     1       6.572   0.511   4.838  0.00  0.00    +0.005 C 
ENDBRANCH  24  25
ENDBRANCH  21  24
ENDBRANCH   2  16
TORSDOF 4
