REMARK  Name = ZINC32841601
REMARK  4 active torsions:
REMARK  status: ('A' for Active; 'I' for Inactive)
REMARK    1  A    between atoms: C_7  and  C_9
REMARK    2  A    between atoms: C_9  and  C_10
REMARK    3  A    between atoms: N_12  and  C_13
REMARK    4  A    between atoms: C_16  and  N_20
REMARK                            x       y       z     vdW  Elec       q    Type
REMARK                         _______ _______ _______ _____ _____    ______ ____
ROOT
ATOM      1  C   UNL     1       4.809  -3.134  -1.225  0.00  0.00    +0.223 C 
ATOM      2  O   UNL     1       4.754  -2.186  -1.980  0.00  0.00    -0.275 OA
ATOM      3  N   UNL     1       5.707  -4.116  -1.440  0.00  0.00    -0.285 N 
ATOM      4  H   UNL     1       5.808  -4.936  -0.714  0.00  0.00    +0.155 HD
ENDROOT
BRANCH   3   5
ATOM      5  C   UNL     1       6.511  -4.091  -2.587  0.00  0.00    +0.036 A 
ATOM      6  C   UNL     1       6.868  -5.279  -3.211  0.00  0.00    +0.045 A 
ATOM      7  C   UNL     1       7.657  -5.255  -4.344  0.00  0.00    +0.065 A 
ATOM      8  C   UNL     1       8.104  -4.042  -4.853  0.00  0.00    +0.062 A 
ATOM      9  C   UNL     1       7.752  -2.853  -4.226  0.00  0.00    +0.065 A 
ATOM     10  C   UNL     1       6.957  -2.878  -3.095  0.00  0.00    +0.045 A 
ATOM     11 CL   UNL     1       8.309  -1.337  -4.862  0.00  0.00    -0.082 Cl
ATOM     12 CL   UNL     1       8.097  -6.740  -5.128  0.00  0.00    -0.082 Cl
BRANCH   8  13
ATOM     13  N   UNL     1       8.909  -4.017  -5.999  0.00  0.00    -0.356 N 
ATOM     14  H   UNL     1       9.262  -3.056  -6.402  0.00  0.00    +0.142 HD
ATOM     15  H   UNL     1       9.187  -4.958  -6.497  0.00  0.00    +0.142 HD
ENDBRANCH   8  13
ENDBRANCH   3   5
BRANCH   1  16
ATOM     16  C   UNL     1       3.872  -3.214  -0.048  0.00  0.00    +0.153 C 
BRANCH  16  23
ATOM     17  C   UNL     1      -0.001  -0.010   0.007  0.00  0.00    +0.100 A 
ATOM     18  C   UNL     1      -0.022   1.322   0.008  0.00  0.00    +0.067 A 
ATOM     19  S   UNL     1       1.719   1.719  -0.017  0.00  0.00    -0.058 S 
ATOM     20  C   UNL     1       2.340   0.053  -0.026  0.00  0.00    +0.178 A 
ATOM     21  N   UNL     1       1.194  -0.697  -0.009  0.00  0.00    -0.300 N 
ATOM     22  C   UNL     1       1.633  -2.018  -0.015  0.00  0.00    +0.117 A 
ATOM     23  C   UNL     1       2.976  -2.002  -0.035  0.00  0.00    +0.069 A 
ATOM     24  N   UNL     1       3.385  -0.724  -0.041  0.00  0.00    -0.226 NA
ENDBRANCH  16  23
ENDBRANCH   1  16
TORSDOF 4
