REMARK  Name = ZINC39467343
REMARK  4 active torsions:
REMARK  status: ('A' for Active; 'I' for Inactive)
REMARK    1  A    between atoms: C_1  and  O_2
REMARK    2  A    between atoms: O_2  and  C_3
REMARK    3  A    between atoms: P_19  and  C_22
REMARK    4  A    between atoms: C_27  and  O_28
REMARK                            x       y       z     vdW  Elec       q    Type
REMARK                         _______ _______ _______ _____ _____    ______ ____
ROOT
ATOM      1  C   UNL     1      -1.200  -0.637   0.010  0.00  0.00    +0.151 C 
ATOM      2  C   UNL     1      -2.335   0.073   0.019  0.00  0.00    +0.024 C 
ATOM      3  C   UNL     1      -3.647  -0.662   0.015  0.00  0.00    +0.008 C 
ATOM      4  C   UNL     1      -4.778   0.207  -0.522  0.00  0.00    -0.046 C 
ATOM      5  N   UNL     1      -6.048  -0.538  -0.468  0.00  0.00    +0.398 N 
ATOM      6  C   UNL     1      -5.988  -1.757  -1.272  0.00  0.00    -0.020 C 
ATOM      7  C   UNL     1      -4.837  -2.665  -0.817  0.00  0.00    -0.002 C 
ATOM      8  C   UNL     1      -3.524  -1.892  -0.894  0.00  0.00    +0.019 C 
ATOM      9  C   UNL     1      -2.365  -2.729  -0.427  0.00  0.00    +0.019 C 
ATOM     10  C   UNL     1      -1.262  -2.114   0.003  0.00  0.00    +0.161 C 
ATOM     11  F   UNL     1      -0.208  -2.840   0.434  0.00  0.00    -0.202 F 
ATOM     12  C   UNL     1      -7.274  -2.583  -1.137  0.00  0.00    +0.157 C 
ATOM     13  O   UNL     1      -8.389  -1.812  -1.622  0.00  0.00    -0.316 OA
ATOM     14  P   UNL     1      -8.564  -0.296  -1.057  0.00  0.00    +0.291 P 
ATOM     15  O   UNL     1      -9.208  -0.316   0.275  0.00  0.00    -0.269 OA
ATOM     16  N   UNL     1      -7.016   0.314  -0.956  0.00  0.00    -0.288 NA
ATOM     17  H   UNL     1      -6.802   1.225  -1.211  0.00  0.00    +0.111 HD
ATOM     18  H   UNL     1      -6.259  -0.774   0.490  0.00  0.00    -0.055 HD
ENDROOT
BRANCH  14  19
ATOM     19  C   UNL     1      -9.547   0.696  -2.215  0.00  0.00    +0.091 A 
ATOM     20  C   UNL     1      -8.923   1.397  -3.228  0.00  0.00    +0.018 A 
ATOM     21  C   UNL     1      -9.672   2.153  -4.111  0.00  0.00    +0.001 A 
ATOM     22  C   UNL     1     -11.047   2.210  -3.981  0.00  0.00    +0.004 A 
ATOM     23  C   UNL     1     -11.677   1.511  -2.970  0.00  0.00    +0.046 A 
ATOM     24  C   UNL     1     -10.928   0.747  -2.087  0.00  0.00    +0.131 A 
BRANCH  24  25
ATOM     25  O   UNL     1     -11.545   0.053  -1.094  0.00  0.00    -0.506 OA
ATOM     26  H   UNL     1     -11.648   0.551  -0.272  0.00  0.00    +0.292 HD
ENDBRANCH  24  25
ENDBRANCH  14  19
BRANCH   1  28
ATOM     27  C   UNL     1      -0.017   1.425   0.010  0.00  0.00    +0.277 C 
ATOM     28  O   UNL     1       0.002  -0.004   0.002  0.00  0.00    -0.493 OA
ENDBRANCH   1  28
TORSDOF 3
