REMARK  Name = ZINC37623375
REMARK  8 active torsions:
REMARK  status: ('A' for Active; 'I' for Inactive)
REMARK    1  A    between atoms: C_1  and  C_2
REMARK    2  A    between atoms: C_5  and  C_8
REMARK    3  A    between atoms: C_8  and  N_9
REMARK    4  A    between atoms: N_9  and  C_10
REMARK    5  A    between atoms: C_11  and  C_13
REMARK    6  A    between atoms: C_13  and  C_15
REMARK    7  A    between atoms: C_13  and  N_19
REMARK    8  A    between atoms: C_15  and  C_16
REMARK                            x       y       z     vdW  Elec       q    Type
REMARK                         _______ _______ _______ _____ _____    ______ ____
ROOT
ATOM      1  N   UNL     1       1.447  -4.746  -0.032  0.00  0.00    -0.302 N 
ATOM      2  C   UNL     1       2.148  -4.988   1.232  0.00  0.00    +0.132 C 
ATOM      3  C   UNL     1       2.079  -4.956  -1.204  0.00  0.00    +0.202 C 
ATOM      4  O   UNL     1       1.498  -4.755  -2.250  0.00  0.00    -0.277 OA
ENDROOT
BRANCH   1   5
ATOM      5  C   UNL     1       0.059  -4.275  -0.021  0.00  0.00    +0.142 C 
BRANCH   5  10
ATOM      6  C   UNL     1      -0.018   1.503   0.010  0.00  0.00    +0.044 C 
ATOM      7  C   UNL     1       0.002  -0.004   0.002  0.00  0.00    -0.050 A 
ATOM      8  C   UNL     1       0.006  -0.689  -1.199  0.00  0.00    +0.003 A 
ATOM      9  C   UNL     1       0.025  -2.071  -1.206  0.00  0.00    +0.005 A 
ATOM     10  C   UNL     1       0.040  -2.768  -0.013  0.00  0.00    -0.030 A 
ATOM     11  C   UNL     1       0.037  -2.084   1.188  0.00  0.00    +0.005 A 
ATOM     12  C   UNL     1       0.023  -0.702   1.195  0.00  0.00    +0.003 A 
ENDBRANCH   5  10
ENDBRANCH   1   5
BRANCH   3  13
ATOM     13  C   UNL     1       3.506  -5.440  -1.214  0.00  0.00    +0.022 C 
BRANCH  13  14
ATOM     14  N   UNL     1       4.114  -5.141  -2.517  0.00  0.00    +0.386 N 
ATOM     15  H   UNL     1       4.096  -4.145  -2.677  0.00  0.00    -0.089 HD
ATOM     16  H   UNL     1       5.070  -5.465  -2.525  0.00  0.00    -0.089 HD
ATOM     17  H   UNL     1       3.595  -5.608  -3.246  0.00  0.00    -0.089 HD
ENDBRANCH  13  14
BRANCH  13  18
ATOM     18  C   UNL     1       3.534  -6.950  -0.972  0.00  0.00    +0.088 C 
BRANCH  18  19
ATOM     19  C   UNL     1       4.963  -7.414  -0.860  0.00  0.00    +0.209 C 
ATOM     20  O   UNL     1       5.870  -6.616  -0.964  0.00  0.00    -0.276 OA
ATOM     21  N   UNL     1       5.234  -8.717  -0.645  0.00  0.00    -0.329 N 
ATOM     22  H   UNL     1       4.508  -9.356  -0.562  0.00  0.00    +0.145 HD
ATOM     23  H   UNL     1       6.154  -9.016  -0.573  0.00  0.00    +0.145 HD
ENDBRANCH  18  19
ENDBRANCH  13  18
ENDBRANCH   3  13
TORSDOF 6
