REMARK  Name = ZINC57003575
REMARK  5 active torsions:
REMARK  status: ('A' for Active; 'I' for Inactive)
REMARK    1  A    between atoms: C_1  and  C_2
REMARK    2  A    between atoms: C_2  and  C_4
REMARK    3  A    between atoms: C_2  and  N_11
REMARK    4  A    between atoms: N_14  and  C_15
REMARK    5  A    between atoms: C_24  and  O_26
REMARK                            x       y       z     vdW  Elec       q    Type
REMARK                         _______ _______ _______ _____ _____    ______ ____
ROOT
ATOM      1  N   UNL     1       0.688  -0.476  -1.203  0.00  0.00    -0.293 N 
ATOM      2  C   UNL     1       0.006  -0.608  -2.358  0.00  0.00    +0.301 C 
ATOM      3  O   UNL     1      -1.178  -0.335  -2.400  0.00  0.00    -0.253 OA
ATOM      4  N   UNL     1       0.637  -1.043  -3.467  0.00  0.00    -0.290 N 
ATOM      5  H   UNL     1       1.632  -0.695  -1.170  0.00  0.00    +0.151 HD
ATOM      6  H   UNL     1       1.582  -1.261  -3.434  0.00  0.00    +0.151 HD
ENDROOT
BRANCH   4   7
ATOM      7  C   UNL     1      -0.104  -1.186  -4.723  0.00  0.00    +0.134 C 
ATOM      8  C   UNL     1      -0.737  -2.558  -4.806  0.00  0.00    -0.021 A 
ATOM      9  C   UNL     1      -1.879  -3.058  -4.203  0.00  0.00    +0.006 A 
ATOM     10  C   UNL     1      -2.269  -4.364  -4.428  0.00  0.00    +0.000 A 
ATOM     11  C   UNL     1      -1.517  -5.175  -5.257  0.00  0.00    +0.000 A 
ATOM     12  C   UNL     1      -0.378  -4.679  -5.860  0.00  0.00    +0.004 A 
ATOM     13  C   UNL     1       0.015  -3.370  -5.636  0.00  0.00    -0.040 A 
ATOM     14  C   UNL     1       1.204  -2.598  -6.167  0.00  0.00    +0.069 C 
ATOM     15  C   UNL     1       0.861  -1.110  -5.926  0.00  0.00    +0.143 C 
BRANCH  15  16
ATOM     16  O   UNL     1       2.033  -0.364  -5.590  0.00  0.00    -0.389 OA
ATOM     17  H   UNL     1       2.671  -0.288  -6.313  0.00  0.00    +0.210 HD
ENDBRANCH  15  16
ENDBRANCH   4   7
BRANCH   1  19
ATOM     18  C   UNL     1      -0.019   1.526   0.010  0.00  0.00    +0.033 C 
ATOM     19  C   UNL     1       0.002  -0.004   0.002  0.00  0.00    +0.103 C 
BRANCH  19  20
ATOM     20  C   UNL     1       0.731  -0.503   1.223  0.00  0.00    -0.014 A 
ATOM     21  C   UNL     1       2.077  -0.808   1.148  0.00  0.00    +0.006 A 
ATOM     22  C   UNL     1       2.746  -1.266   2.268  0.00  0.00    +0.000 A 
ATOM     23  C   UNL     1       2.069  -1.419   3.463  0.00  0.00    +0.001 A 
ATOM     24  C   UNL     1       0.723  -1.114   3.539  0.00  0.00    +0.015 A 
ATOM     25  C   UNL     1       0.054  -0.651   2.420  0.00  0.00    +0.023 A 
ATOM     26 BR   UNL     1      -1.786  -0.228   2.525  0.00  0.00    -0.050 Br
ENDBRANCH  19  20
ENDBRANCH   1  19
TORSDOF 4
