REMARK  Name = ZINC40779620
REMARK  7 active torsions:
REMARK  status: ('A' for Active; 'I' for Inactive)
REMARK    1  A    between atoms: C_3  and  N_8
REMARK    2  A    between atoms: C_10  and  N_24
REMARK    3  A    between atoms: C_11  and  N_15
REMARK    4  A    between atoms: N_15  and  C_16
REMARK    5  A    between atoms: C_16  and  C_17
REMARK    6  A    between atoms: C_17  and  C_18
REMARK    7  A    between atoms: C_18  and  N_19
REMARK                            x       y       z     vdW  Elec       q    Type
REMARK                         _______ _______ _______ _____ _____    ______ ____
ROOT
ATOM      1  N   UNL     1       3.595   2.001  -0.022  0.00  0.00    -0.283 N 
ATOM      2  C   UNL     1       3.628   3.388  -0.120  0.00  0.00    +0.150 A 
ATOM      3  C   UNL     1       4.845   4.061  -0.240  0.00  0.00    +0.105 A 
ATOM      4  C   UNL     1       4.821   5.454  -0.336  0.00  0.00    +0.145 A 
ATOM      5  N   UNL     1       3.648   6.082  -0.310  0.00  0.00    -0.219 NA
ATOM      6  C   UNL     1       2.522   5.408  -0.195  0.00  0.00    +0.225 A 
ATOM      7  N   UNL     1       2.500   4.093  -0.107  0.00  0.00    -0.219 NA
ATOM      8  H   UNL     1       4.423   1.499   0.038  0.00  0.00    +0.155 HD
ENDROOT
BRANCH   1  11
ATOM      9  C   UNL     1       1.129  -0.710  -0.009  0.00  0.00    +0.025 A 
ATOM     10  C   UNL     1       2.350  -0.058  -0.021  0.00  0.00    +0.045 A 
ATOM     11  C   UNL     1       2.374   1.333  -0.010  0.00  0.00    +0.124 A 
ATOM     12  N   UNL     1       1.247   2.027   0.011  0.00  0.00    -0.239 NA
ATOM     13  C   UNL     1       0.069   1.433   0.023  0.00  0.00    +0.132 A 
ATOM     14  C   UNL     1      -0.030   0.055   0.014  0.00  0.00    +0.059 A 
ATOM     15 CL   UNL     1      -1.587  -0.713   0.030  0.00  0.00    -0.082 Cl
ENDBRANCH   1  11
BRANCH   3  16
ATOM     16  N   UNL     1       6.060   3.358  -0.264  0.00  0.00    -0.353 N 
ATOM     17  H   UNL     1       6.061   2.390  -0.196  0.00  0.00    +0.143 HD
ATOM     18  H   UNL     1       6.898   3.839  -0.347  0.00  0.00    +0.143 HD
ENDBRANCH   3  16
BRANCH   4  19
ATOM     19  N   UNL     1       6.004   6.174  -0.457  0.00  0.00    -0.327 N 
ATOM     20  H   UNL     1       6.855   5.708  -0.475  0.00  0.00    +0.148 HD
BRANCH  19  21
ATOM     21  C   UNL     1       5.966   7.635  -0.557  0.00  0.00    +0.105 C 
BRANCH  21  22
ATOM     22  C   UNL     1       7.392   8.175  -0.679  0.00  0.00    +0.040 C 
BRANCH  22  23
ATOM     23  C   UNL     1       7.352   9.701  -0.783  0.00  0.00    +0.124 C 
BRANCH  23  24
ATOM     24  N   UNL     1       8.717  10.218  -0.901  0.00  0.00    -0.338 N 
ATOM     25  C   UNL     1       9.542  10.576   0.131  0.00  0.00    +0.104 A 
ATOM     26  C   UNL     1      10.697  10.995  -0.420  0.00  0.00    +0.101 A 
ATOM     27  N   UNL     1      10.581  10.895  -1.752  0.00  0.00    -0.352 N 
ATOM     28  C   UNL     1       9.400  10.426  -2.048  0.00  0.00    +0.173 A 
ATOM     29  H   UNL     1      11.268  11.130  -2.395  0.00  0.00    +0.166 HD
ENDBRANCH  23  24
ENDBRANCH  22  23
ENDBRANCH  21  22
ENDBRANCH  19  21
ENDBRANCH   4  19
TORSDOF 7
