REMARK  Name = ZINC26567091
REMARK  9 active torsions:
REMARK  status: ('A' for Active; 'I' for Inactive)
REMARK    1  A    between atoms: C_1  and  C_2
REMARK    2  A    between atoms: C_4  and  N_28
REMARK    3  A    between atoms: C_7  and  N_8
REMARK    4  A    between atoms: C_9  and  C_11
REMARK    5  A    between atoms: C_11  and  C_13
REMARK    6  A    between atoms: C_11  and  N_20
REMARK    7  A    between atoms: C_13  and  C_14
REMARK    8  A    between atoms: C_21  and  C_23
REMARK    9  A    between atoms: N_31  and  C_34
REMARK                            x       y       z     vdW  Elec       q    Type
REMARK                         _______ _______ _______ _____ _____    ______ ____
ROOT
ATOM      1  N   UNL     1      -3.227   5.069  -5.797  0.00  0.00    -0.284 N 
ATOM      2  C   UNL     1      -3.580   4.233  -6.793  0.00  0.00    +0.238 C 
ATOM      3  O   UNL     1      -3.453   3.035  -6.653  0.00  0.00    -0.273 OA
ATOM      4  H   UNL     1      -3.426   6.147  -5.888  0.00  0.00    +0.155 HD
ENDROOT
BRANCH   1  11
ATOM      5  C   UNL     1      -3.472   6.554  -3.384  0.00  0.00    +0.046 C 
ATOM      6  C   UNL     1      -2.703   5.259  -3.446  0.00  0.00    -0.028 A 
ATOM      7  C   UNL     1      -2.093   4.763  -2.311  0.00  0.00    +0.028 A 
ATOM      8  C   UNL     1      -1.385   3.570  -2.369  0.00  0.00    +0.030 A 
ATOM      9  C   UNL     1      -1.285   2.879  -3.570  0.00  0.00    +0.025 A 
ATOM     10  C   UNL     1      -1.900   3.372  -4.703  0.00  0.00    +0.025 A 
ATOM     11  C   UNL     1      -2.608   4.565  -4.645  0.00  0.00    +0.036 A 
BRANCH   8  12
ATOM     12  N   UNL     1      -0.767   3.067  -1.219  0.00  0.00    -0.333 N 
ATOM     13  C   UNL     1      -0.076   1.802  -1.503  0.00  0.00    +0.086 C 
ATOM     14  C   UNL     1       0.652   1.327  -0.243  0.00  0.00    -0.060 C 
ATOM     15  N   UNL     1      -0.320   1.160   0.847  0.00  0.00    +0.380 N 
ATOM     16  C   UNL     1      -1.011   2.425   1.131  0.00  0.00    -0.060 C 
ATOM     17  C   UNL     1      -1.738   2.900  -0.129  0.00  0.00    +0.086 C 
ATOM     18  C   UNL     1       0.330   0.632   2.054  0.00  0.00    -0.096 C 
ATOM     19  H   UNL     1      -1.073   0.427   0.522  0.00  0.00    -0.082 HD
ENDBRANCH   8  12
ENDBRANCH   1  11
BRANCH   2  20
ATOM     20  C   UNL     1      -4.131   4.786  -8.082  0.00  0.00    +0.164 C 
BRANCH  20  21
ATOM     21  N   UNL     1      -4.434   3.683  -8.997  0.00  0.00    -0.297 N 
ATOM     22  C   UNL     1      -5.364   3.842  -9.960  0.00  0.00    +0.280 C 
ATOM     23  O   UNL     1      -5.951   4.902 -10.070  0.00  0.00    -0.267 OA
ATOM     24  H   UNL     1      -3.904   2.724  -8.898  0.00  0.00    +0.150 HD
BRANCH  22  25
ATOM     25  C   UNL     1      -5.668   2.737 -10.876  0.00  0.00    +0.189 A 
ATOM     26  C   UNL     1      -6.582   2.764 -11.890  0.00  0.00    +0.054 A 
ATOM     27  C   UNL     1      -6.542   1.502 -12.502  0.00  0.00    +0.042 A 
ATOM     28  C   UNL     1      -5.618   0.769 -11.843  0.00  0.00    +0.196 A 
ATOM     29  O   UNL     1      -5.090   1.518 -10.867  0.00  0.00    -0.458 OA
ENDBRANCH  22  25
ENDBRANCH  20  21
BRANCH  20  30
ATOM     30  C   UNL     1      -3.095   5.710  -8.725  0.00  0.00    +0.067 C 
BRANCH  30  31
ATOM     31  C   UNL     1      -3.690   6.359  -9.948  0.00  0.00    -0.045 A 
ATOM     32  C   UNL     1      -3.565   5.750 -11.183  0.00  0.00    +0.004 A 
ATOM     33  C   UNL     1      -4.115   6.343 -12.304  0.00  0.00    +0.000 A 
ATOM     34  C   UNL     1      -4.781   7.549 -12.192  0.00  0.00    +0.000 A 
ATOM     35  C   UNL     1      -4.902   8.160 -10.958  0.00  0.00    +0.000 A 
ATOM     36  C   UNL     1      -4.356   7.565  -9.836  0.00  0.00    +0.004 A 
ENDBRANCH  30  31
ENDBRANCH  20  30
ENDBRANCH   2  20
TORSDOF 7
