REMARK  Name = ZINC48971576
REMARK  6 active torsions:
REMARK  status: ('A' for Active; 'I' for Inactive)
REMARK    1  A    between atoms: C_1  and  N_2
REMARK    2  A    between atoms: C_4  and  C_7
REMARK    3  A    between atoms: C_7  and  N_8
REMARK    4  A    between atoms: N_8  and  C_9
REMARK    5  A    between atoms: N_8  and  C_10
REMARK    6  A    between atoms: C_19  and  N_20
REMARK                            x       y       z     vdW  Elec       q    Type
REMARK                         _______ _______ _______ _____ _____    ______ ____
ROOT
ATOM      1  C   UNL     1       2.067  -3.146  -2.970  0.00  0.00    +0.061 A 
ATOM      2  C   UNL     1       2.005  -3.795  -4.224  0.00  0.00    +0.022 A 
ATOM      3  C   UNL     1       1.293  -4.992  -4.390  0.00  0.00    +0.027 A 
ATOM      4  C   UNL     1       1.256  -5.588  -5.615  0.00  0.00    +0.019 A 
ATOM      5  C   UNL     1       1.915  -5.023  -6.705  0.00  0.00    +0.017 A 
ATOM      6  C   UNL     1       2.614  -3.862  -6.578  0.00  0.00    +0.027 A 
ATOM      7  C   UNL     1       2.676  -3.218  -5.330  0.00  0.00    +0.048 A 
ATOM      8  N   UNL     1       3.355  -2.076  -5.179  0.00  0.00    -0.359 N 
ATOM      9  C   UNL     1       3.424  -1.460  -4.022  0.00  0.00    +0.107 A 
ATOM     10  C   UNL     1       2.787  -1.959  -2.887  0.00  0.00    +0.063 A 
ATOM     11 BR   UNL     1       0.297  -7.203  -5.838  0.00  0.00    -0.050 Br
ATOM     12  H   UNL     1       3.810  -1.692  -5.945  0.00  0.00    +0.165 HD
ENDROOT
BRANCH  10  13
ATOM     13  N   UNL     1       2.876  -1.272  -1.668  0.00  0.00    -0.355 N 
ATOM     14  H   UNL     1       2.434  -1.623  -0.879  0.00  0.00    +0.142 HD
ATOM     15  H   UNL     1       3.379  -0.444  -1.613  0.00  0.00    +0.142 HD
ENDBRANCH  10  13
BRANCH   1  16
ATOM     16  N   UNL     1       1.424  -3.675  -1.855  0.00  0.00    -0.327 N 
ATOM     17  C   UNL     1       2.132  -4.609  -0.976  0.00  0.00    +0.129 C 
BRANCH  16  18
ATOM     18  C   UNL     1       0.039  -3.298  -1.561  0.00  0.00    +0.143 C 
BRANCH  18  22
ATOM     19  C   UNL     1      -0.018   1.461   0.010  0.00  0.00    +0.172 C 
ATOM     20  N   UNL     1       0.002  -0.004   0.002  0.00  0.00    -0.274 N 
ATOM     21  C   UNL     1       0.008  -0.792  -1.094  0.00  0.00    +0.113 A 
ATOM     22  C   UNL     1       0.027  -2.079  -0.676  0.00  0.00    +0.007 A 
ATOM     23  C   UNL     1       0.034  -2.078   0.723  0.00  0.00    +0.139 A 
ATOM     24  N   UNL     1       0.025  -0.834   1.130  0.00  0.00    -0.180 NA
ENDBRANCH  18  22
ENDBRANCH  16  18
ENDBRANCH   1  16
TORSDOF 4
