REMARK  Name = ZINC67542706
REMARK  3 active torsions:
REMARK  status: ('A' for Active; 'I' for Inactive)
REMARK    1  A    between atoms: C_4  and  C_7
REMARK    2  A    between atoms: N_15  and  C_16
REMARK    3  A    between atoms: N_20  and  C_22
REMARK                            x       y       z     vdW  Elec       q    Type
REMARK                         _______ _______ _______ _____ _____    ______ ____
ROOT
ATOM      1  C   UNL     1       2.859  -0.454  -2.507  0.00  0.00    +0.107 A 
ATOM      2  N   UNL     1       2.572  -0.251  -3.778  0.00  0.00    -0.144 NA
ATOM      3  N   UNL     1       3.313  -0.762  -4.665  0.00  0.00    -0.126 NA
ATOM      4  C   UNL     1       4.366  -1.493  -4.356  0.00  0.00    +0.189 A 
ATOM      5  S   UNL     1       4.326  -1.462  -2.671  0.00  0.00    -0.035 S 
ATOM      6  N   UNL     1       5.275  -2.121  -5.201  0.00  0.00    -0.247 N 
ATOM      7  C   UNL     1       5.135  -2.019  -6.537  0.00  0.00    +0.306 C 
ATOM      8  O   UNL     1       4.213  -1.379  -7.005  0.00  0.00    -0.252 OA
ATOM      9  N   UNL     1       6.016  -2.628  -7.356  0.00  0.00    -0.298 N 
ATOM     10  H   UNL     1       6.011  -2.632  -4.828  0.00  0.00    +0.158 HD
ATOM     11  H   UNL     1       6.751  -3.139  -6.983  0.00  0.00    +0.150 HD
ENDROOT
BRANCH   1  15
ATOM     12  C   UNL     1      -0.019   1.526   0.010  0.00  0.00    +0.000 C 
ATOM     13  C   UNL     1       1.417   2.055  -0.000  0.00  0.00    +0.001 C 
ATOM     14  C   UNL     1       2.133   1.562  -1.259  0.00  0.00    +0.010 C 
ATOM     15  C   UNL     1       2.154   0.032  -1.268  0.00  0.00    +0.047 C 
ATOM     16  C   UNL     1       0.718  -0.497  -1.257  0.00  0.00    +0.010 C 
ATOM     17  C   UNL     1       0.002  -0.004   0.002  0.00  0.00    +0.001 C 
ENDBRANCH   1  15
BRANCH   9  18
ATOM     18  C   UNL     1       5.863  -2.518  -8.809  0.00  0.00    +0.056 C 
ATOM     19  C   UNL     1       4.936  -3.636  -9.337  0.00  0.00    +0.002 C 
ATOM     20  C   UNL     1       5.614  -4.048 -10.668  0.00  0.00    -0.077 C 
ATOM     21  N   UNL     1       7.062  -3.954 -10.356  0.00  0.00    +0.383 N 
ATOM     22  C   UNL     1       7.216  -2.750  -9.507  0.00  0.00    -0.056 C 
ATOM     23  H   UNL     1       7.363  -4.776  -9.853  0.00  0.00    -0.081 HD
BRANCH  21  24
ATOM     24  C   UNL     1       7.839  -3.803 -11.593  0.00  0.00    -0.069 C 
ATOM     25  C   UNL     1       8.757  -4.959 -11.998  0.00  0.00    -0.017 C 
ATOM     26  C   UNL     1       9.357  -3.658 -11.462  0.00  0.00    -0.017 C 
ENDBRANCH  21  24
ENDBRANCH   9  18
TORSDOF 3
