REMARK  Name = ZINC62958939
REMARK  9 active torsions:
REMARK  status: ('A' for Active; 'I' for Inactive)
REMARK    1  A    between atoms: C_1  and  C_2
REMARK    2  A    between atoms: C_2  and  C_3
REMARK    3  A    between atoms: C_3  and  C_4
REMARK    4  A    between atoms: C_4  and  C_6
REMARK    5  A    between atoms: C_4  and  N_7
REMARK    6  A    between atoms: N_7  and  C_8
REMARK    7  A    between atoms: C_8  and  C_9
REMARK    8  A    between atoms: C_9  and  C_11
REMARK    9  A    between atoms: C_9  and  N_12
REMARK                            x       y       z     vdW  Elec       q    Type
REMARK                         _______ _______ _______ _____ _____    ______ ____
ROOT
ATOM      1  C   UNL     1       0.062  -4.511   2.436  0.00  0.00    -0.089 C 
ATOM      2  C   UNL     1       0.295  -6.023   2.433  0.00  0.00    -0.015 C 
ENDROOT
BRANCH   1   3
ATOM      3  N   UNL     1      -0.692  -4.133   3.639  0.00  0.00    +0.380 N 
ATOM      4  C   UNL     1      -1.931  -4.918   3.703  0.00  0.00    -0.078 C 
ATOM      5  C   UNL     1      -2.763  -4.465   4.906  0.00  0.00    -0.012 C 
ATOM      6  C   UNL     1      -1.950  -4.664   6.184  0.00  0.00    -0.033 C 
ATOM      7  C   UNL     1      -2.745  -4.145   7.396  0.00  0.00    +0.007 C 
ATOM      8  C   UNL     1      -3.431  -5.411   7.968  0.00  0.00    +0.001 C 
ATOM      9  C   UNL     1      -2.349  -6.503   7.778  0.00  0.00    +0.001 C 
ATOM     10  C   UNL     1      -1.698  -6.160   6.421  0.00  0.00    +0.007 C 
ATOM     11  C   UNL     1      -0.620  -3.920   6.079  0.00  0.00    -0.012 C 
ATOM     12  C   UNL     1       0.127  -4.394   4.829  0.00  0.00    -0.078 C 
ATOM     13  H   UNL     1      -0.920  -3.151   3.597  0.00  0.00    -0.082 HD
ENDBRANCH   1   3
BRANCH   1  14
ATOM     14  C   UNL     1      -0.734  -4.115   1.190  0.00  0.00    -0.098 C 
BRANCH  14  15
ATOM     15  N   UNL     1      -1.036  -2.678   1.238  0.00  0.00    +0.380 N 
ATOM     16  H   UNL     1      -0.180  -2.158   1.356  0.00  0.00    -0.086 HD
ATOM     17  H   UNL     1      -1.654  -2.490   2.014  0.00  0.00    -0.086 HD
BRANCH  15  18
ATOM     18  C   UNL     1      -1.688  -2.273  -0.014  0.00  0.00    -0.075 C 
ATOM     19  C   UNL     1      -3.045  -2.969  -0.132  0.00  0.00    -0.014 C 
BRANCH  18  20
ATOM     20  C   UNL     1      -1.890  -0.756  -0.016  0.00  0.00    -0.016 C 
BRANCH  20  22
ATOM     21  C   UNL     1      -0.730   1.457  -0.026  0.00  0.00    +0.004 C 
ATOM     22  C   UNL     1      -0.528  -0.060  -0.024  0.00  0.00    -0.005 C 
ENDBRANCH  20  22
ENDBRANCH  18  20
ENDBRANCH  15  18
ENDBRANCH  14  15
ENDBRANCH   1  14
TORSDOF 6
