REMARK  Name = ZINC08300126
REMARK  5 active torsions:
REMARK  status: ('A' for Active; 'I' for Inactive)
REMARK    1  A    between atoms: C_2  and  C_24
REMARK    2  A    between atoms: N_5  and  C_6
REMARK    3  A    between atoms: C_6  and  C_7
REMARK    4  A    between atoms: C_15  and  C_17
REMARK    5  A    between atoms: C_24  and  N_50
REMARK                            x       y       z     vdW  Elec       q    Type
REMARK                         _______ _______ _______ _____ _____    ______ ____
ROOT
ATOM      1  C   UNL     1      -2.457   1.037  -2.488  0.00  0.00    -0.046 C 
ATOM      2  C   UNL     1      -2.384   0.099  -1.280  0.00  0.00    -0.010 C 
ATOM      3  C   UNL     1      -2.484   0.934   0.002  0.00  0.00    -0.004 C 
ATOM      4  C   UNL     1      -3.809   1.706  -0.018  0.00  0.00    -0.015 C 
ATOM      5  C   UNL     1      -3.842   2.599  -1.262  0.00  0.00    -0.078 C 
ATOM      6  C   UNL     1      -1.431   2.831  -1.225  0.00  0.00    -0.065 C 
ATOM      7  C   UNL     1      -1.330   1.944   0.019  0.00  0.00    +0.062 C 
ATOM      8  N   UNL     1      -2.598   2.440  -2.045  0.00  0.00    +0.383 N 
ATOM      9  H   UNL     1      -2.644   3.048  -2.871  0.00  0.00    -0.081 HD
ENDROOT
BRANCH   7  10
ATOM     10  C   UNL     1      -0.014   1.209   0.009  0.00  0.00    +0.217 C 
ATOM     11  O   UNL     1       0.002  -0.004   0.002  0.00  0.00    -0.275 OA
ATOM     12  N   UNL     1       1.143   1.898   0.001  0.00  0.00    -0.301 N 
ATOM     13  C   UNL     1       1.268   3.363   0.002  0.00  0.00    +0.108 C 
ATOM     14  C   UNL     1       2.775   3.695  -0.033  0.00  0.00    +0.020 C 
ATOM     15  C   UNL     1       3.399   2.406  -0.630  0.00  0.00    +0.020 C 
ATOM     16  C   UNL     1       2.495   1.309  -0.015  0.00  0.00    +0.108 C 
ENDBRANCH   7  10
BRANCH   1  17
ATOM     17  C   UNL     1      -1.178   0.903  -3.317  0.00  0.00    +0.130 C 
BRANCH  17  22
ATOM     18  C   UNL     1      -0.434   2.676  -4.931  0.00  0.00    +0.131 A 
ATOM     19  C   UNL     1      -0.921   3.159  -6.097  0.00  0.00    +0.066 A 
ATOM     20  N   UNL     1      -2.048   2.482  -6.348  0.00  0.00    -0.136 NA
ATOM     21  N   UNL     1      -2.242   1.632  -5.402  0.00  0.00    -0.066 NA
ATOM     22  N   UNL     1      -1.296   1.712  -4.532  0.00  0.00    -0.253 N 
BRANCH  19  23
ATOM     23  C   UNL     1      -0.318   4.249  -6.944  0.00  0.00    -0.027 C 
BRANCH  23  26
ATOM     24  H   UNL     1       0.927   4.360  -8.580  0.00  0.00    -0.090 HD
ATOM     25  H   UNL     1       1.217   3.045  -7.604  0.00  0.00    -0.090 HD
ATOM     26  N   UNL     1       0.493   3.635  -8.011  0.00  0.00    +0.382 N 
ATOM     27  H   UNL     1      -0.113   3.059  -8.606  0.00  0.00    -0.090 HD
ENDBRANCH  23  26
ENDBRANCH  19  23
ENDBRANCH  17  22
ENDBRANCH   1  17
TORSDOF 5
