REMARK  Name = ZINC38815583
REMARK  4 active torsions:
REMARK  status: ('A' for Active; 'I' for Inactive)
REMARK    1  A    between atoms: C_4  and  C_7
REMARK    2  A    between atoms: C_9  and  C_26
REMARK    3  A    between atoms: N_14  and  N_15
REMARK    4  A    between atoms: C_16  and  C_17
REMARK                            x       y       z     vdW  Elec       q    Type
REMARK                         _______ _______ _______ _____ _____    ______ ____
ROOT
ATOM      1  C   UNL     1       3.439  -0.998   0.029  0.00  0.00    +0.129 C 
ATOM      2  C   UNL     1       4.127  -1.042   1.421  0.00  0.00    +0.111 C 
ATOM      3  S   UNL     1       3.862  -2.829   1.793  0.00  0.00    -0.081 S 
ATOM      4  C   UNL     1       3.593  -3.392   0.120  0.00  0.00    +0.149 C 
ATOM      5  N   UNL     1       3.418  -2.313  -0.584  0.00  0.00    -0.358 N 
ATOM      6  N   UNL     1       3.575  -4.697  -0.330  0.00  0.00    -0.217 N 
ATOM      7  H   UNL     1       3.418  -4.884  -1.268  0.00  0.00    +0.176 HD
ATOM      8  H   UNL     1       3.269  -2.391  -1.539  0.00  0.00    +0.162 HD
ENDROOT
BRANCH   1  12
ATOM      9  C   UNL     1      -0.571   0.400   0.489  0.00  0.00    +0.000 A 
ATOM     10  C   UNL     1       0.443   1.293   0.195  0.00  0.00    +0.000 A 
ATOM     11  C   UNL     1       1.741   0.841   0.046  0.00  0.00    +0.006 A 
ATOM     12  C   UNL     1       2.025  -0.504   0.192  0.00  0.00    -0.024 A 
ATOM     13  C   UNL     1       1.011  -1.397   0.487  0.00  0.00    +0.006 A 
ATOM     14  C   UNL     1      -0.287  -0.945   0.634  0.00  0.00    +0.000 A 
ENDBRANCH   1  12
BRANCH   2  15
ATOM     15  C   UNL     1       3.424  -0.156   2.416  0.00  0.00    -0.032 A 
ATOM     16  C   UNL     1       2.262  -0.590   3.028  0.00  0.00    +0.005 A 
ATOM     17  C   UNL     1       1.617   0.223   3.941  0.00  0.00    +0.000 A 
ATOM     18  C   UNL     1       2.134   1.469   4.243  0.00  0.00    +0.000 A 
ATOM     19  C   UNL     1       3.295   1.903   3.632  0.00  0.00    +0.000 A 
ATOM     20  C   UNL     1       3.943   1.088   2.722  0.00  0.00    +0.005 A 
ENDBRANCH   2  15
BRANCH   6  21
ATOM     21  N   UNL     1       3.782  -5.750   0.570  0.00  0.00    -0.189 NA
ATOM     22  C   UNL     1       3.765  -6.990   0.143  0.00  0.00    +0.136 C 
BRANCH  22  23
ATOM     23  C   UNL     1       3.972  -8.043   1.041  0.00  0.00    +0.000 C 
ATOM     24  C   UNL     1       3.991  -9.407   0.752  0.00  0.00    +0.004 A 
ATOM     25  C   UNL     1       3.820 -10.130  -0.449  0.00  0.00    +0.010 A 
ATOM     26  C   UNL     1       3.890 -11.485  -0.434  0.00  0.00    +0.001 A 
ATOM     27  C   UNL     1       4.130 -12.193   0.746  0.00  0.00    +0.002 A 
ATOM     28  C   UNL     1       4.303 -11.565   1.934  0.00  0.00    +0.026 A 
ATOM     29  C   UNL     1       4.243 -10.148   1.999  0.00  0.00    +0.043 A 
ATOM     30  N   UNL     1       4.376  -9.315   3.011  0.00  0.00    -0.380 N 
ATOM     31  C   UNL     1       4.230  -7.939   2.528  0.00  0.00    +0.150 C 
ATOM     32  H   UNL     1       4.547  -9.572   3.931  0.00  0.00    +0.160 HD
ENDBRANCH  22  23
ENDBRANCH   6  21
TORSDOF 4
