REMARK  Name = ZINC52094336
REMARK  3 active torsions:
REMARK  status: ('A' for Active; 'I' for Inactive)
REMARK    1  A    between atoms: C_2  and  C_8
REMARK    2  A    between atoms: C_8  and  C_10
REMARK    3  A    between atoms: C_8  and  N_23
REMARK                            x       y       z     vdW  Elec       q    Type
REMARK                         _______ _______ _______ _____ _____    ______ ____
ROOT
ATOM      1  C   UNL     1       1.470   4.070  -1.390  0.00  0.00    -0.042 A 
ATOM      2  C   UNL     1       2.756   4.367  -1.800  0.00  0.00    +0.031 A 
ATOM      3  C   UNL     1       2.980   4.830  -3.086  0.00  0.00    +0.067 A 
ATOM      4  C   UNL     1       1.906   4.995  -3.964  0.00  0.00    +0.068 A 
ATOM      5  C   UNL     1       0.620   4.695  -3.545  0.00  0.00    +0.043 A 
ATOM      6  C   UNL     1       0.406   4.228  -2.262  0.00  0.00    +0.022 A 
ATOM      7 BR   UNL     1      -1.348   3.810  -1.692  0.00  0.00    -0.050 Br
ATOM      8  N   UNL     1       2.435   5.467  -5.163  0.00  0.00    -0.306 N 
ATOM      9  H   UNL     1       1.929   5.676  -5.964  0.00  0.00    +0.170 HD
ATOM     10  C   UNL     1       3.769   5.583  -5.022  0.00  0.00    +0.325 A 
ATOM     11  O   UNL     1       4.534   5.971  -5.886  0.00  0.00    -0.247 OA
ATOM     12  N   UNL     1       4.128   5.207  -3.780  0.00  0.00    -0.306 N 
ATOM     13  H   UNL     1       5.032   5.199  -3.428  0.00  0.00    +0.170 HD
ENDROOT
BRANCH   1  14
ATOM     14  C   UNL     1       1.226   3.566   0.009  0.00  0.00    -0.011 C 
BRANCH  14  16
ATOM     15  C   UNL     1      -0.017   1.383   0.010  0.00  0.00    +0.020 A 
ATOM     16  C   UNL     1       1.194   2.059   0.002  0.00  0.00    -0.038 A 
ATOM     17  C   UNL     1       2.370   1.334  -0.013  0.00  0.00    +0.113 A 
ATOM     18  N   UNL     1       2.351   0.016  -0.020  0.00  0.00    -0.262 NA
ATOM     19  C   UNL     1       1.219  -0.661  -0.013  0.00  0.00    +0.126 A 
ATOM     20  C   UNL     1       0.002  -0.004   0.002  0.00  0.00    +0.036 A 
ATOM     21 BR   UNL     1      -1.615  -0.984   0.013  0.00  0.00    -0.049 Br
ENDBRANCH  14  16
BRANCH  14  22
ATOM     22  N   UNL     1       2.305   4.028   0.891  0.00  0.00    +0.385 N 
ATOM     23  H   UNL     1       2.142   3.691   1.828  0.00  0.00    -0.089 HD
ATOM     24  H   UNL     1       3.189   3.675   0.556  0.00  0.00    -0.089 HD
ATOM     25  H   UNL     1       2.327   5.037   0.896  0.00  0.00    -0.089 HD
ENDBRANCH  14  22
ENDBRANCH   1  14
TORSDOF 3
