REMARK  Name = ZINC35937930
REMARK  5 active torsions:
REMARK  status: ('A' for Active; 'I' for Inactive)
REMARK    1  A    between atoms: C_1  and  O_2
REMARK    2  A    between atoms: O_2  and  C_3
REMARK    3  A    between atoms: C_5  and  C_10
REMARK    4  A    between atoms: C_8  and  O_9
REMARK    5  A    between atoms: C_10  and  N_11
REMARK                            x       y       z     vdW  Elec       q    Type
REMARK                         _______ _______ _______ _____ _____    ______ ____
ROOT
ATOM      1  N   UNL     1      -5.295   0.520  -1.344  0.00  0.00    +0.383 N 
ATOM      2  C   UNL     1      -4.298   1.368  -2.008  0.00  0.00    -0.075 C 
ATOM      3  C   UNL     1      -4.693   1.578  -3.471  0.00  0.00    +0.027 C 
ATOM      4  C   UNL     1      -6.064   2.258  -3.531  0.00  0.00    +0.095 C 
ATOM      5  C   UNL     1      -7.082   1.402  -2.771  0.00  0.00    +0.027 C 
ATOM      6  C   UNL     1      -6.597   1.198  -1.334  0.00  0.00    -0.075 C 
ATOM      7  N   UNL     1      -6.485   2.376  -4.933  0.00  0.00    -0.323 N 
ATOM      8  C   UNL     1      -5.921   3.373  -5.721  0.00  0.00    +0.041 A 
ATOM      9  C   UNL     1      -5.783   3.228  -7.091  0.00  0.00    +0.025 A 
ATOM     10  C   UNL     1      -5.227   4.251  -7.835  0.00  0.00    +0.017 A 
ATOM     11  C   UNL     1      -4.808   5.422  -7.221  0.00  0.00    +0.019 A 
ATOM     12  C   UNL     1      -4.934   5.580  -5.855  0.00  0.00    +0.030 A 
ATOM     13  C   UNL     1      -5.488   4.554  -5.093  0.00  0.00    +0.059 A 
ATOM     14  C   UNL     1      -5.622   4.665  -3.630  0.00  0.00    +0.247 C 
ATOM     15  O   UNL     1      -5.412   5.726  -3.073  0.00  0.00    -0.270 OA
ATOM     16  N   UNL     1      -5.980   3.581  -2.913  0.00  0.00    -0.291 N 
ATOM     17 BR   UNL     1      -4.057   6.811  -8.261  0.00  0.00    -0.050 Br
ATOM     18  H   UNL     1      -7.144   1.769  -5.302  0.00  0.00    +0.148 HD
ATOM     19  H   UNL     1      -6.186   3.680  -1.970  0.00  0.00    +0.151 HD
ATOM     20  H   UNL     1      -5.376  -0.354  -1.843  0.00  0.00    -0.081 HD
ENDROOT
BRANCH   1  21
ATOM     21  C   UNL     1      -4.871   0.257   0.037  0.00  0.00    -0.043 C 
BRANCH  21  24
ATOM     22  C   UNL     1      -1.201  -0.638   0.010  0.00  0.00    +0.161 A 
ATOM     23  C   UNL     1      -2.374   0.099   0.019  0.00  0.00    +0.051 A 
ATOM     24  C   UNL     1      -3.596  -0.546   0.027  0.00  0.00    -0.060 A 
ATOM     25  C   UNL     1      -3.652  -1.928   0.026  0.00  0.00    +0.005 A 
ATOM     26  C   UNL     1      -2.485  -2.669   0.017  0.00  0.00    +0.049 A 
ATOM     27  C   UNL     1      -1.257  -2.028   0.003  0.00  0.00    +0.158 A 
BRANCH  22  29
ATOM     28  C   UNL     1      -0.017   1.425   0.010  0.00  0.00    +0.277 C 
ATOM     29  O   UNL     1       0.002  -0.004   0.002  0.00  0.00    -0.491 OA
ENDBRANCH  22  29
BRANCH  27  30
ATOM     30  O   UNL     1      -0.108  -2.756  -0.012  0.00  0.00    -0.503 OA
ATOM     31  H   UNL     1       0.232  -2.972   0.867  0.00  0.00    +0.292 HD
ENDBRANCH  27  30
ENDBRANCH  21  24
ENDBRANCH   1  21
TORSDOF 4
