REMARK  Name = ZINC52774157
REMARK  11 active torsions:
REMARK  status: ('A' for Active; 'I' for Inactive)
REMARK    1  A    between atoms: C_1  and  C_2
REMARK    2  A    between atoms: C_2  and  C_3
REMARK    3  A    between atoms: C_2  and  C_4
REMARK    4  A    between atoms: C_4  and  C_6
REMARK    5  A    between atoms: C_4  and  N_13
REMARK    6  A    between atoms: N_8  and  C_9
REMARK    7  A    between atoms: C_9  and  C_10
REMARK    8  A    between atoms: C_9  and  C_11
REMARK    9  A    between atoms: C_9  and  C_12
REMARK   10  A    between atoms: N_13  and  C_14
REMARK   11  A    between atoms: C_17  and  N_21
REMARK                            x       y       z     vdW  Elec       q    Type
REMARK                         _______ _______ _______ _____ _____    ______ ____
ROOT
ATOM      1  N   UNL     1      -2.193   0.124   1.079  0.00  0.00    -0.333 N 
ATOM      2  H   UNL     1      -1.977   1.034   1.336  0.00  0.00    +0.147 HD
ENDROOT
BRANCH   1   3
ATOM      3  C   UNL     1      -3.243  -0.552   1.713  0.00  0.00    +0.031 A 
ATOM      4  C   UNL     1      -3.629  -1.808   1.266  0.00  0.00    +0.044 A 
ATOM      5  C   UNL     1      -4.666  -2.475   1.891  0.00  0.00    +0.065 A 
ATOM      6  C   UNL     1      -5.320  -1.889   2.967  0.00  0.00    +0.062 A 
ATOM      7  C   UNL     1      -4.933  -0.632   3.414  0.00  0.00    +0.065 A 
ATOM      8  C   UNL     1      -3.893   0.032   2.792  0.00  0.00    +0.044 A 
ATOM      9 CL   UNL     1      -5.750   0.101   4.759  0.00  0.00    -0.082 Cl
ATOM     10 CL   UNL     1      -5.150  -4.046   1.331  0.00  0.00    -0.082 Cl
BRANCH   6  11
ATOM     11  N   UNL     1      -6.371  -2.565   3.601  0.00  0.00    -0.356 N 
ATOM     12  H   UNL     1      -6.642  -3.443   3.288  0.00  0.00    +0.142 HD
ATOM     13  H   UNL     1      -6.828  -2.156   4.352  0.00  0.00    +0.142 HD
ENDBRANCH   6  11
ENDBRANCH   1   3
BRANCH   1  14
ATOM     14  C   UNL     1      -1.420  -0.544   0.029  0.00  0.00    +0.159 C 
BRANCH  14  15
ATOM     15  C   UNL     1      -2.108  -0.355  -1.298  0.00  0.00    +0.234 C 
ATOM     16  O   UNL     1      -3.143   0.275  -1.361  0.00  0.00    -0.274 OA
ATOM     17  N   UNL     1      -1.575  -0.887  -2.416  0.00  0.00    -0.309 N 
ATOM     18  H   UNL     1      -0.748  -1.391  -2.366  0.00  0.00    +0.149 HD
BRANCH  17  19
ATOM     19  C   UNL     1      -2.244  -0.703  -3.706  0.00  0.00    +0.026 C 
ATOM     20  C   UNL     1      -2.346   0.791  -4.020  0.00  0.00    +0.031 C 
ATOM     21  C   UNL     1      -1.437  -1.401  -4.803  0.00  0.00    +0.031 C 
ATOM     22  C   UNL     1      -3.648  -1.308  -3.643  0.00  0.00    +0.031 C 
ENDBRANCH  17  19
ENDBRANCH  14  15
BRANCH  14  24
ATOM     23  C   UNL     1      -0.120   1.563  -0.308  0.00  0.00    +0.009 C 
ATOM     24  C   UNL     1      -0.016   0.061  -0.034  0.00  0.00    +0.012 C 
ATOM     25  C   UNL     1       0.698  -0.166   1.300  0.00  0.00    +0.009 C 
ENDBRANCH  14  24
ENDBRANCH   1  14
TORSDOF 6
