REMARK  Name = ZINC53118019
REMARK  7 active torsions:
REMARK  status: ('A' for Active; 'I' for Inactive)
REMARK    1  A    between atoms: C_1  and  C_2
REMARK    2  A    between atoms: C_5  and  C_8
REMARK    3  A    between atoms: C_5  and  N_10
REMARK    4  A    between atoms: C_8  and  O_9
REMARK    5  A    between atoms: N_10  and  C_11
REMARK    6  A    between atoms: C_11  and  C_12
REMARK    7  A    between atoms: C_15  and  N_19
REMARK                            x       y       z     vdW  Elec       q    Type
REMARK                         _______ _______ _______ _____ _____    ______ ____
ROOT
ATOM      1  N   UNL     1      -1.202  -2.048   2.466  0.00  0.00    +0.387 N 
ATOM      2  H   UNL     1      -0.637  -2.104   3.300  0.00  0.00    -0.085 HD
ATOM      3  H   UNL     1      -1.349  -1.080   2.224  0.00  0.00    -0.085 HD
ENDROOT
BRANCH   1   8
ATOM      4  C   UNL     1      -0.191   1.030  -0.757  0.00  0.00    +0.007 C 
ATOM      5  C   UNL     1      -0.060  -0.460  -0.434  0.00  0.00    -0.014 C 
ATOM      6  C   UNL     1      -1.453  -1.066  -0.249  0.00  0.00    +0.002 C 
ATOM      7  C   UNL     1      -1.323  -2.556   0.073  0.00  0.00    -0.010 C 
ATOM      8  C   UNL     1      -0.515  -2.730   1.361  0.00  0.00    -0.044 C 
ATOM      9  C   UNL     1       0.878  -2.124   1.176  0.00  0.00    -0.010 C 
ATOM     10  C   UNL     1       0.747  -0.634   0.853  0.00  0.00    +0.002 C 
BRANCH   8  11
ATOM     11  C   UNL     1      -0.385  -4.220   1.684  0.00  0.00    +0.143 C 
BRANCH  11  12
ATOM     12  O   UNL     1       0.257  -4.378   2.951  0.00  0.00    -0.396 OA
ATOM     13  H   UNL     1       0.373  -5.300   3.221  0.00  0.00    +0.209 HD
ENDBRANCH  11  12
ENDBRANCH   8  11
ENDBRANCH   1   8
BRANCH   1  14
ATOM     14  C   UNL     1      -2.499  -2.694   2.709  0.00  0.00    -0.044 C 
BRANCH  14  15
ATOM     15  C   UNL     1      -3.151  -2.072   3.917  0.00  0.00    -0.046 A 
ATOM     16  C   UNL     1      -3.083  -2.707   5.144  0.00  0.00    +0.005 A 
ATOM     17  C   UNL     1      -3.681  -2.137   6.251  0.00  0.00    +0.033 A 
ATOM     18  C   UNL     1      -4.349  -0.932   6.134  0.00  0.00    +0.128 A 
ATOM     19  C   UNL     1      -4.419  -0.297   4.908  0.00  0.00    +0.053 A 
ATOM     20  C   UNL     1      -3.815  -0.864   3.800  0.00  0.00    +0.044 A 
ATOM     21 CL   UNL     1      -3.895  -0.063   2.262  0.00  0.00    -0.083 Cl
BRANCH  18  22
ATOM     22  N   UNL     1      -4.991  -0.323   7.320  0.00  0.00    +0.056 N 
ATOM     23  O   UNL     1      -4.931  -0.879   8.392  0.00  0.00    -0.126 OA
ATOM     24  O   UNL     1      -5.575   0.730   7.217  0.00  0.00    -0.126 OA
ENDBRANCH  18  22
ENDBRANCH  14  15
ENDBRANCH   1  14
TORSDOF 6
