REMARK  Name = ZINC51202767
REMARK  7 active torsions:
REMARK  status: ('A' for Active; 'I' for Inactive)
REMARK    1  A    between atoms: C_1  and  C_2
REMARK    2  A    between atoms: C_2  and  N_3
REMARK    3  A    between atoms: C_4  and  C_6
REMARK    4  A    between atoms: C_6  and  N_7
REMARK    5  A    between atoms: N_10  and  C_13
REMARK    6  A    between atoms: C_13  and  C_15
REMARK    7  A    between atoms: C_13  and  C_16
REMARK                            x       y       z     vdW  Elec       q    Type
REMARK                         _______ _______ _______ _____ _____    ______ ____
ROOT
ATOM      1  N   UNL     1       1.530  -4.640   0.966  0.00  0.00    -0.298 NA
ATOM      2  C   UNL     1       0.203  -5.232   1.187  0.00  0.00    +0.066 C 
ATOM      3  C   UNL     1       0.364  -6.619   1.812  0.00  0.00    -0.062 C 
ATOM      4  N   UNL     1       1.086  -6.502   3.086  0.00  0.00    +0.389 N 
ATOM      5  C   UNL     1       2.418  -5.932   2.846  0.00  0.00    -0.062 C 
ATOM      6  C   UNL     1       2.273  -4.539   2.229  0.00  0.00    +0.066 C 
ATOM      7  H   UNL     1       0.570  -5.899   3.710  0.00  0.00    -0.081 HD
ENDROOT
BRANCH   4   8
ATOM      8  C   UNL     1       1.224  -7.832   3.694  0.00  0.00    +0.016 C 
ATOM      9  C   UNL     1       2.041  -7.720   4.984  0.00  0.00    -0.004 C 
BRANCH   8  10
ATOM     10  C   UNL     1      -0.141  -8.384   4.010  0.00  0.00    +0.202 C 
ATOM     11  O   UNL     1      -1.078  -7.631   4.171  0.00  0.00    -0.277 OA
ATOM     12  N   UNL     1      -0.322  -9.716   4.114  0.00  0.00    -0.298 N 
ATOM     13  C   UNL     1      -1.644 -10.288   4.416  0.00  0.00    +0.112 C 
ATOM     14  C   UNL     1      -2.084 -11.117   3.210  0.00  0.00    +0.054 C 
ATOM     15  C   UNL     1      -0.973 -12.023   2.749  0.00  0.00    -0.041 A 
ATOM     16  C   UNL     1      -1.319 -13.120   1.969  0.00  0.00    +0.004 A 
ATOM     17  C   UNL     1      -0.350 -13.985   1.505  0.00  0.00    +0.000 A 
ATOM     18  C   UNL     1       0.979 -13.760   1.817  0.00  0.00    +0.000 A 
ATOM     19  C   UNL     1       1.324 -12.674   2.594  0.00  0.00    +0.005 A 
ATOM     20  C   UNL     1       0.349 -11.806   3.066  0.00  0.00    -0.027 A 
ATOM     21  C   UNL     1       0.791 -10.653   3.925  0.00  0.00    +0.143 C 
ENDBRANCH   8  10
ENDBRANCH   4   8
BRANCH   1  22
ATOM     22  C   UNL     1       1.419  -3.328   0.314  0.00  0.00    +0.180 C 
BRANCH  22  24
ATOM     23  N   UNL     1       0.687  -2.430  -1.872  0.00  0.00    -0.315 N 
ATOM     24  C   UNL     1       0.874  -3.505  -1.081  0.00  0.00    +0.227 C 
ATOM     25  O   UNL     1       0.605  -4.614  -1.490  0.00  0.00    -0.274 OA
ATOM     26  H   UNL     1       0.902  -1.543  -1.544  0.00  0.00    +0.149 HD
BRANCH  23  28
ATOM     27  C   UNL     1       0.042  -1.235  -3.906  0.00  0.00    +0.024 C 
ATOM     28  C   UNL     1       0.157  -2.601  -3.227  0.00  0.00    +0.101 C 
ENDBRANCH  23  28
ENDBRANCH  22  24
ENDBRANCH   1  22
TORSDOF 5
