REMARK  Name = ZINC09332973
REMARK  6 active torsions:
REMARK  status: ('A' for Active; 'I' for Inactive)
REMARK    1  A    between atoms: C_1  and  C_2
REMARK    2  A    between atoms: C_2  and  N_3
REMARK    3  A    between atoms: C_6  and  C_12
REMARK    4  A    between atoms: C_7  and  O_11
REMARK    5  A    between atoms: C_9  and  O_10
REMARK    6  A    between atoms: C_26  and  N_45
REMARK                            x       y       z     vdW  Elec       q    Type
REMARK                         _______ _______ _______ _____ _____    ______ ____
ROOT
ATOM      1  C   UNL     1      -4.889   2.453   0.036  0.00  0.00    +0.021 C 
ATOM      2  C   UNL     1      -3.378   2.473   0.031  0.00  0.00    +0.011 A 
ATOM      3  C   UNL     1      -2.630   1.351   0.022  0.00  0.00    -0.022 A 
ATOM      4  C   UNL     1      -1.231   1.759   0.017  0.00  0.00    +0.003 A 
ATOM      5  C   UNL     1      -0.013   1.076   0.008  0.00  0.00    +0.010 A 
ATOM      6  C   UNL     1       1.160   1.776   0.001  0.00  0.00    +0.001 A 
ATOM      7  C   UNL     1       1.153   3.164   0.008  0.00  0.00    +0.002 A 
ATOM      8  C   UNL     1      -0.036   3.860   0.022  0.00  0.00    +0.026 A 
ATOM      9  C   UNL     1      -1.242   3.168   0.030  0.00  0.00    +0.047 A 
ATOM     10  N   UNL     1      -2.562   3.567   0.045  0.00  0.00    -0.359 N 
ATOM     11  H   UNL     1      -2.865   4.488   0.053  0.00  0.00    +0.166 HD
ATOM     12  C   UNL     1      -3.207  -0.041   0.020  0.00  0.00    +0.019 C 
ATOM     13  C   UNL     1      -4.685   0.061   0.422  0.00  0.00    -0.073 C 
ATOM     14  C   UNL     1      -6.800   0.999  -0.296  0.00  0.00    -0.095 C 
ATOM     15  N   UNL     1      -5.330   1.107  -0.403  0.00  0.00    +0.387 N 
ATOM     16  H   UNL     1      -5.057   0.972  -1.384  0.00  0.00    -0.081 HD
ENDROOT
BRANCH   1  20
ATOM     17  N   UNL     1      -5.665   4.294  -3.142  0.00  0.00    -0.263 N 
ATOM     18  C   UNL     1      -5.178   3.352  -2.308  0.00  0.00    +0.262 A 
ATOM     19  O   UNL     1      -4.543   2.405  -2.743  0.00  0.00    -0.267 OA
ATOM     20  C   UNL     1      -5.414   3.481  -0.933  0.00  0.00    +0.071 A 
ATOM     21  C   UNL     1      -6.143   4.567  -0.483  0.00  0.00    +0.224 A 
ATOM     22  N   UNL     1      -6.595   5.472  -1.358  0.00  0.00    -0.161 NA
ATOM     23  C   UNL     1      -6.370   5.345  -2.647  0.00  0.00    +0.302 A 
BRANCH  17  25
ATOM     24  C   UNL     1      -6.574   3.392  -5.225  0.00  0.00    +0.027 C 
ATOM     25  C   UNL     1      -5.433   4.185  -4.584  0.00  0.00    +0.126 C 
ENDBRANCH  17  25
BRANCH  23  26
ATOM     26  O   UNL     1      -6.849   6.277  -3.495  0.00  0.00    -0.479 OA
ATOM     27  H   UNL     1      -7.346   7.011  -3.107  0.00  0.00    +0.295 HD
ENDBRANCH  23  26
BRANCH  21  28
ATOM     28  O   UNL     1      -6.393   4.717   0.839  0.00  0.00    -0.492 OA
ATOM     29  H   UNL     1      -6.910   5.506   1.054  0.00  0.00    +0.294 HD
ENDBRANCH  21  28
ENDBRANCH   1  20
TORSDOF 4
