REMARK  Name = ZINC61823704
REMARK  10 active torsions:
REMARK  status: ('A' for Active; 'I' for Inactive)
REMARK    1  A    between atoms: C_1  and  C_2
REMARK    2  A    between atoms: C_2  and  N_3
REMARK    3  A    between atoms: N_3  and  C_4
REMARK    4  A    between atoms: C_4  and  C_5
REMARK    5  A    between atoms: C_6  and  C_18
REMARK    6  A    between atoms: C_13  and  C_16
REMARK    7  A    between atoms: C_13  and  C_17
REMARK    8  A    between atoms: C_18  and  C_19
REMARK    9  A    between atoms: C_18  and  C_20
REMARK   10  A    between atoms: C_18  and  C_21
REMARK                            x       y       z     vdW  Elec       q    Type
REMARK                         _______ _______ _______ _____ _____    ______ ____
ROOT
ATOM      1  C   UNL     1       1.358  -2.359  -2.630  0.00  0.00    -0.002 A 
ATOM      2  C   UNL     1       2.633  -2.762  -2.848  0.00  0.00    +0.057 A 
ATOM      3  N   UNL     1       2.934  -3.170  -4.069  0.00  0.00    -0.229 NA
ATOM      4  C   UNL     1       2.028  -3.180  -5.024  0.00  0.00    +0.161 A 
ATOM      5  S   UNL     1       0.648  -2.608  -4.249  0.00  0.00    -0.059 S 
ATOM      6  N   UNL     1       2.175  -3.572  -6.345  0.00  0.00    -0.310 N 
ATOM      7  C   UNL     1       3.468  -4.060  -6.842  0.00  0.00    +0.107 C 
ATOM      8  C   UNL     1       3.260  -5.428  -7.500  0.00  0.00    +0.025 C 
ATOM      9  C   UNL     1       2.176  -5.312  -8.575  0.00  0.00    -0.032 C 
ATOM     10  C   UNL     1       0.858  -4.880  -7.929  0.00  0.00    +0.025 C 
ATOM     11  C   UNL     1       1.038  -3.512  -7.274  0.00  0.00    +0.107 C 
ATOM     12  C   UNL     1       2.599  -4.272  -9.615  0.00  0.00    +0.011 C 
ATOM     13  C   UNL     1       1.989  -6.668  -9.258  0.00  0.00    +0.011 C 
ENDROOT
BRANCH   2  14
ATOM     14  C   UNL     1       3.662  -2.746  -1.748  0.00  0.00    +0.005 C 
ATOM     15  C   UNL     1       3.284  -3.775  -0.680  0.00  0.00    +0.017 C 
ATOM     16  C   UNL     1       5.034  -3.094  -2.328  0.00  0.00    +0.017 C 
ATOM     17  C   UNL     1       3.713  -1.353  -1.118  0.00  0.00    +0.017 C 
ENDBRANCH   2  14
BRANCH   1  18
ATOM     18  C   UNL     1       0.714  -1.848  -1.367  0.00  0.00    -0.037 C 
BRANCH  18  19
ATOM     19  N   UNL     1       0.706  -0.379  -1.382  0.00  0.00    +0.382 N 
ATOM     20  H   UNL     1       0.241  -0.053  -2.216  0.00  0.00    -0.085 HD
ATOM     21  H   UNL     1       1.655  -0.037  -1.371  0.00  0.00    -0.085 HD
BRANCH  19  23
ATOM     22  C   UNL     1      -0.016   1.649  -0.213  0.00  0.00    -0.017 C 
ATOM     23  C   UNL     1      -0.007   0.119  -0.198  0.00  0.00    -0.086 C 
ENDBRANCH  19  23
ENDBRANCH  18  19
ENDBRANCH   1  18
TORSDOF 4
