REMARK  Name = ZINC49119930
REMARK  6 active torsions:
REMARK  status: ('A' for Active; 'I' for Inactive)
REMARK    1  A    between atoms: C_1  and  C_2
REMARK    2  A    between atoms: C_2  and  C_3
REMARK    3  A    between atoms: C_9  and  N_11
REMARK    4  A    between atoms: N_11  and  C_12
REMARK    5  A    between atoms: C_12  and  C_14
REMARK    6  A    between atoms: C_12  and  C_15
REMARK                            x       y       z     vdW  Elec       q    Type
REMARK                         _______ _______ _______ _____ _____    ______ ____
ROOT
ATOM      1  N   UNL     1      -0.783  -2.496  -1.787  0.00  0.00    +0.388 N 
ATOM      2  H   UNL     1      -1.355  -1.914  -1.194  0.00  0.00    -0.084 HD
ATOM      3  H   UNL     1      -1.113  -2.433  -2.739  0.00  0.00    -0.084 HD
ENDROOT
BRANCH   1   9
ATOM      4  C   UNL     1       0.681  -0.555  -2.077  0.00  0.00    -0.025 C 
ATOM      5  C   UNL     1       2.135  -0.082  -2.009  0.00  0.00    +0.002 C 
ATOM      6  C   UNL     1       2.979  -0.882  -3.002  0.00  0.00    +0.000 C 
ATOM      7  C   UNL     1       2.910  -2.369  -2.647  0.00  0.00    -0.002 C 
ATOM      8  C   UNL     1       1.457  -2.843  -2.715  0.00  0.00    -0.015 C 
ATOM      9  C   UNL     1       0.612  -2.042  -1.722  0.00  0.00    -0.068 C 
BRANCH   4  11
ATOM     10  C   UNL     1      -0.195   1.715  -1.510  0.00  0.00    +0.004 C 
ATOM     11  C   UNL     1      -0.163   0.246  -1.084  0.00  0.00    -0.002 C 
ENDBRANCH   4  11
ENDBRANCH   1   9
BRANCH   1  12
ATOM     12  C   UNL     1      -0.866  -3.890  -1.332  0.00  0.00    +0.013 C 
ATOM     13  C   UNL     1      -0.484  -3.967   0.148  0.00  0.00    -0.004 C 
BRANCH  12  14
ATOM     14  C   UNL     1      -2.274  -4.396  -1.514  0.00  0.00    +0.201 C 
ATOM     15  O   UNL     1      -3.172  -3.616  -1.748  0.00  0.00    -0.277 OA
ATOM     16  N   UNL     1      -2.534  -5.715  -1.417  0.00  0.00    -0.303 N 
ATOM     17  C   UNL     1      -3.869  -6.181  -1.717  0.00  0.00    +0.107 C 
ATOM     18  C   UNL     1      -4.731  -6.154  -0.430  0.00  0.00    +0.019 C 
ATOM     19  C   UNL     1      -4.301  -7.215   0.494  0.00  0.00    +0.002 C 
ATOM     20  C   UNL     1      -2.868  -7.069   0.996  0.00  0.00    +0.002 C 
ATOM     21  C   UNL     1      -1.922  -7.687  -0.004  0.00  0.00    +0.019 C 
ATOM     22  C   UNL     1      -1.443  -6.623  -1.014  0.00  0.00    +0.107 C 
ENDBRANCH  12  14
ENDBRANCH   1  12
TORSDOF 4
