REMARK  Name = ZINC30879739
REMARK  8 active torsions:
REMARK  status: ('A' for Active; 'I' for Inactive)
REMARK    1  A    between atoms: C_1  and  C_2
REMARK    2  A    between atoms: N_5  and  C_8
REMARK    3  A    between atoms: C_10  and  C_20
REMARK    4  A    between atoms: C_13  and  C_18
REMARK    5  A    between atoms: C_15  and  O_17
REMARK    6  A    between atoms: C_18  and  O_19
REMARK    7  A    between atoms: C_20  and  N_21
REMARK    8  A    between atoms: C_22  and  C_24
REMARK                            x       y       z     vdW  Elec       q    Type
REMARK                         _______ _______ _______ _____ _____    ______ ____
ROOT
ATOM      1  C   UNL     1      -0.015   1.156   2.416  0.00  0.00    -0.006 C 
ATOM      2  C   UNL     1      -0.592   1.841   3.675  0.00  0.00    +0.125 C 
ATOM      3  O   UNL     1      -1.442   0.843   4.281  0.00  0.00    -0.369 OA
ATOM      4  C   UNL     1      -0.720  -0.401   4.151  0.00  0.00    +0.171 C 
ATOM      5  C   UNL     1      -0.102  -0.353   2.736  0.00  0.00    +0.134 C 
ENDROOT
BRANCH   1  10
ATOM      6  C   UNL     1      -3.298   1.469  -2.252  0.00  0.00    +0.007 C 
ATOM      7  C   UNL     1      -2.491   0.944  -1.064  0.00  0.00    -0.018 C 
ATOM      8  C   UNL     1      -1.030   1.382  -1.203  0.00  0.00    -0.016 C 
ATOM      9  C   UNL     1      -0.241   0.906   0.018  0.00  0.00    -0.078 C 
ATOM     10  N   UNL     1      -0.829   1.479   1.236  0.00  0.00    +0.385 N 
ATOM     11  C   UNL     1      -2.216   1.034   1.416  0.00  0.00    -0.078 C 
ATOM     12  C   UNL     1      -3.065   1.514   0.237  0.00  0.00    -0.016 C 
ATOM     13  H   UNL     1      -0.841   2.573   1.120  0.00  0.00    -0.081 HD
ENDBRANCH   1  10
BRANCH   5  14
ATOM     14  O   UNL     1      -0.949  -1.016   1.797  0.00  0.00    -0.391 OA
ATOM     15  H   UNL     1      -1.121  -2.100   1.881  0.00  0.00    +0.210 HD
ENDBRANCH   5  14
BRANCH   4  16
ATOM     16  C   UNL     1      -1.678  -1.587   4.274  0.00  0.00    +0.190 C 
BRANCH  16  17
ATOM     17  O   UNL     1      -2.149  -1.683   5.620  0.00  0.00    -0.392 OA
ATOM     18  H   UNL     1      -2.852  -2.481   5.901  0.00  0.00    +0.210 HD
ENDBRANCH  16  17
ENDBRANCH   4  16
BRANCH   2  19
ATOM     19  C   UNL     1      -1.411   3.072   3.283  0.00  0.00    +0.134 C 
BRANCH  19  20
ATOM     20  N   UNL     1      -1.820   3.792   4.492  0.00  0.00    -0.313 N 
ATOM     21  C   UNL     1      -2.556   4.916   4.391  0.00  0.00    +0.216 C 
ATOM     22  O   UNL     1      -2.880   5.332   3.299  0.00  0.00    -0.276 OA
ATOM     23  H   UNL     1      -1.526   3.414   5.483  0.00  0.00    +0.149 HD
BRANCH  21  24
ATOM     24  C   UNL     1      -2.977   5.656   5.635  0.00  0.00    +0.075 C 
ATOM     25  C   UNL     1      -3.893   4.763   6.497  0.00  0.00    +0.013 C 
ATOM     26  C   UNL     1      -4.940   5.744   7.080  0.00  0.00    +0.001 C 
ATOM     27  C   UNL     1      -5.192   6.716   5.900  0.00  0.00    +0.001 C 
ATOM     28  C   UNL     1      -3.803   6.898   5.256  0.00  0.00    +0.013 C 
ENDBRANCH  21  24
ENDBRANCH  19  20
ENDBRANCH   2  19
TORSDOF 7
