REMARK  Name = ZINC57601596
REMARK  6 active torsions:
REMARK  status: ('A' for Active; 'I' for Inactive)
REMARK    1  A    between atoms: C_1  and  C_2
REMARK    2  A    between atoms: C_5  and  C_8
REMARK    3  A    between atoms: C_8  and  C_10
REMARK    4  A    between atoms: C_8  and  C_21
REMARK    5  A    between atoms: C_10  and  C_11
REMARK    6  A    between atoms: C_21  and  N_22
REMARK                            x       y       z     vdW  Elec       q    Type
REMARK                         _______ _______ _______ _____ _____    ______ ____
ROOT
ATOM      1  C   UNL     1       0.059  -4.275  -0.021  0.00  0.00    +0.010 C 
ENDROOT
BRANCH   1   6
ATOM      2  C   UNL     1      -0.018   1.503   0.010  0.00  0.00    +0.044 C 
ATOM      3  C   UNL     1       0.002  -0.004   0.002  0.00  0.00    -0.050 A 
ATOM      4  C   UNL     1       0.006  -0.689  -1.199  0.00  0.00    +0.003 A 
ATOM      5  C   UNL     1       0.025  -2.071  -1.206  0.00  0.00    +0.004 A 
ATOM      6  C   UNL     1       0.040  -2.768  -0.013  0.00  0.00    -0.046 A 
ATOM      7  C   UNL     1       0.037  -2.084   1.188  0.00  0.00    +0.004 A 
ATOM      8  C   UNL     1       0.023  -0.702   1.195  0.00  0.00    +0.003 A 
ENDBRANCH   1   6
BRANCH   1   9
ATOM      9  C   UNL     1       1.319  -4.773   0.690  0.00  0.00    +0.102 C 
BRANCH   9  10
ATOM     10  C   UNL     1       1.401  -6.273   0.575  0.00  0.00    +0.216 C 
ATOM     11  O   UNL     1       0.538  -6.884  -0.018  0.00  0.00    -0.276 OA
ATOM     12  N   UNL     1       2.435  -6.936   1.131  0.00  0.00    -0.298 N 
ATOM     13  C   UNL     1       3.486  -6.209   1.857  0.00  0.00    +0.126 C 
ATOM     14  C   UNL     1       3.604  -6.799   3.268  0.00  0.00    +0.126 C 
ATOM     15  N   UNL     1       3.700  -8.262   3.159  0.00  0.00    -0.301 N 
ATOM     16  C   UNL     1       2.649  -8.989   2.433  0.00  0.00    +0.126 C 
ATOM     17  C   UNL     1       2.528  -8.399   1.027  0.00  0.00    +0.126 C 
ATOM     18  C   UNL     1       4.734  -8.925   3.715  0.00  0.00    +0.328 C 
ATOM     19  O   UNL     1       4.802 -10.132   3.619  0.00  0.00    -0.279 OA
ENDBRANCH   9  10
ENDBRANCH   1   9
BRANCH   1  20
ATOM     20  C   UNL     1      -1.179  -4.805   0.704  0.00  0.00    -0.078 C 
BRANCH  20  21
ATOM     21  N   UNL     1      -2.385  -4.428  -0.046  0.00  0.00    +0.379 N 
ATOM     22  H   UNL     1      -2.438  -3.423  -0.113  0.00  0.00    -0.090 HD
ATOM     23  H   UNL     1      -2.342  -4.825  -0.973  0.00  0.00    -0.090 HD
ATOM     24  H   UNL     1      -3.201  -4.778   0.432  0.00  0.00    -0.090 HD
ENDBRANCH  20  21
ENDBRANCH   1  20
TORSDOF 5
