REMARK  Name = ZINC63934031
REMARK  7 active torsions:
REMARK  status: ('A' for Active; 'I' for Inactive)
REMARK    1  A    between atoms: C_1  and  C_2
REMARK    2  A    between atoms: C_6  and  N_8
REMARK    3  A    between atoms: C_9  and  O_35
REMARK    4  A    between atoms: C_12  and  O_34
REMARK    5  A    between atoms: C_13  and  C_17
REMARK    6  A    between atoms: C_24  and  O_29
REMARK    7  A    between atoms: O_29  and  C_30
REMARK                            x       y       z     vdW  Elec       q    Type
REMARK                         _______ _______ _______ _____ _____    ______ ____
ROOT
ATOM      1  N   UNL     1       0.052  -2.797   2.393  0.00  0.00    -0.225 N 
ATOM      2  C   UNL     1       0.153  -2.052   3.639  0.00  0.00    +0.338 C 
ATOM      3  N   UNL     1      -0.308  -2.828   4.779  0.00  0.00    -0.204 NA
ATOM      4  C   UNL     1      -0.398  -4.101   4.792  0.00  0.00    +0.200 C 
ATOM      5  C   UNL     1      -0.037  -4.955   3.612  0.00  0.00    +0.179 C 
ATOM      6  C   UNL     1      -0.032  -4.133   2.355  0.00  0.00    +0.237 C 
ATOM      7  O   UNL     1      -0.102  -4.693   1.281  0.00  0.00    -0.274 OA
ENDROOT
BRANCH   5   8
ATOM      8  C   UNL     1       1.353  -5.557   3.830  0.00  0.00    +0.101 C 
ATOM      9  C   UNL     1       1.323  -6.501   5.034  0.00  0.00    +0.124 C 
ATOM     10  C   UNL     1       2.768  -6.919   5.284  0.00  0.00    -0.036 C 
ATOM     11  C   UNL     1       2.780  -8.244   5.289  0.00  0.00    +0.003 A 
ATOM     12  C   UNL     1       3.848  -9.219   5.560  0.00  0.00    +0.055 A 
ATOM     13  C   UNL     1       3.514 -10.535   5.463  0.00  0.00    +0.121 A 
ATOM     14  C   UNL     1       2.233 -10.996   5.126  0.00  0.00    +0.047 A 
ATOM     15  C   UNL     1       1.175 -10.187   4.862  0.00  0.00    +0.029 A 
ATOM     16  C   UNL     1       1.411  -8.739   4.941  0.00  0.00    +0.043 A 
ATOM     17  N   UNL     1       0.580  -7.732   4.766  0.00  0.00    -0.376 N 
ATOM     18  C   UNL     1       3.880  -5.903   5.383  0.00  0.00    +0.048 C 
ATOM     19  C   UNL     1       3.705  -4.957   4.180  0.00  0.00    +0.085 C 
ATOM     20  N   UNL     1       2.320  -4.484   4.107  0.00  0.00    -0.310 NA
ATOM     21  H   UNL     1       2.229  -3.733   3.438  0.00  0.00    +0.122 HD
ATOM     22  H   UNL     1      -0.353  -7.786   4.504  0.00  0.00    +0.160 HD
BRANCH  13  23
ATOM     23  O   UNL     1       4.481 -11.458   5.707  0.00  0.00    -0.495 OA
ATOM     24  C   UNL     1       4.106 -12.833   5.599  0.00  0.00    +0.277 C 
ENDBRANCH  13  23
ENDBRANCH   5   8
BRANCH   1  30
ATOM     25  C   UNL     1      -2.484  -0.454  -1.107  0.00  0.00    +0.044 C 
ATOM     26  C   UNL     1      -1.178  -0.942  -0.533  0.00  0.00    -0.049 A 
ATOM     27  C   UNL     1       0.007  -0.689  -1.200  0.00  0.00    +0.003 A 
ATOM     28  C   UNL     1       1.206  -1.135  -0.677  0.00  0.00    +0.002 A 
ATOM     29  C   UNL     1       1.225  -1.834   0.514  0.00  0.00    +0.023 A 
ATOM     30  C   UNL     1       0.037  -2.089   1.186  0.00  0.00    +0.041 A 
ATOM     31  C   UNL     1      -1.166  -1.635   0.660  0.00  0.00    +0.027 A 
ENDBRANCH   1  30
BRANCH   4  32
ATOM     32  O   UNL     1      -0.837  -4.705   5.915  0.00  0.00    -0.495 OA
ATOM     33  H   UNL     1      -1.051  -4.093   6.633  0.00  0.00    +0.293 HD
ENDBRANCH   4  32
BRANCH   2  34
ATOM     34  O   UNL     1       1.518  -1.685   3.851  0.00  0.00    -0.356 OA
ATOM     35  H   UNL     1       1.669  -1.184   4.664  0.00  0.00    +0.214 HD
ENDBRANCH   2  34
TORSDOF 5
