REMARK  Name = ZINC66952596
REMARK  5 active torsions:
REMARK  status: ('A' for Active; 'I' for Inactive)
REMARK    1  A    between atoms: C_10  and  C_11
REMARK    2  A    between atoms: C_10  and  O_28
REMARK    3  A    between atoms: C_11  and  N_12
REMARK    4  A    between atoms: N_15  and  C_16
REMARK    5  A    between atoms: C_21  and  N_22
REMARK                            x       y       z     vdW  Elec       q    Type
REMARK                         _______ _______ _______ _____ _____    ______ ____
ROOT
ATOM      1  N   UNL     1       4.765   1.471  -0.602  0.00  0.00    -0.296 N 
ATOM      2  C   UNL     1       5.436   2.340  -1.383  0.00  0.00    +0.304 C 
ATOM      3  O   UNL     1       6.004   1.946  -2.383  0.00  0.00    -0.253 OA
ATOM      4  N   UNL     1       5.476   3.647  -1.057  0.00  0.00    -0.267 N 
ATOM      5  H   UNL     1       4.312   1.786   0.196  0.00  0.00    +0.150 HD
ATOM      6  H   UNL     1       5.075   3.953  -0.228  0.00  0.00    +0.156 HD
ENDROOT
BRANCH   4   7
ATOM      7  C   UNL     1       6.099   4.565  -1.914  0.00  0.00    +0.073 A 
ATOM      8  C   UNL     1       7.213   4.194  -2.655  0.00  0.00    +0.028 A 
ATOM      9  C   UNL     1       7.795   5.138  -3.491  0.00  0.00    +0.019 A 
ATOM     10  C   UNL     1       7.254   6.406  -3.562  0.00  0.00    +0.084 A 
ATOM     11  N   UNL     1       6.194   6.733  -2.846  0.00  0.00    -0.348 N 
ATOM     12  C   UNL     1       5.604   5.865  -2.041  0.00  0.00    +0.121 A 
ATOM     13  H   UNL     1       5.836   7.632  -2.916  0.00  0.00    +0.167 HD
BRANCH  12  14
ATOM     14  N   UNL     1       4.484   6.252  -1.310  0.00  0.00    -0.311 N 
ATOM     15  C   UNL     1       4.624   6.943  -0.019  0.00  0.00    +0.134 C 
ATOM     16  C   UNL     1       3.747   8.200  -0.045  0.00  0.00    +0.178 C 
ATOM     17  O   UNL     1       2.418   7.839  -0.431  0.00  0.00    -0.377 OA
ATOM     18  C   UNL     1       2.321   7.287  -1.746  0.00  0.00    +0.178 C 
ATOM     19  C   UNL     1       3.125   5.988  -1.810  0.00  0.00    +0.134 C 
ENDBRANCH  12  14
ENDBRANCH   4   7
BRANCH   1  20
ATOM     20  C   UNL     1       4.721   0.050  -0.958  0.00  0.00    +0.145 C 
BRANCH  20  30
ATOM     21  C   UNL     1       3.675  -4.804  -1.149  0.00  0.00    +0.000 A 
ATOM     22  C   UNL     1       3.639  -3.798  -2.097  0.00  0.00    +0.000 A 
ATOM     23  C   UNL     1       3.683  -2.479  -1.697  0.00  0.00    +0.007 A 
ATOM     24  C   UNL     1       3.765  -2.151  -0.350  0.00  0.00    -0.011 A 
ATOM     25  C   UNL     1       3.805  -3.153   0.594  0.00  0.00    -0.041 A 
ATOM     26  C   UNL     1       3.756  -4.481   0.190  0.00  0.00    +0.004 A 
ATOM     27  C   UNL     1       3.910  -2.872   2.070  0.00  0.00    +0.035 C 
ATOM     28  C   UNL     1       3.523  -1.425   2.370  0.00  0.00    +0.008 C 
ATOM     29  C   UNL     1       4.323  -0.507   1.440  0.00  0.00    +0.041 C 
ATOM     30  C   UNL     1       3.802  -0.691   0.016  0.00  0.00    +0.107 C 
BRANCH  30  31
ATOM     31  O   UNL     1       2.483  -0.148  -0.076  0.00  0.00    -0.382 OA
ATOM     32  H   UNL     1       2.092  -0.213  -0.958  0.00  0.00    +0.211 HD
ENDBRANCH  30  31
ENDBRANCH  20  30
ENDBRANCH   1  20
TORSDOF 5
