REMARK  Name = ZINC52006680
REMARK  5 active torsions:
REMARK  status: ('A' for Active; 'I' for Inactive)
REMARK    1  A    between atoms: C_3  and  N_12
REMARK    2  A    between atoms: C_4  and  N_9
REMARK    3  A    between atoms: C_6  and  C_7
REMARK    4  A    between atoms: N_12  and  C_13
REMARK    5  A    between atoms: C_19  and  O_21
REMARK                            x       y       z     vdW  Elec       q    Type
REMARK                         _______ _______ _______ _____ _____    ______ ____
ROOT
ATOM      1  C   UNL     1       0.011   1.408  -0.219  0.00  0.00    +0.021 A 
ATOM      2  C   UNL     1       1.217   2.069  -0.281  0.00  0.00    +0.026 A 
ATOM      3  C   UNL     1       2.404   1.375  -0.069  0.00  0.00    +0.058 A 
ATOM      4  C   UNL     1       2.377   0.010   0.206  0.00  0.00    +0.148 A 
ATOM      5  C   UNL     1       1.175  -0.656   0.270  0.00  0.00    +0.053 A 
ATOM      6  C   UNL     1      -0.020   0.038   0.057  0.00  0.00    +0.054 A 
ENDROOT
BRANCH   4   7
ATOM      7  N   UNL     1       3.642  -0.724   0.430  0.00  0.00    +0.058 N 
ATOM      8  O   UNL     1       3.768  -1.852   0.014  0.00  0.00    -0.126 OA
ATOM      9  O   UNL     1       4.550  -0.196   1.028  0.00  0.00    -0.126 OA
ENDBRANCH   4   7
BRANCH   6  10
ATOM     10  C   UNL     1      -1.273  -0.653   0.123  0.00  0.00    +0.099 C 
ATOM     11  N   UNL     1      -2.267  -1.201   0.175  0.00  0.00    -0.191 NA
ENDBRANCH   6  10
BRANCH   3  12
ATOM     12  N   UNL     1       3.622   2.046  -0.134  0.00  0.00    -0.337 N 
ATOM     13  H   UNL     1       4.453   1.549  -0.073  0.00  0.00    +0.147 HD
BRANCH  12  14
ATOM     14  C   UNL     1       3.648   3.502  -0.293  0.00  0.00    +0.099 C 
ATOM     15  C   UNL     1       3.542   3.854  -1.778  0.00  0.00    +0.025 C 
ATOM     16  C   UNL     1       3.570   5.375  -1.944  0.00  0.00    +0.002 C 
ATOM     17  C   UNL     1       4.881   5.926  -1.381  0.00  0.00    +0.003 C 
ATOM     18  C   UNL     1       4.987   5.574   0.104  0.00  0.00    +0.033 C 
ATOM     19  C   UNL     1       4.960   4.053   0.270  0.00  0.00    +0.135 C 
BRANCH  19  20
ATOM     20  O   UNL     1       5.058   3.724   1.657  0.00  0.00    -0.390 OA
ATOM     21  H   UNL     1       5.867   4.042   2.080  0.00  0.00    +0.210 HD
ENDBRANCH  19  20
ENDBRANCH  12  14
ENDBRANCH   3  12
TORSDOF 5
