REMARK  Name = ZINC04553961
REMARK  5 active torsions:
REMARK  status: ('A' for Active; 'I' for Inactive)
REMARK    1  A    between atoms: C_1  and  C_2
REMARK    2  A    between atoms: C_2  and  C_3
REMARK    3  A    between atoms: C_2  and  N_44
REMARK    4  A    between atoms: C_11  and  O_22
REMARK    5  A    between atoms: C_13  and  C_16
REMARK                            x       y       z     vdW  Elec       q    Type
REMARK                         _______ _______ _______ _____ _____    ______ ____
ROOT
ATOM      1  C   UNL     1      -1.786   4.911   1.087  0.00  0.00    -0.073 C 
ATOM      2  C   UNL     1      -1.120   3.670   0.485  0.00  0.00    +0.018 C 
ATOM      3  C   UNL     1       0.345   3.999   0.217  0.00  0.00    -0.027 A 
ATOM      4  C   UNL     1       0.750   5.291   0.170  0.00  0.00    -0.021 A 
ATOM      5  S   UNL     1       2.490   5.210  -0.157  0.00  0.00    -0.080 S 
ATOM      6  C   UNL     1       2.667   3.509  -0.234  0.00  0.00    +0.080 A 
ATOM      7  C   UNL     1       1.381   3.006   0.005  0.00  0.00    +0.067 A 
ATOM      8  C   UNL     1       1.217   1.530  -0.001  0.00  0.00    +0.220 C 
ATOM      9  N   UNL     1       2.297   0.798  -0.010  0.00  0.00    -0.223 NA
ATOM     10  C   UNL     1       3.655   1.320   0.069  0.00  0.00    +0.224 C 
ATOM     11  N   UNL     1       3.745   2.691  -0.469  0.00  0.00    -0.313 N 
ATOM     12  C   UNL     1      -0.110   6.500   0.355  0.00  0.00    -0.035 C 
ATOM     13  H   UNL     1       4.523   2.997  -0.961  0.00  0.00    +0.149 HD
ATOM     14  N   UNL     1      -1.525   6.077   0.218  0.00  0.00    +0.384 N 
ATOM     15  H   UNL     1      -1.702   5.813  -0.758  0.00  0.00    -0.081 HD
ENDROOT
BRANCH  10  16
ATOM     16  C   UNL     1       4.089   1.329   1.512  0.00  0.00    -0.005 A 
ATOM     17  C   UNL     1       5.026   2.247   1.947  0.00  0.00    +0.007 A 
ATOM     18  C   UNL     1       5.421   2.257   3.272  0.00  0.00    +0.000 A 
ATOM     19  C   UNL     1       4.884   1.344   4.160  0.00  0.00    +0.000 A 
ATOM     20  C   UNL     1       3.950   0.423   3.724  0.00  0.00    +0.000 A 
ATOM     21  C   UNL     1       3.553   0.415   2.400  0.00  0.00    +0.007 A 
ENDBRANCH  10  16
BRANCH  14  23
ATOM     22  C   UNL     1      -2.175   7.626   2.031  0.00  0.00    -0.014 C 
ATOM     23  C   UNL     1      -2.424   7.192   0.585  0.00  0.00    -0.074 C 
ATOM     24  C   UNL     1      -2.162   8.372  -0.353  0.00  0.00    -0.014 C 
ENDBRANCH  14  23
BRANCH   8  25
ATOM     25  O   UNL     1      -0.011   0.963   0.007  0.00  0.00    -0.492 OA
ATOM     26  H   UNL     1       0.002  -0.004   0.002  0.00  0.00    +0.294 HD
ENDBRANCH   8  25
TORSDOF 3
