REMARK  Name = ZINC62799281
REMARK  6 active torsions:
REMARK  status: ('A' for Active; 'I' for Inactive)
REMARK    1  A    between atoms: C_1  and  C_2
REMARK    2  A    between atoms: C_2  and  C_4
REMARK    3  A    between atoms: C_2  and  O_10
REMARK    4  A    between atoms: O_10  and  C_11
REMARK    5  A    between atoms: C_19  and  N_21
REMARK    6  A    between atoms: N_21  and  C_22
REMARK                            x       y       z     vdW  Elec       q    Type
REMARK                         _______ _______ _______ _____ _____    ______ ____
ROOT
ATOM      1  C   UNL     1      -0.107  -0.775  -2.244  0.00  0.00    +0.125 A 
ATOM      2  C   UNL     1      -1.472  -0.534  -2.201  0.00  0.00    +0.046 A 
ATOM      3  C   UNL     1      -2.261  -0.850  -3.290  0.00  0.00    +0.004 A 
ATOM      4  C   UNL     1      -1.690  -1.403  -4.419  0.00  0.00    +0.002 A 
ATOM      5  C   UNL     1      -0.327  -1.645  -4.467  0.00  0.00    -0.055 A 
ATOM      6  C   UNL     1       0.468  -1.326  -3.383  0.00  0.00    -0.004 A 
ATOM      7  C   UNL     1       1.909  -1.678  -3.682  0.00  0.00    +0.038 C 
ATOM      8  C   UNL     1       1.848  -2.637  -4.890  0.00  0.00    -0.006 C 
ATOM      9  C   UNL     1       0.526  -2.234  -5.571  0.00  0.00    -0.041 C 
ENDROOT
BRANCH   9  10
ATOM     10  N   UNL     1       0.788  -1.226  -6.606  0.00  0.00    +0.382 N 
ATOM     11  C   UNL     1      -0.470  -0.882  -7.283  0.00  0.00    -0.100 C 
ATOM     12  H   UNL     1       1.177  -0.398  -6.179  0.00  0.00    -0.085 HD
ATOM     13  H   UNL     1       1.441  -1.596  -7.279  0.00  0.00    -0.085 HD
ENDBRANCH   9  10
BRANCH   1  14
ATOM     14  O   UNL     1       0.671  -0.465  -1.174  0.00  0.00    -0.480 OA
BRANCH  14  16
ATOM     15  C   UNL     1      -0.247   1.499  -0.105  0.00  0.00    +0.062 C 
ATOM     16  C   UNL     1       0.002  -0.007   0.003  0.00  0.00    +0.256 C 
BRANCH  16  17
ATOM     17  C   UNL     1       0.860  -0.288   1.210  0.00  0.00    +0.261 C 
ATOM     18  O   UNL     1       1.974  -0.744   1.069  0.00  0.00    -0.271 OA
ATOM     19  N   UNL     1       0.388  -0.033   2.446  0.00  0.00    -0.237 N 
ATOM     20  C   UNL     1       1.155  -0.285   3.526  0.00  0.00    +0.303 C 
ATOM     21  O   UNL     1       2.273  -0.742   3.384  0.00  0.00    -0.253 OA
ATOM     22  N   UNL     1       0.684  -0.030   4.762  0.00  0.00    -0.313 N 
ATOM     23  H   UNL     1      -0.503   0.332   2.560  0.00  0.00    +0.159 HD
ATOM     24  H   UNL     1      -0.208   0.335   4.875  0.00  0.00    +0.146 HD
ATOM     25  H   UNL     1       1.236  -0.211   5.539  0.00  0.00    +0.146 HD
ENDBRANCH  16  17
ENDBRANCH  14  16
ENDBRANCH   1  14
TORSDOF 4
