REMARK  Name = ZINC04954513
REMARK  3 active torsions:
REMARK  status: ('A' for Active; 'I' for Inactive)
REMARK    1  A    between atoms: C_3  and  C_10
REMARK    2  A    between atoms: C_5  and  N_7
REMARK    3  A    between atoms: C_18  and  O_21
REMARK                            x       y       z     vdW  Elec       q    Type
REMARK                         _______ _______ _______ _____ _____    ______ ____
ROOT
ATOM      1  C   UNL     1      -0.018   1.465   0.010  0.00  0.00    -0.035 C 
ATOM      2  C   UNL     1       1.442   1.920   0.040  0.00  0.00    +0.011 C 
ATOM      3  C   UNL     1       1.513   3.446   0.106  0.00  0.00    +0.005 C 
ATOM      4  C   UNL     1       2.979   3.884   0.128  0.00  0.00    +0.000 C 
ATOM      5  C   UNL     1       3.677   3.283   1.349  0.00  0.00    +0.003 C 
ATOM      6  C   UNL     1       3.596   1.756   1.290  0.00  0.00    +0.035 C 
ATOM      7  C   UNL     1       2.128   1.329   1.275  0.00  0.00    +0.066 C 
ATOM      8  C   UNL     1       2.028  -0.197   1.219  0.00  0.00    +0.016 C 
ATOM      9  C   UNL     1       0.552  -0.600   1.150  0.00  0.00    -0.079 C 
ATOM     10  N   UNL     1      -0.074  -0.010  -0.049  0.00  0.00    +0.384 N 
ATOM     11  H   UNL     1       0.426  -0.334  -0.885  0.00  0.00    -0.085 HD
ATOM     12  H   UNL     1      -1.055  -0.308  -0.099  0.00  0.00    -0.085 HD
ENDROOT
BRANCH   1  15
ATOM     13  C   UNL     1      -1.420   3.751   2.668  0.00  0.00    +0.002 A 
ATOM     14  C   UNL     1      -0.774   3.304   1.530  0.00  0.00    +0.002 A 
ATOM     15  C   UNL     1      -0.722   1.952   1.250  0.00  0.00    -0.059 A 
ATOM     16  C   UNL     1      -1.321   1.045   2.106  0.00  0.00    +0.034 A 
ATOM     17  C   UNL     1      -1.963   1.491   3.245  0.00  0.00    +0.126 A 
ATOM     18  C   UNL     1      -2.015   2.844   3.525  0.00  0.00    +0.033 A 
BRANCH  17  19
ATOM     19  N   UNL     1      -2.599   0.521   4.164  0.00  0.00    +0.056 N 
ATOM     20  O   UNL     1      -3.168   0.914   5.167  0.00  0.00    -0.126 OA
ATOM     21  O   UNL     1      -2.554  -0.671   3.917  0.00  0.00    -0.126 OA
ENDBRANCH  17  19
ENDBRANCH   1  15
BRANCH   7  22
ATOM     22  O   UNL     1       1.480   1.806   2.455  0.00  0.00    -0.388 OA
ATOM     23  H   UNL     1       1.858   1.466   3.277  0.00  0.00    +0.210 HD
ENDBRANCH   7  22
TORSDOF 3
