REMARK  Name = ZINC50911001
REMARK  7 active torsions:
REMARK  status: ('A' for Active; 'I' for Inactive)
REMARK    1  A    between atoms: C_1  and  C_2
REMARK    2  A    between atoms: C_2  and  C_3
REMARK    3  A    between atoms: C_3  and  C_4
REMARK    4  A    between atoms: C_3  and  C_5
REMARK    5  A    between atoms: C_3  and  C_6
REMARK    6  A    between atoms: C_10  and  N_24
REMARK    7  A    between atoms: C_12  and  N_15
REMARK                            x       y       z     vdW  Elec       q    Type
REMARK                         _______ _______ _______ _____ _____    ______ ____
ROOT
ATOM      1  C   UNL     1       0.853  -2.029  -0.965  0.00  0.00    -0.007 C 
ATOM      2  C   UNL     1       1.759  -2.606   0.124  0.00  0.00    +0.002 C 
ATOM      3  C   UNL     1       1.694  -4.134   0.086  0.00  0.00    -0.018 C 
ATOM      4  C   UNL     1       2.163  -4.630  -1.284  0.00  0.00    -0.089 C 
ATOM      5  C   UNL     1       1.256  -4.053  -2.373  0.00  0.00    -0.082 C 
ATOM      6  C   UNL     1       1.321  -2.525  -2.334  0.00  0.00    -0.013 C 
ENDROOT
BRANCH   5   7
ATOM      7  N   UNL     1       1.707  -4.529  -3.688  0.00  0.00    +0.386 N 
ATOM      8  C   UNL     1       3.063  -4.019  -3.988  0.00  0.00    -0.042 C 
ATOM      9  C   UNL     1       3.095  -3.797  -5.483  0.00  0.00    -0.063 A 
ATOM     10  C   UNL     1       4.144  -3.641  -6.369  0.00  0.00    +0.002 A 
ATOM     11  C   UNL     1       3.890  -3.448  -7.714  0.00  0.00    +0.000 A 
ATOM     12  C   UNL     1       2.587  -3.411  -8.174  0.00  0.00    +0.000 A 
ATOM     13  C   UNL     1       1.537  -3.567  -7.288  0.00  0.00    +0.002 A 
ATOM     14  C   UNL     1       1.790  -3.760  -5.944  0.00  0.00    -0.063 A 
ATOM     15  C   UNL     1       0.866  -3.957  -4.763  0.00  0.00    -0.042 C 
ATOM     16  H   UNL     1       1.690  -5.537  -3.724  0.00  0.00    -0.081 HD
ENDBRANCH   5   7
BRANCH   4  17
ATOM     17  N   UNL     1       2.100  -6.097  -1.321  0.00  0.00    +0.379 N 
ATOM     18  H   UNL     1       1.138  -6.394  -1.257  0.00  0.00    -0.090 HD
ATOM     19  H   UNL     1       2.498  -6.429  -2.187  0.00  0.00    -0.090 HD
ATOM     20  H   UNL     1       2.622  -6.476  -0.544  0.00  0.00    -0.090 HD
ENDBRANCH   4  17
BRANCH   1  21
ATOM     21  C   UNL     1       0.918  -0.501  -0.926  0.00  0.00    -0.032 C 
ATOM     22  C   UNL     1       0.011   0.076  -2.016  0.00  0.00    +0.011 C 
ATOM     23  C   UNL     1       2.358  -0.046  -1.168  0.00  0.00    +0.011 C 
BRANCH  21  25
ATOM     24  C   UNL     1       0.514   1.523   0.482  0.00  0.00    +0.004 C 
ATOM     25  C   UNL     1       0.449  -0.005   0.443  0.00  0.00    +0.003 C 
ENDBRANCH  21  25
ENDBRANCH   1  21
TORSDOF 4
