REMARK  Name = ZINC46945193
REMARK  7 active torsions:
REMARK  status: ('A' for Active; 'I' for Inactive)
REMARK    1  A    between atoms: C_1  and  C_2
REMARK    2  A    between atoms: C_2  and  C_3
REMARK    3  A    between atoms: C_6  and  C_8
REMARK    4  A    between atoms: C_8  and  N_9
REMARK    5  A    between atoms: N_12  and  C_13
REMARK    6  A    between atoms: C_13  and  C_15
REMARK    7  A    between atoms: C_13  and  C_16
REMARK                            x       y       z     vdW  Elec       q    Type
REMARK                         _______ _______ _______ _____ _____    ______ ____
ROOT
ATOM      1  N   UNL     1      -5.173  -3.392   1.193  0.00  0.00    -0.295 N 
ATOM      2  C   UNL     1      -6.252  -4.055   1.655  0.00  0.00    +0.300 C 
ATOM      3  O   UNL     1      -7.266  -3.446   1.935  0.00  0.00    -0.253 OA
ATOM      4  N   UNL     1      -6.206  -5.393   1.808  0.00  0.00    -0.293 N 
ATOM      5  H   UNL     1      -4.364  -3.878   0.971  0.00  0.00    +0.151 HD
ATOM      6  H   UNL     1      -5.397  -5.880   1.585  0.00  0.00    +0.151 HD
ENDROOT
BRANCH   4   7
ATOM      7  C   UNL     1      -7.379  -6.114   2.310  0.00  0.00    +0.102 C 
ATOM      8  C   UNL     1      -8.323  -6.426   1.147  0.00  0.00    +0.033 C 
BRANCH   7   9
ATOM      9  C   UNL     1      -6.938  -7.401   2.959  0.00  0.00    -0.027 A 
ATOM     10  C   UNL     1      -5.925  -8.152   2.391  0.00  0.00    +0.007 A 
ATOM     11  C   UNL     1      -5.516  -9.330   2.979  0.00  0.00    +0.024 A 
ATOM     12  C   UNL     1      -6.123  -9.774   4.153  0.00  0.00    +0.037 A 
ATOM     13  C   UNL     1      -7.140  -9.011   4.713  0.00  0.00    -0.017 A 
ATOM     14  C   UNL     1      -7.542  -7.832   4.127  0.00  0.00    +0.011 A 
ATOM     15  C   UNL     1      -7.586  -9.745   5.957  0.00  0.00    +0.133 C 
ATOM     16  C   UNL     1      -6.702 -10.973   5.996  0.00  0.00    +0.222 C 
ATOM     17  O   UNL     1      -6.721 -11.848   6.836  0.00  0.00    -0.275 OA
ATOM     18  N   UNL     1      -5.893 -10.912   4.926  0.00  0.00    -0.285 N 
ATOM     19  H   UNL     1      -5.224 -11.583   4.714  0.00  0.00    +0.155 HD
ENDBRANCH   7   9
ENDBRANCH   4   7
BRANCH   1  20
ATOM     20  C   UNL     1      -5.223  -1.938   1.027  0.00  0.00    +0.148 C 
BRANCH  20  24
ATOM     21  C   UNL     1      -1.412  -0.526   0.013  0.00  0.00    -0.010 A 
ATOM     22  C   UNL     1      -2.221  -0.821  -1.034  0.00  0.00    +0.011 A 
ATOM     23  C   UNL     1      -3.495  -1.293  -0.784  0.00  0.00    +0.013 A 
ATOM     24  C   UNL     1      -3.899  -1.446   0.501  0.00  0.00    +0.007 A 
ATOM     25  S   UNL     1      -2.453  -0.923   1.407  0.00  0.00    -0.097 S 
BRANCH  21  27
ATOM     26  C   UNL     1      -0.019   1.526   0.010  0.00  0.00    +0.009 C 
ATOM     27  C   UNL     1       0.002  -0.004   0.002  0.00  0.00    +0.039 C 
ENDBRANCH  21  27
ENDBRANCH  20  24
ENDBRANCH   1  20
TORSDOF 5
