REMARK  Name = ZINC62604487
REMARK  8 active torsions:
REMARK  status: ('A' for Active; 'I' for Inactive)
REMARK    1  A    between atoms: C_1  and  C_2
REMARK    2  A    between atoms: C_9  and  S_11
REMARK    3  A    between atoms: S_11  and  C_12
REMARK    4  A    between atoms: C_12  and  C_13
REMARK    5  A    between atoms: C_13  and  C_14
REMARK    6  A    between atoms: C_14  and  C_16
REMARK    7  A    between atoms: C_14  and  N_19
REMARK    8  A    between atoms: N_19  and  C_20
REMARK                            x       y       z     vdW  Elec       q    Type
REMARK                         _______ _______ _______ _____ _____    ______ ____
ROOT
ATOM      1  S   UNL     1       0.096  -5.820   2.394  0.00  0.00    -0.088 S 
ENDROOT
BRANCH   1  10
ATOM      2  C   UNL     1      -0.018   1.503   0.010  0.00  0.00    +0.044 C 
ATOM      3  C   UNL     1       0.002  -0.004   0.002  0.00  0.00    -0.048 A 
ATOM      4  C   UNL     1       0.006  -0.686  -1.206  0.00  0.00    +0.005 A 
ATOM      5  C   UNL     1       0.024  -2.063  -1.230  0.00  0.00    +0.030 A 
ATOM      6  C   UNL     1       0.040  -2.778  -0.030  0.00  0.00    +0.090 A 
ATOM      7  C   UNL     1       0.037  -2.082   1.190  0.00  0.00    +0.067 A 
ATOM      8  C   UNL     1       0.023  -0.696   1.196  0.00  0.00    +0.031 A 
ATOM      9  N   UNL     1       0.055  -3.047   2.184  0.00  0.00    -0.333 N 
ATOM     10  C   UNL     1       0.069  -4.265   1.566  0.00  0.00    +0.167 A 
ATOM     11  N   UNL     1       0.060  -4.104   0.266  0.00  0.00    -0.222 NA
ATOM     12  H   UNL     1       0.058  -2.887   3.141  0.00  0.00    +0.168 HD
ENDBRANCH   1  10
BRANCH   1  13
ATOM     13  C   UNL     1       0.105  -7.035   1.047  0.00  0.00    +0.076 C 
BRANCH  13  14
ATOM     14  C   UNL     1       0.129  -8.447   1.634  0.00  0.00    +0.004 C 
BRANCH  14  15
ATOM     15  C   UNL     1       0.137  -9.472   0.497  0.00  0.00    +0.016 C 
BRANCH  15  16
ATOM     16  C   UNL     1       0.036 -10.861   1.072  0.00  0.00    +0.196 C 
ATOM     17  O   UNL     1       1.032 -11.543   1.190  0.00  0.00    -0.278 OA
ATOM     18  N   UNL     1      -1.162 -11.346   1.456  0.00  0.00    -0.331 N 
ATOM     19  H   UNL     1      -1.958 -10.801   1.362  0.00  0.00    +0.145 HD
ATOM     20  H   UNL     1      -1.226 -12.241   1.826  0.00  0.00    +0.145 HD
ENDBRANCH  15  16
BRANCH  15  21
ATOM     21  N   UNL     1       1.386  -9.347  -0.266  0.00  0.00    +0.385 N 
ATOM     22  C   UNL     1       1.342 -10.246  -1.427  0.00  0.00    -0.099 C 
ATOM     23  H   UNL     1       1.493  -8.395  -0.582  0.00  0.00    -0.085 HD
ATOM     24  H   UNL     1       2.166  -9.596   0.324  0.00  0.00    -0.085 HD
ENDBRANCH  15  21
ENDBRANCH  14  15
ENDBRANCH  13  14
ENDBRANCH   1  13
TORSDOF 6
