REMARK  Name = ZINC49646472
REMARK  4 active torsions:
REMARK  status: ('A' for Active; 'I' for Inactive)
REMARK    1  A    between atoms: N_9  and  S_10
REMARK    2  A    between atoms: S_10  and  C_13
REMARK    3  A    between atoms: C_13  and  C_14
REMARK    4  A    between atoms: C_14  and  C_15
REMARK                            x       y       z     vdW  Elec       q    Type
REMARK                         _______ _______ _______ _____ _____    ______ ____
ROOT
ATOM      1  S   UNL     1       0.756  -4.580   2.799  0.00  0.00    +0.072 S 
ATOM      2  O   UNL     1      -0.561  -4.140   3.100  0.00  0.00    -0.152 OA
ATOM      3  O   UNL     1       1.137  -4.863   1.460  0.00  0.00    -0.152 OA
ENDROOT
BRANCH   1  12
ATOM      4  C   UNL     1      -0.019   1.524   0.010  0.00  0.00    +0.006 C 
ATOM      5  C   UNL     1       1.415   2.064  -0.000  0.00  0.00    +0.006 C 
ATOM      6  C   UNL     1       2.062   1.757   1.358  0.00  0.00    +0.044 C 
ATOM      7  C   UNL     1       1.786   0.329   1.703  0.00  0.00    +0.012 A 
ATOM      8  C   UNL     1       0.893  -0.495   1.141  0.00  0.00    +0.028 A 
ATOM      9  N   UNL     1       0.819  -1.782   1.631  0.00  0.00    -0.336 N 
ATOM     10  C   UNL     1       1.647  -2.169   2.658  0.00  0.00    +0.191 A 
ATOM     11  S   UNL     1       2.567  -0.665   2.949  0.00  0.00    -0.053 S 
ATOM     12  N   UNL     1       1.736  -3.328   3.261  0.00  0.00    -0.108 NA
ATOM     13  C   UNL     1       0.002  -0.004   0.002  0.00  0.00    +0.054 C 
ATOM     14  H   UNL     1       0.185  -2.411   1.253  0.00  0.00    +0.168 HD
ENDBRANCH   1  12
BRANCH   1  15
ATOM     15  C   UNL     1       1.218  -5.959   3.884  0.00  0.00    +0.191 C 
BRANCH  15  16
ATOM     16  C   UNL     1       0.366  -7.183   3.543  0.00  0.00    +0.009 C 
BRANCH  16  17
ATOM     17  C   UNL     1       0.755  -8.346   4.458  0.00  0.00    -0.070 C 
ATOM     18  C   UNL     1      -0.180  -9.530   4.204  0.00  0.00    -0.016 C 
ATOM     19  C   UNL     1       0.213 -10.691   5.122  0.00  0.00    -0.003 C 
ATOM     20  C   UNL     1       1.682 -11.048   4.876  0.00  0.00    -0.019 C 
ATOM     21  C   UNL     1       2.549  -9.808   5.106  0.00  0.00    -0.082 C 
ATOM     22  N   UNL     1       2.141  -8.744   4.180  0.00  0.00    +0.381 N 
ATOM     23  H   UNL     1       2.209  -9.081   3.232  0.00  0.00    -0.086 HD
ATOM     24  H   UNL     1       2.748  -7.947   4.297  0.00  0.00    -0.086 HD
ENDBRANCH  16  17
ENDBRANCH  15  16
ENDBRANCH   1  15
TORSDOF 4
