REMARK  Name = ZINC20720595
REMARK  9 active torsions:
REMARK  status: ('A' for Active; 'I' for Inactive)
REMARK    1  A    between atoms: C_1  and  O_2
REMARK    2  A    between atoms: O_2  and  C_3
REMARK    3  A    between atoms: C_3  and  C_5
REMARK    4  A    between atoms: C_5  and  C_7
REMARK    5  A    between atoms: C_5  and  N_11
REMARK    6  A    between atoms: C_7  and  C_8
REMARK    7  A    between atoms: C_8  and  S_9
REMARK    8  A    between atoms: S_9  and  C_10
REMARK    9  A    between atoms: C_23  and  C_25
REMARK                            x       y       z     vdW  Elec       q    Type
REMARK                         _______ _______ _______ _____ _____    ______ ____
ROOT
ATOM      1  N   UNL     1      -2.687  -2.382   2.284  0.00  0.00    -0.286 N 
ATOM      2  C   UNL     1      -3.327  -2.696   1.141  0.00  0.00    +0.304 C 
ATOM      3  O   UNL     1      -2.776  -2.531   0.070  0.00  0.00    -0.253 OA
ATOM      4  N   UNL     1      -4.580  -3.193   1.184  0.00  0.00    -0.273 N 
ATOM      5  C   UNL     1      -5.255  -3.645  -0.041  0.00  0.00    +0.116 C 
ATOM      6  C   UNL     1      -5.512  -5.154   0.051  0.00  0.00    +0.076 C 
ATOM      7  C   UNL     1      -6.067  -5.470   1.418  0.00  0.00    +0.066 A 
ATOM      8  C   UNL     1      -5.973  -4.651   2.487  0.00  0.00    +0.064 A 
ATOM      9  N   UNL     1      -6.582  -5.278   3.530  0.00  0.00    -0.346 N 
ATOM     10  H   UNL     1      -6.674  -4.938   4.434  0.00  0.00    +0.167 HD
ATOM     11  C   UNL     1      -7.036  -6.465   3.066  0.00  0.00    +0.197 A 
ATOM     12  N   UNL     1      -6.723  -6.570   1.801  0.00  0.00    -0.240 NA
ATOM     13  C   UNL     1      -5.305  -3.304   2.463  0.00  0.00    +0.156 C 
ATOM     14  H   UNL     1      -3.153  -2.439   3.133  0.00  0.00    +0.151 HD
ENDROOT
BRANCH  13  15
ATOM     15  C   UNL     1      -6.346  -2.218   2.558  0.00  0.00    -0.021 A 
ATOM     16  C   UNL     1      -7.400  -2.191   1.665  0.00  0.00    +0.007 A 
ATOM     17  C   UNL     1      -8.354  -1.195   1.751  0.00  0.00    +0.020 A 
ATOM     18  C   UNL     1      -8.255  -0.225   2.733  0.00  0.00    +0.041 A 
ATOM     19  C   UNL     1      -7.199  -0.253   3.627  0.00  0.00    +0.020 A 
ATOM     20  C   UNL     1      -6.248  -1.252   3.543  0.00  0.00    +0.007 A 
ATOM     21 CL   UNL     1      -9.453   1.026   2.842  0.00  0.00    -0.084 Cl
ENDBRANCH  13  15
BRANCH   1  22
ATOM     22  C   UNL     1      -1.286  -1.954   2.245  0.00  0.00    +0.184 C 
BRANCH  22  23
ATOM     23  C   UNL     1      -0.390  -3.165   2.246  0.00  0.00    +0.327 C 
ATOM     24  O   UNL     1      -0.872  -4.273   2.276  0.00  0.00    -0.249 OA
BRANCH  23  26
ATOM     25  C   UNL     1       1.731  -4.206   2.216  0.00  0.00    +0.280 C 
ATOM     26  O   UNL     1       0.943  -3.014   2.213  0.00  0.00    -0.467 OA
ENDBRANCH  23  26
ENDBRANCH  22  23
BRANCH  22  27
ATOM     27  C   UNL     1      -0.982  -1.093   3.473  0.00  0.00    +0.044 C 
BRANCH  27  28
ATOM     28  C   UNL     1      -1.801   0.197   3.408  0.00  0.00    +0.071 C 
BRANCH  28  29
ATOM     29  S   UNL     1      -1.440   1.217   4.864  0.00  0.00    -0.164 S 
ATOM     30  C   UNL     1      -2.477   2.688   4.637  0.00  0.00    +0.084 C 
ENDBRANCH  28  29
ENDBRANCH  27  28
ENDBRANCH  22  27
ENDBRANCH   1  22
TORSDOF 7
