REMARK  Name = ZINC20125744
REMARK  10 active torsions:
REMARK  status: ('A' for Active; 'I' for Inactive)
REMARK    1  A    between atoms: C_1  and  C_2
REMARK    2  A    between atoms: C_2  and  C_4
REMARK    3  A    between atoms: C_2  and  N_11
REMARK    4  A    between atoms: N_11  and  C_12
REMARK    5  A    between atoms: C_12  and  C_13
REMARK    6  A    between atoms: C_13  and  C_14
REMARK    7  A    between atoms: C_13  and  C_15
REMARK    8  A    between atoms: C_13  and  N_16
REMARK    9  A    between atoms: N_16  and  C_17
REMARK   10  A    between atoms: N_16  and  C_18
REMARK                            x       y       z     vdW  Elec       q    Type
REMARK                         _______ _______ _______ _____ _____    ______ ____
ROOT
ATOM      1  N   UNL     1       0.690  -0.478  -1.207  0.00  0.00    +0.383 N 
ATOM      2  H   UNL     1       1.608  -0.063  -1.256  0.00  0.00    -0.085 HD
ATOM      3  H   UNL     1       0.776  -1.482  -1.172  0.00  0.00    -0.085 HD
ENDROOT
BRANCH   1   5
ATOM      4  C   UNL     1      -0.019   1.526   0.010  0.00  0.00    -0.009 C 
ATOM      5  C   UNL     1       0.002  -0.004   0.002  0.00  0.00    -0.044 C 
BRANCH   5   6
ATOM      6  C   UNL     1       0.731  -0.503   1.223  0.00  0.00    -0.061 A 
ATOM      7  C   UNL     1       2.113  -0.514   1.247  0.00  0.00    +0.002 A 
ATOM      8  C   UNL     1       2.782  -0.971   2.366  0.00  0.00    +0.001 A 
ATOM      9  C   UNL     1       2.070  -1.419   3.463  0.00  0.00    +0.015 A 
ATOM     10  C   UNL     1       0.687  -1.409   3.440  0.00  0.00    +0.018 A 
ATOM     11  C   UNL     1       0.018  -0.945   2.321  0.00  0.00    +0.017 A 
ATOM     12 BR   UNL     1      -0.289  -2.021   4.939  0.00  0.00    -0.050 Br
ENDBRANCH   5   6
ENDBRANCH   1   5
BRANCH   1  13
ATOM     13  C   UNL     1      -0.086  -0.093  -2.394  0.00  0.00    -0.095 C 
BRANCH  13  14
ATOM     14  C   UNL     1       0.630  -0.587  -3.652  0.00  0.00    -0.088 C 
ATOM     15  C   UNL     1      -0.177  -0.186  -4.889  0.00  0.00    -0.012 C 
ATOM     16  C   UNL     1       2.023   0.043  -3.727  0.00  0.00    -0.012 C 
BRANCH  14  17
ATOM     17  N   UNL     1       0.756  -2.049  -3.603  0.00  0.00    +0.378 N 
ATOM     18  C   UNL     1      -0.581  -2.654  -3.531  0.00  0.00    -0.096 C 
ATOM     19  C   UNL     1       1.444  -2.523  -4.811  0.00  0.00    -0.096 C 
ATOM     20  H   UNL     1       1.289  -2.313  -2.787  0.00  0.00    -0.082 HD
ENDBRANCH  14  17
ENDBRANCH  13  14
ENDBRANCH   1  13
TORSDOF 5
