REMARK  Name = ZINC31913166
REMARK  8 active torsions:
REMARK  status: ('A' for Active; 'I' for Inactive)
REMARK    1  A    between atoms: C_1  and  C_2
REMARK    2  A    between atoms: C_9  and  C_20
REMARK    3  A    between atoms: C_10  and  C_11
REMARK    4  A    between atoms: C_11  and  C_13
REMARK    5  A    between atoms: C_11  and  N_19
REMARK    6  A    between atoms: C_20  and  C_21
REMARK    7  A    between atoms: C_20  and  C_22
REMARK    8  A    between atoms: C_20  and  C_23
REMARK                            x       y       z     vdW  Elec       q    Type
REMARK                         _______ _______ _______ _____ _____    ______ ____
ROOT
ATOM      1  C   UNL     1       3.579  -3.803   0.325  0.00  0.00    +0.047 C 
ATOM      2  C   UNL     1       2.801  -2.538   0.069  0.00  0.00    -0.009 A 
ATOM      3  C   UNL     1       1.452  -2.582  -0.092  0.00  0.00    +0.008 A 
ATOM      4  C   UNL     1       0.740  -1.395  -0.331  0.00  0.00    +0.018 A 
ATOM      5  C   UNL     1       1.390  -0.214  -0.401  0.00  0.00    +0.093 A 
ATOM      6  N   UNL     1       2.744  -0.156  -0.241  0.00  0.00    -0.303 N 
ATOM      7  C   UNL     1       3.465  -1.297  -0.007  0.00  0.00    +0.119 A 
ATOM      8  N   UNL     1       4.742  -0.960   0.108  0.00  0.00    -0.342 N 
ATOM      9  C   UNL     1       4.861   0.361  -0.045  0.00  0.00    +0.045 A 
ATOM     10  C   UNL     1       3.634   0.883  -0.263  0.00  0.00    +0.066 A 
ATOM     11  H   UNL     1       5.500  -1.733   0.300  0.00  0.00    +0.167 HD
ENDROOT
BRANCH   9  12
ATOM     12  C   UNL     1       6.150   1.141   0.016  0.00  0.00    +0.004 C 
ATOM     13  C   UNL     1       7.309   0.188   0.317  0.00  0.00    +0.017 C 
ATOM     14  C   UNL     1       6.392   1.831  -1.328  0.00  0.00    +0.017 C 
ATOM     15  C   UNL     1       6.057   2.195   1.121  0.00  0.00    +0.017 C 
ENDBRANCH   9  12
BRANCH  10  16
ATOM     16  C   UNL     1       3.308   2.337  -0.488  0.00  0.00    +0.131 C 
BRANCH  16  17
ATOM     17  C   UNL     1       2.655   2.903   0.747  0.00  0.00    -0.022 A 
ATOM     18  C   UNL     1       1.370   2.528   1.105  0.00  0.00    +0.025 A 
ATOM     19  C   UNL     1       0.805   3.065   2.247  0.00  0.00    +0.111 A 
ATOM     20  N   UNL     1       1.472   3.930   2.986  0.00  0.00    -0.263 NA
ATOM     21  C   UNL     1       2.695   4.313   2.673  0.00  0.00    +0.111 A 
ATOM     22  C   UNL     1       3.325   3.815   1.548  0.00  0.00    +0.025 A 
ENDBRANCH  16  17
BRANCH  16  23
ATOM     23  N   UNL     1       2.389   2.461  -1.628  0.00  0.00    -0.319 NA
ATOM     24  H   UNL     1       2.150   3.522  -1.793  0.00  0.00    +0.119 HD
ATOM     25  H   UNL     1       2.865   2.048  -2.530  0.00  0.00    +0.119 HD
ENDBRANCH  16  23
ENDBRANCH  10  16
TORSDOF 4
