REMARK  Name = ZINC40040806
REMARK  7 active torsions:
REMARK  status: ('A' for Active; 'I' for Inactive)
REMARK    1  A    between atoms: C_1  and  C_2
REMARK    2  A    between atoms: C_3  and  C_13
REMARK    3  A    between atoms: C_5  and  C_7
REMARK    4  A    between atoms: C_13  and  N_14
REMARK    5  A    between atoms: N_14  and  C_15
REMARK    6  A    between atoms: C_15  and  C_17
REMARK    7  A    between atoms: C_15  and  C_18
REMARK                            x       y       z     vdW  Elec       q    Type
REMARK                         _______ _______ _______ _____ _____    ______ ____
ROOT
ATOM      1  C   UNL     1      -2.513  -0.381   0.012  0.00  0.00    -0.022 C 
ENDROOT
BRANCH   1   4
ATOM      2  C   UNL     1      -0.018   1.503   0.010  0.00  0.00    +0.088 C 
ATOM      3  C   UNL     1       0.002  -0.004   0.002  0.00  0.00    +0.124 A 
ATOM      4  C   UNL     1      -1.071  -0.816   0.003  0.00  0.00    +0.066 A 
ATOM      5  N   UNL     1      -0.627  -2.083  -0.006  0.00  0.00    -0.216 NA
ATOM      6  C   UNL     1       0.685  -2.068  -0.012  0.00  0.00    +0.228 A 
ATOM      7  O   UNL     1       1.098  -0.788  -0.013  0.00  0.00    -0.440 OA
BRANCH   6   8
ATOM      8  C   UNL     1       1.562  -3.258  -0.023  0.00  0.00    +0.037 A 
ATOM      9  C   UNL     1       1.006  -4.538  -0.033  0.00  0.00    +0.013 A 
ATOM     10  C   UNL     1       1.830  -5.644  -0.043  0.00  0.00    +0.001 A 
ATOM     11  C   UNL     1       3.204  -5.487  -0.043  0.00  0.00    +0.000 A 
ATOM     12  C   UNL     1       3.762  -4.221  -0.033  0.00  0.00    +0.001 A 
ATOM     13  C   UNL     1       2.949  -3.106  -0.028  0.00  0.00    +0.013 A 
ENDBRANCH   6   8
ENDBRANCH   1   4
BRANCH   1  14
ATOM     14  N   UNL     1      -2.989  -0.232  -1.370  0.00  0.00    +0.387 N 
ATOM     15  H   UNL     1      -2.431   0.462  -1.844  0.00  0.00    -0.085 HD
ATOM     16  H   UNL     1      -2.907  -1.115  -1.851  0.00  0.00    -0.085 HD
BRANCH  14  17
ATOM     17  C   UNL     1      -4.395   0.192  -1.361  0.00  0.00    -0.041 C 
ATOM     18  C   UNL     1      -5.258  -0.916  -0.753  0.00  0.00    -0.009 C 
BRANCH  17  19
ATOM     19  C   UNL     1      -4.847   0.464  -2.773  0.00  0.00    -0.026 A 
ATOM     20  C   UNL     1      -4.217  -0.161  -3.833  0.00  0.00    +0.005 A 
ATOM     21  C   UNL     1      -4.632   0.088  -5.127  0.00  0.00    +0.000 A 
ATOM     22  C   UNL     1      -5.676   0.962  -5.364  0.00  0.00    +0.003 A 
ATOM     23  C   UNL     1      -6.308   1.587  -4.306  0.00  0.00    +0.038 A 
ATOM     24  C   UNL     1      -5.897   1.335  -3.008  0.00  0.00    +0.125 A 
ATOM     25  F   UNL     1      -6.517   1.942  -1.973  0.00  0.00    -0.205 F 
ENDBRANCH  17  19
ENDBRANCH  14  17
ENDBRANCH   1  14
TORSDOF 5
