REMARK  Name = ZINC60036356
REMARK  14 active torsions:
REMARK  status: ('A' for Active; 'I' for Inactive)
REMARK    1  A    between atoms: C_1  and  C_2
REMARK    2  A    between atoms: C_5  and  O_32
REMARK    3  A    between atoms: C_6  and  C_8
REMARK    4  A    between atoms: C_8  and  C_14
REMARK    5  A    between atoms: C_14  and  N_15
REMARK    6  A    between atoms: N_15  and  C_16
REMARK    7  A    between atoms: C_16  and  C_18
REMARK    8  A    between atoms: C_16  and  C_19
REMARK    9  A    between atoms: N_21  and  C_22
REMARK   10  A    between atoms: C_25  and  O_30
REMARK   11  A    between atoms: C_26  and  O_28
REMARK   12  A    between atoms: O_28  and  C_29
REMARK   13  A    between atoms: O_30  and  C_31
REMARK   14  A    between atoms: O_32  and  C_33
REMARK                            x       y       z     vdW  Elec       q    Type
REMARK                         _______ _______ _______ _____ _____    ______ ____
ROOT
ATOM      1  N   UNL     1       1.110  -0.995   3.705  0.00  0.00    +0.387 N 
ATOM      2  H   UNL     1       1.974  -1.511   3.634  0.00  0.00    -0.085 HD
ATOM      3  H   UNL     1       1.021  -0.377   2.912  0.00  0.00    -0.085 HD
ENDROOT
BRANCH   1   4
ATOM      4  C   UNL     1       1.113  -0.205   4.944  0.00  0.00    +0.013 C 
ATOM      5  C   UNL     1      -0.140   0.672   4.992  0.00  0.00    -0.004 C 
BRANCH   4   6
ATOM      6  C   UNL     1       2.340   0.669   4.979  0.00  0.00    +0.203 C 
ATOM      7  O   UNL     1       3.134   0.638   4.063  0.00  0.00    -0.277 OA
ATOM      8  N   UNL     1       2.555   1.487   6.029  0.00  0.00    -0.287 N 
ATOM      9  H   UNL     1       1.889   1.562   6.730  0.00  0.00    +0.155 HD
BRANCH   8  10
ATOM     10  C   UNL     1       3.741   2.228   6.108  0.00  0.00    +0.037 A 
ATOM     11  C   UNL     1       4.323   2.733   4.953  0.00  0.00    +0.027 A 
ATOM     12  C   UNL     1       5.492   3.465   5.029  0.00  0.00    +0.051 A 
ATOM     13  C   UNL     1       6.088   3.696   6.259  0.00  0.00    +0.162 A 
ATOM     14  C   UNL     1       5.508   3.191   7.419  0.00  0.00    +0.163 A 
ATOM     15  C   UNL     1       4.332   2.462   7.343  0.00  0.00    +0.072 A 
BRANCH  14  16
ATOM     16  O   UNL     1       6.091   3.417   8.626  0.00  0.00    -0.491 OA
ATOM     17  C   UNL     1       5.440   2.869   9.774  0.00  0.00    +0.277 C 
ENDBRANCH  14  16
BRANCH  13  18
ATOM     18  O   UNL     1       7.240   4.416   6.333  0.00  0.00    -0.491 OA
ATOM     19  C   UNL     1       7.780   4.903   5.103  0.00  0.00    +0.277 C 
ENDBRANCH  13  18
ENDBRANCH   8  10
ENDBRANCH   4   6
ENDBRANCH   1   4
BRANCH   1  20
ATOM     20  C   UNL     1      -0.020  -1.933   3.725  0.00  0.00    -0.070 C 
BRANCH  20  21
ATOM     21  C   UNL     1       0.050  -2.841   2.496  0.00  0.00    -0.012 C 
ATOM     22  C   UNL     1      -1.194  -3.735   2.446  0.00  0.00    +0.038 C 
ATOM     23  C   UNL     1      -2.438  -2.856   2.288  0.00  0.00    +0.160 C 
ATOM     24  O   UNL     1      -2.312  -2.063   1.105  0.00  0.00    -0.380 OA
ATOM     25  C   UNL     1      -1.193  -1.174   1.116  0.00  0.00    +0.160 C 
ATOM     26  C   UNL     1       0.101  -1.985   1.227  0.00  0.00    +0.038 C 
BRANCH  21  32
ATOM     27  C   UNL     1       4.124  -4.356   4.974  0.00  0.00    +0.044 C 
ATOM     28  C   UNL     1       3.235  -4.426   3.759  0.00  0.00    -0.050 A 
ATOM     29  C   UNL     1       3.555  -5.279   2.719  0.00  0.00    +0.007 A 
ATOM     30  C   UNL     1       2.742  -5.345   1.604  0.00  0.00    +0.046 A 
ATOM     31  C   UNL     1       1.604  -4.555   1.529  0.00  0.00    +0.124 A 
ATOM     32  C   UNL     1       1.285  -3.701   2.574  0.00  0.00    -0.001 A 
ATOM     33  C   UNL     1       2.099  -3.642   3.689  0.00  0.00    +0.011 A 
BRANCH  31  34
ATOM     34  O   UNL     1       0.802  -4.618   0.433  0.00  0.00    -0.495 OA
ATOM     35  C   UNL     1       1.192  -5.519  -0.605  0.00  0.00    +0.277 C 
ENDBRANCH  31  34
ENDBRANCH  21  32
ENDBRANCH  20  21
ENDBRANCH   1  20
TORSDOF 9
