REMARK  Name = ZINC64886140
REMARK  8 active torsions:
REMARK  status: ('A' for Active; 'I' for Inactive)
REMARK    1  A    between atoms: C_1  and  C_2
REMARK    2  A    between atoms: N_5  and  C_24
REMARK    3  A    between atoms: C_7  and  C_9
REMARK    4  A    between atoms: N_11  and  N_12
REMARK    5  A    between atoms: N_15  and  C_16
REMARK    6  A    between atoms: C_16  and  C_17
REMARK    7  A    between atoms: C_17  and  C_18
REMARK    8  A    between atoms: C_18  and  N_19
REMARK                            x       y       z     vdW  Elec       q    Type
REMARK                         _______ _______ _______ _____ _____    ______ ____
ROOT
ATOM      1  C   UNL     1       2.977   0.709   2.143  0.00  0.00    +0.294 C 
ATOM      2  O   UNL     1       2.471   0.850   3.240  0.00  0.00    -0.265 OA
ATOM      3  N   UNL     1       4.226   1.161   1.913  0.00  0.00    -0.227 N 
ATOM      4  H   UNL     1       4.629   1.049   1.038  0.00  0.00    +0.173 HD
ENDROOT
BRANCH   1  11
ATOM      5  C   UNL     1      -0.548   0.959  -0.092  0.00  0.00    +0.038 C 
ATOM      6  C   UNL     1      -0.014  -0.451   0.165  0.00  0.00    +0.157 C 
ATOM      7  C   UNL     1       0.729  -0.945  -1.054  0.00  0.00    +0.259 C 
ATOM      8  O   UNL     1       0.133  -1.514  -1.945  0.00  0.00    -0.271 OA
ATOM      9  N   UNL     1       2.059  -0.748  -1.144  0.00  0.00    -0.157 N 
ATOM     10  N   UNL     1       2.760  -0.110  -0.115  0.00  0.00    -0.152 NA
ATOM     11  C   UNL     1       2.224   0.044   1.064  0.00  0.00    +0.202 C 
ATOM     12  N   UNL     1       0.927  -0.428   1.295  0.00  0.00    -0.313 N 
ATOM     13  H   UNL     1       0.656  -0.730   2.176  0.00  0.00    +0.148 HD
BRANCH   9  14
ATOM     14  C   UNL     1       2.748  -1.186  -2.281  0.00  0.00    +0.060 A 
ATOM     15  C   UNL     1       3.913  -1.931  -2.145  0.00  0.00    +0.025 A 
ATOM     16  C   UNL     1       4.590  -2.362  -3.268  0.00  0.00    +0.002 A 
ATOM     17  C   UNL     1       4.109  -2.054  -4.528  0.00  0.00    +0.000 A 
ATOM     18  C   UNL     1       2.950  -1.313  -4.667  0.00  0.00    +0.002 A 
ATOM     19  C   UNL     1       2.265  -0.883  -3.547  0.00  0.00    +0.025 A 
ENDBRANCH   9  14
ENDBRANCH   1  11
BRANCH   3  20
ATOM     20  N   UNL     1       4.941   1.793   2.938  0.00  0.00    -0.218 N 
ATOM     21  C   UNL     1       6.190   2.245   2.709  0.00  0.00    +0.316 C 
ATOM     22  O   UNL     1       6.811   2.793   3.598  0.00  0.00    -0.251 OA
ATOM     23  N   UNL     1       6.750   2.089   1.493  0.00  0.00    -0.298 N 
ATOM     24  H   UNL     1       4.538   1.905   3.813  0.00  0.00    +0.174 HD
ATOM     25  H   UNL     1       6.255   1.651   0.783  0.00  0.00    +0.150 HD
BRANCH  23  26
ATOM     26  C   UNL     1       8.108   2.580   1.243  0.00  0.00    +0.107 C 
BRANCH  26  27
ATOM     27  C   UNL     1       8.501   2.279  -0.204  0.00  0.00    +0.040 C 
BRANCH  27  28
ATOM     28  C   UNL     1       9.918   2.792  -0.465  0.00  0.00    +0.124 C 
BRANCH  28  29
ATOM     29  N   UNL     1      10.295   2.504  -1.851  0.00  0.00    -0.338 N 
ATOM     30  C   UNL     1      10.909   1.369  -2.307  0.00  0.00    +0.104 A 
ATOM     31  C   UNL     1      11.068   1.518  -3.636  0.00  0.00    +0.101 A 
ATOM     32  N   UNL     1      10.566   2.713  -3.982  0.00  0.00    -0.352 N 
ATOM     33  C   UNL     1      10.097   3.307  -2.919  0.00  0.00    +0.173 A 
ATOM     34  H   UNL     1      10.550   3.076  -4.881  0.00  0.00    +0.166 HD
ENDBRANCH  28  29
ENDBRANCH  27  28
ENDBRANCH  26  27
ENDBRANCH  23  26
ENDBRANCH   3  20
TORSDOF 7
