REMARK  Name = ZINC05827488
REMARK  7 active torsions:
REMARK  status: ('A' for Active; 'I' for Inactive)
REMARK    1  A    between atoms: C_1  and  C_2
REMARK    2  A    between atoms: C_2  and  N_22
REMARK    3  A    between atoms: C_3  and  C_4
REMARK    4  A    between atoms: C_3  and  C_6
REMARK    5  A    between atoms: C_6  and  C_8
REMARK    6  A    between atoms: C_8  and  N_9
REMARK    7  A    between atoms: N_14  and  C_17
REMARK                            x       y       z     vdW  Elec       q    Type
REMARK                         _______ _______ _______ _____ _____    ______ ____
ROOT
ATOM      1  N   UNL     1       0.330   0.190   4.834  0.00  0.00    -0.210 N 
ATOM      2  C   UNL     1       1.382   0.878   5.328  0.00  0.00    +0.310 C 
ATOM      3  O   UNL     1       2.530   0.844   4.940  0.00  0.00    -0.264 OA
ATOM      4  C   UNL     1       0.829   1.693   6.459  0.00  0.00    +0.310 C 
ATOM      5  O   UNL     1       1.436   2.458   7.179  0.00  0.00    -0.264 OA
ATOM      6  N   UNL     1      -0.488   1.396   6.507  0.00  0.00    -0.215 N 
ATOM      7  C   UNL     1      -0.768   0.511   5.537  0.00  0.00    +0.319 C 
ATOM      8  O   UNL     1      -1.874   0.056   5.324  0.00  0.00    -0.252 OA
ENDROOT
BRANCH   6   9
ATOM      9  C   UNL     1      -1.454   1.952   7.457  0.00  0.00    +0.086 C 
ATOM     10  C   UNL     1      -1.465   3.492   7.359  0.00  0.00    +0.023 C 
ATOM     11  C   UNL     1      -1.657   3.964   8.822  0.00  0.00    +0.002 C 
ATOM     12  C   UNL     1      -0.806   2.948   9.624  0.00  0.00    +0.002 C 
ATOM     13  C   UNL     1      -1.035   1.607   8.897  0.00  0.00    +0.023 C 
ENDBRANCH   6   9
BRANCH   1  14
ATOM     14  C   UNL     1       0.379  -0.748   3.709  0.00  0.00    +0.198 C 
BRANCH  14  15
ATOM     15  C   UNL     1       0.130  -0.004   2.423  0.00  0.00    +0.192 C 
ATOM     16  O   UNL     1      -0.069   1.194   2.443  0.00  0.00    -0.290 OA
BRANCH  15  19
ATOM     17  C   UNL     1      -0.786   1.354   0.089  0.00  0.00    +0.061 C 
ATOM     18  C   UNL     1      -0.230  -0.045   0.026  0.00  0.00    +0.019 C 
ATOM     19  C   UNL     1       0.127  -0.701   1.191  0.00  0.00    +0.112 C 
BRANCH  18  20
ATOM     20  N   UNL     1      -0.081  -0.659  -1.166  0.00  0.00    -0.360 N 
ATOM     21  H   UNL     1      -0.331  -0.200  -1.983  0.00  0.00    +0.142 HD
ATOM     22  H   UNL     1       0.277  -1.560  -1.207  0.00  0.00    +0.142 HD
ENDBRANCH  18  20
BRANCH  19  23
ATOM     23  C   UNL     1       0.495  -2.084   1.150  0.00  0.00    +0.104 C 
ATOM     24  N   UNL     1       0.786  -3.182   1.118  0.00  0.00    -0.191 NA
ENDBRANCH  19  23
ENDBRANCH  15  19
ENDBRANCH  14  15
ENDBRANCH   1  14
TORSDOF 6
