REMARK  Name = ZINC55272196
REMARK  7 active torsions:
REMARK  status: ('A' for Active; 'I' for Inactive)
REMARK    1  A    between atoms: C_1  and  C_2
REMARK    2  A    between atoms: C_2  and  C_4
REMARK    3  A    between atoms: C_2  and  N_13
REMARK    4  A    between atoms: C_7  and  O_11
REMARK    5  A    between atoms: O_11  and  C_12
REMARK    6  A    between atoms: C_14  and  C_16
REMARK    7  A    between atoms: C_16  and  C_17
REMARK                            x       y       z     vdW  Elec       q    Type
REMARK                         _______ _______ _______ _____ _____    ______ ____
ROOT
ATOM      1  N   UNL     1       0.711  -0.489   1.189  0.00  0.00    -0.308 N 
ATOM      2  C   UNL     1       2.054  -0.600   1.174  0.00  0.00    +0.219 C 
ATOM      3  O   UNL     1       2.676  -0.297   0.177  0.00  0.00    -0.275 OA
ATOM      4  H   UNL     1       0.213  -0.731   1.986  0.00  0.00    +0.149 HD
ENDROOT
BRANCH   1   6
ATOM      5  C   UNL     1      -0.019   1.526   0.010  0.00  0.00    +0.033 C 
ATOM      6  C   UNL     1       0.002  -0.004   0.002  0.00  0.00    +0.100 C 
BRANCH   6   7
ATOM      7  C   UNL     1      -1.412  -0.526   0.013  0.00  0.00    -0.026 A 
ATOM      8  C   UNL     1      -2.122  -0.570   1.198  0.00  0.00    +0.009 A 
ATOM      9  C   UNL     1      -3.418  -1.048   1.211  0.00  0.00    +0.047 A 
ATOM     10  C   UNL     1      -4.008  -1.484   0.034  0.00  0.00    +0.134 A 
ATOM     11  C   UNL     1      -3.293  -1.438  -1.155  0.00  0.00    +0.060 A 
ATOM     12  C   UNL     1      -1.998  -0.953  -1.164  0.00  0.00    +0.024 A 
ATOM     13 BR   UNL     1      -4.092  -2.030  -2.764  0.00  0.00    -0.047 Br
BRANCH  10  14
ATOM     14  O   UNL     1      -5.282  -1.955   0.044  0.00  0.00    -0.494 OA
ATOM     15  C   UNL     1      -5.957  -1.974   1.304  0.00  0.00    +0.277 C 
ENDBRANCH  10  14
ENDBRANCH   6   7
ENDBRANCH   1   6
BRANCH   2  16
ATOM     16  C   UNL     1       2.783  -1.099   2.395  0.00  0.00    +0.151 C 
BRANCH  16  17
ATOM     17  C   UNL     1       4.264  -1.128   2.119  0.00  0.00    +0.059 A 
ATOM     18  C   UNL     1       5.146  -0.486   2.922  0.00  0.00    +0.072 A 
ATOM     19  S   UNL     1       6.685  -0.877   2.106  0.00  0.00    -0.061 S 
ATOM     20  C   UNL     1       6.055  -1.802   0.849  0.00  0.00    +0.156 A 
ATOM     21  N   UNL     1       4.760  -1.786   1.085  0.00  0.00    -0.230 NA
ATOM     22  N   UNL     1       6.735  -2.432  -0.181  0.00  0.00    -0.338 N 
ATOM     23  H   UNL     1       7.701  -2.366  -0.236  0.00  0.00    +0.144 HD
ATOM     24  H   UNL     1       6.244  -2.938  -0.848  0.00  0.00    +0.144 HD
ENDBRANCH  16  17
ENDBRANCH   2  16
TORSDOF 5
