REMARK  Name = ZINC49203434
REMARK  5 active torsions:
REMARK  status: ('A' for Active; 'I' for Inactive)
REMARK    1  A    between atoms: C_1  and  C_2
REMARK    2  A    between atoms: C_3  and  C_20
REMARK    3  A    between atoms: N_10  and  C_11
REMARK    4  A    between atoms: N_13  and  C_14
REMARK    5  A    between atoms: C_14  and  C_15
REMARK                            x       y       z     vdW  Elec       q    Type
REMARK                         _______ _______ _______ _____ _____    ______ ____
ROOT
ATOM      1  C   UNL     1       0.031   1.526   0.088  0.00  0.00    +0.064 C 
ATOM      2  C   UNL     1       0.048   0.024  -0.031  0.00  0.00    +0.045 C 
ATOM      3  C   UNL     1      -1.008  -0.762  -0.232  0.00  0.00    +0.121 C 
ATOM      4  O   UNL     1      -0.580  -2.042  -0.280  0.00  0.00    -0.444 OA
ATOM      5  C   UNL     1       0.746  -2.057  -0.109  0.00  0.00    +0.198 C 
ATOM      6  C   UNL     1       1.597  -3.248  -0.095  0.00  0.00    +0.033 C 
ATOM      7  C   UNL     1       2.981  -3.120   0.100  0.00  0.00    +0.015 C 
ATOM      8  C   UNL     1       3.772  -4.229   0.113  0.00  0.00    +0.026 C 
ATOM      9  C   UNL     1       3.204  -5.498  -0.069  0.00  0.00    +0.058 C 
ATOM     10  N   UNL     1       3.994  -6.603  -0.056  0.00  0.00    -0.164 NA
ATOM     11  C   UNL     1       1.821  -5.627  -0.264  0.00  0.00    +0.026 C 
ATOM     12  C   UNL     1       1.028  -4.519  -0.272  0.00  0.00    +0.015 C 
ATOM     13  N   UNL     1       1.162  -0.788   0.043  0.00  0.00    -0.286 N 
ATOM     14  C   UNL     1      -2.435  -0.302  -0.380  0.00  0.00    +0.088 C 
ATOM     15  H   UNL     1       2.077  -0.497   0.180  0.00  0.00    +0.155 HD
ENDROOT
BRANCH  10  16
ATOM     16  C   UNL     1       5.228  -6.532   0.429  0.00  0.00    +0.324 C 
ATOM     17  O   UNL     1       5.614  -5.507   0.966  0.00  0.00    -0.251 OA
ATOM     18  N   UNL     1       6.054  -7.592   0.328  0.00  0.00    -0.294 N 
ATOM     19  H   UNL     1       5.747  -8.407  -0.100  0.00  0.00    +0.151 HD
BRANCH  18  20
ATOM     20  C   UNL     1       7.416  -7.513   0.863  0.00  0.00    +0.132 C 
BRANCH  20  21
ATOM     21  C   UNL     1       8.126  -8.821   0.623  0.00  0.00    -0.016 C 
ATOM     22  C   UNL     1       9.272  -8.837  -0.012  0.00  0.00    +0.005 C 
ENDBRANCH  20  21
ENDBRANCH  18  20
ENDBRANCH  10  16
TORSDOF 3
