REMARK  Name = ZINC05549542
REMARK  7 active torsions:
REMARK  status: ('A' for Active; 'I' for Inactive)
REMARK    1  A    between atoms: C_1  and  N_38
REMARK    2  A    between atoms: C_2  and  N_38
REMARK    3  A    between atoms: C_3  and  N_38
REMARK    4  A    between atoms: C_6  and  N_13
REMARK    5  A    between atoms: C_9  and  C_11
REMARK    6  A    between atoms: C_11  and  O_12
REMARK    7  A    between atoms: C_21  and  N_22
REMARK                            x       y       z     vdW  Elec       q    Type
REMARK                         _______ _______ _______ _____ _____    ______ ____
ROOT
ATOM      1  C   UNL     1       1.795   1.824  -0.011  0.00  0.00    -0.033 C 
ATOM      2  C   UNL     1       0.332   1.383  -0.242  0.00  0.00    +0.042 C 
ATOM      3  C   UNL     1       0.341  -0.128   0.080  0.00  0.00    +0.221 C 
ATOM      4  O   UNL     1       1.469  -0.311   0.962  0.00  0.00    -0.353 OA
ATOM      5  C   UNL     1       2.514   0.528   0.423  0.00  0.00    +0.133 C 
ENDROOT
BRANCH   3   6
ATOM      6  N   UNL     1      -0.901  -0.513   0.754  0.00  0.00    -0.288 N 
ATOM      7  C   UNL     1      -1.093  -0.606   2.100  0.00  0.00    +0.203 A 
ATOM      8  N   UNL     1      -2.316  -0.974   2.351  0.00  0.00    -0.231 NA
ATOM      9  C   UNL     1      -2.985  -1.140   1.185  0.00  0.00    +0.147 A 
ATOM     10  C   UNL     1      -2.087  -0.841   0.146  0.00  0.00    +0.167 A 
ATOM     11  N   UNL     1      -2.505  -0.923  -1.113  0.00  0.00    -0.216 NA
ATOM     12  C   UNL     1      -3.743  -1.276  -1.387  0.00  0.00    +0.225 A 
ATOM     13  N   UNL     1      -4.623  -1.563  -0.445  0.00  0.00    -0.219 NA
ATOM     14  C   UNL     1      -4.294  -1.518   0.842  0.00  0.00    +0.147 A 
BRANCH  14  15
ATOM     15  N   UNL     1      -5.224  -1.819   1.821  0.00  0.00    -0.341 N 
ATOM     16  H   UNL     1      -4.894  -2.588   2.369  0.00  0.00    +0.144 HD
ATOM     17  H   UNL     1      -6.125  -2.078   1.572  0.00  0.00    +0.144 HD
ENDBRANCH  14  15
ENDBRANCH   3   6
BRANCH   1  20
ATOM     18  C   UNL     1       1.389   4.138   0.576  0.00  0.00    -0.096 C 
ATOM     19  C   UNL     1       1.115   2.401   2.240  0.00  0.00    -0.096 C 
ATOM     20  N   UNL     1       1.893   2.836   1.062  0.00  0.00    +0.380 N 
ATOM     21  H   UNL     1       2.878   2.940   1.332  0.00  0.00    -0.082 HD
ENDBRANCH   1  20
BRANCH   5  22
ATOM     22  C   UNL     1       3.560   0.833   1.497  0.00  0.00    +0.185 C 
BRANCH  22  23
ATOM     23  O   UNL     1       4.229  -0.374   1.867  0.00  0.00    -0.393 OA
ATOM     24  H   UNL     1       4.908  -0.256   2.545  0.00  0.00    +0.210 HD
ENDBRANCH  22  23
ENDBRANCH   5  22
TORSDOF 5
