REMARK  Name = ZINC21242485
REMARK  11 active torsions:
REMARK  status: ('A' for Active; 'I' for Inactive)
REMARK    1  A    between atoms: C_1  and  C_2
REMARK    2  A    between atoms: C_11  and  N_27
REMARK    3  A    between atoms: C_13  and  S_15
REMARK    4  A    between atoms: S_15  and  C_16
REMARK    5  A    between atoms: C_16  and  C_17
REMARK    6  A    between atoms: N_19  and  C_20
REMARK    7  A    between atoms: C_20  and  C_21
REMARK    8  A    between atoms: C_20  and  C_22
REMARK    9  A    between atoms: C_20  and  C_24
REMARK   10  A    between atoms: C_24  and  C_25
REMARK   11  A    between atoms: C_24  and  C_26
REMARK                            x       y       z     vdW  Elec       q    Type
REMARK                         _______ _______ _______ _____ _____    ______ ____
ROOT
ATOM      1  C   UNL     1      -4.211   7.039 -12.608  0.00  0.00    +0.008 C 
ATOM      2  C   UNL     1      -3.636   6.420 -11.332  0.00  0.00    -0.009 C 
ATOM      3  C   UNL     1      -4.776   5.874 -10.467  0.00  0.00    +0.008 C 
ATOM      4  C   UNL     1      -4.240   5.480  -9.091  0.00  0.00    +0.037 C 
ATOM      5  C   UNL     1      -3.048   4.544  -9.276  0.00  0.00    -0.025 A 
ATOM      6  C   UNL     1      -2.397   4.484 -10.454  0.00  0.00    -0.004 A 
ATOM      7  S   UNL     1      -1.111   3.288 -10.211  0.00  0.00    -0.073 S 
ATOM      8  C   UNL     1      -1.449   2.871  -8.521  0.00  0.00    +0.115 A 
ATOM      9  C   UNL     1      -2.558   3.679  -8.200  0.00  0.00    +0.051 A 
ATOM     10  C   UNL     1      -3.052   3.545  -6.873  0.00  0.00    +0.129 A 
ATOM     11  N   UNL     1      -2.466   2.694  -6.048  0.00  0.00    -0.207 NA
ATOM     12  C   UNL     1      -1.418   1.964  -6.414  0.00  0.00    +0.191 A 
ATOM     13  N   UNL     1      -0.915   2.049  -7.638  0.00  0.00    -0.214 NA
ATOM     14  C   UNL     1      -2.699   5.261 -11.699  0.00  0.00    +0.046 C 
ENDROOT
BRANCH  10  15
ATOM     15  N   UNL     1      -4.138   4.291  -6.452  0.00  0.00    -0.343 N 
ATOM     16  H   UNL     1      -4.515   4.182  -5.424  0.00  0.00    +0.144 HD
ATOM     17  H   UNL     1      -4.625   4.993  -7.145  0.00  0.00    +0.144 HD
ENDBRANCH  10  15
BRANCH  12  18
ATOM     18  S   UNL     1      -0.687   0.859  -5.253  0.00  0.00    -0.077 S 
BRANCH  18  19
ATOM     19  C   UNL     1      -1.749   1.161  -3.819  0.00  0.00    +0.173 C 
BRANCH  19  20
ATOM     20  C   UNL     1      -1.297   0.298  -2.669  0.00  0.00    +0.224 C 
ATOM     21  O   UNL     1      -0.351  -0.448  -2.805  0.00  0.00    -0.275 OA
ATOM     22  N   UNL     1      -1.945   0.355  -1.488  0.00  0.00    -0.297 N 
ATOM     23  H   UNL     1      -2.804   1.032  -1.364  0.00  0.00    +0.150 HD
BRANCH  22  24
ATOM     24  C   UNL     1      -1.507  -0.484  -0.370  0.00  0.00    +0.121 C 
ATOM     25  C   UNL     1      -0.059  -0.142  -0.014  0.00  0.00    +0.048 C 
BRANCH  24  26
ATOM     26  C   UNL     1      -2.404  -0.228   0.842  0.00  0.00    +0.020 C 
ATOM     27  C   UNL     1      -3.830  -0.686   0.527  0.00  0.00    +0.010 C 
ATOM     28  C   UNL     1      -1.872  -1.009   2.045  0.00  0.00    +0.010 C 
ENDBRANCH  24  26
BRANCH  24  29
ATOM     29  C   UNL     1      -1.596  -1.901  -0.757  0.00  0.00    +0.088 C 
ATOM     30  N   UNL     1      -1.665  -2.995  -1.055  0.00  0.00    -0.194 NA
ENDBRANCH  24  29
ENDBRANCH  22  24
ENDBRANCH  19  20
ENDBRANCH  18  19
ENDBRANCH  12  18
TORSDOF 7
