REMARK  Name = ZINC38002446
REMARK  4 active torsions:
REMARK  status: ('A' for Active; 'I' for Inactive)
REMARK    1  A    between atoms: C_4  and  N_7
REMARK    2  A    between atoms: N_7  and  C_8
REMARK    3  A    between atoms: C_8  and  C_9
REMARK    4  A    between atoms: C_12  and  C_15
REMARK                            x       y       z     vdW  Elec       q    Type
REMARK                         _______ _______ _______ _____ _____    ______ ____
ROOT
ATOM      1  C   UNL     1       5.069  -2.595  -0.061  0.00  0.00    +0.102 A 
ATOM      2  N   UNL     1       5.489  -3.835   0.301  0.00  0.00    -0.342 N 
ATOM      3  H   UNL     1       4.932  -4.564   0.614  0.00  0.00    +0.167 HD
ATOM      4  C   UNL     1       6.857  -3.860   0.139  0.00  0.00    +0.071 A 
ATOM      5  C   UNL     1       7.215  -2.626  -0.317  0.00  0.00    +0.110 A 
ATOM      6  N   UNL     1       6.104  -1.889  -0.431  0.00  0.00    -0.348 N 
ATOM      7  H   UNL     1       6.072  -0.970  -0.740  0.00  0.00    +0.166 HD
ENDROOT
BRANCH   4   8
ATOM      8  C   UNL     1       7.756  -4.995   0.408  0.00  0.00    +0.038 A 
ATOM      9  C   UNL     1       9.118  -5.071   0.269  0.00  0.00    +0.019 A 
ATOM     10  C   UNL     1       9.751  -6.253   0.586  0.00  0.00    +0.023 A 
ATOM     11  C   UNL     1       9.009  -7.304   1.023  0.00  0.00    +0.056 A 
ATOM     12  S   UNL     1       7.356  -6.630   1.005  0.00  0.00    -0.080 S 
ATOM     13 BR   UNL     1       9.582  -9.034   1.527  0.00  0.00    -0.043 Br
ENDBRANCH   4   8
BRANCH   1  14
ATOM     14  C   UNL     1       3.641  -2.114  -0.044  0.00  0.00    +0.173 C 
BRANCH  14  15
ATOM     15  N   UNL     1       3.620  -0.649  -0.036  0.00  0.00    -0.337 N 
ATOM     16  H   UNL     1       4.452  -0.152  -0.042  0.00  0.00    +0.147 HD
BRANCH  15  20
ATOM     17  C   UNL     1      -0.017   1.379   0.010  0.00  0.00    +0.000 A 
ATOM     18  C   UNL     1       1.169   2.089   0.002  0.00  0.00    +0.002 A 
ATOM     19  C   UNL     1       2.377   1.420  -0.013  0.00  0.00    +0.023 A 
ATOM     20  C   UNL     1       2.400   0.031  -0.021  0.00  0.00    +0.027 A 
ATOM     21  C   UNL     1       1.206  -0.680  -0.013  0.00  0.00    +0.023 A 
ATOM     22  C   UNL     1       0.002  -0.004   0.002  0.00  0.00    +0.002 A 
ENDBRANCH  15  20
ENDBRANCH  14  15
ENDBRANCH   1  14
TORSDOF 4
