REMARK  Name = ZINC57762273
REMARK  8 active torsions:
REMARK  status: ('A' for Active; 'I' for Inactive)
REMARK    1  A    between atoms: C_1  and  C_2
REMARK    2  A    between atoms: C_5  and  O_22
REMARK    3  A    between atoms: C_6  and  C_8
REMARK    4  A    between atoms: C_8  and  C_9
REMARK    5  A    between atoms: C_9  and  C_11
REMARK    6  A    between atoms: C_9  and  C_13
REMARK    7  A    between atoms: C_11  and  N_12
REMARK    8  A    between atoms: O_22  and  C_23
REMARK                            x       y       z     vdW  Elec       q    Type
REMARK                         _______ _______ _______ _____ _____    ______ ____
ROOT
ATOM      1  C   UNL     1       1.496  -3.187   2.864  0.00  0.00    +0.006 C 
ENDROOT
BRANCH   1   2
ATOM      2  C   UNL     1       1.504  -4.050   4.099  0.00  0.00    -0.042 A 
ATOM      3  C   UNL     1       0.956  -3.575   5.276  0.00  0.00    +0.007 A 
ATOM      4  C   UNL     1       0.961  -4.363   6.412  0.00  0.00    +0.050 A 
ATOM      5  C   UNL     1       1.516  -5.631   6.373  0.00  0.00    +0.166 A 
ATOM      6  C   UNL     1       2.068  -6.110   5.187  0.00  0.00    +0.166 A 
ATOM      7  C   UNL     1       2.055  -5.317   4.051  0.00  0.00    +0.053 A 
ATOM      8  O   UNL     1       2.545  -7.371   5.406  0.00  0.00    -0.453 OA
ATOM      9  C   UNL     1       2.647  -7.501   6.836  0.00  0.00    +0.466 C 
ATOM     10  O   UNL     1       1.647  -6.592   7.334  0.00  0.00    -0.453 OA
ENDBRANCH   1   2
BRANCH   1  11
ATOM     11  C   UNL     1       0.052  -2.841   2.493  0.00  0.00    +0.045 C 
BRANCH  11  17
ATOM     12  C   UNL     1      -0.018   1.503   0.010  0.00  0.00    +0.044 C 
ATOM     13  C   UNL     1       0.002  -0.004   0.002  0.00  0.00    -0.050 A 
ATOM     14  C   UNL     1       0.006  -0.688  -1.200  0.00  0.00    +0.007 A 
ATOM     15  C   UNL     1       0.024  -2.069  -1.210  0.00  0.00    +0.046 A 
ATOM     16  C   UNL     1       0.039  -2.770  -0.013  0.00  0.00    +0.123 A 
ATOM     17  C   UNL     1       0.036  -2.082   1.191  0.00  0.00    -0.005 A 
ATOM     18  C   UNL     1       0.023  -0.701   1.196  0.00  0.00    +0.010 A 
BRANCH  16  19
ATOM     19  O   UNL     1       0.057  -4.129  -0.021  0.00  0.00    -0.495 OA
ATOM     20  C   UNL     1       0.058  -4.771  -1.298  0.00  0.00    +0.277 C 
ENDBRANCH  16  19
ENDBRANCH  11  17
ENDBRANCH   1  11
BRANCH   1  21
ATOM     21  C   UNL     1       2.276  -1.899   3.136  0.00  0.00    -0.078 C 
BRANCH  21  22
ATOM     22  N   UNL     1       3.688  -2.223   3.374  0.00  0.00    +0.379 N 
ATOM     23  H   UNL     1       3.763  -2.836   4.171  0.00  0.00    -0.090 HD
ATOM     24  H   UNL     1       4.070  -2.682   2.560  0.00  0.00    -0.090 HD
ATOM     25  H   UNL     1       4.203  -1.374   3.553  0.00  0.00    -0.090 HD
ENDBRANCH  21  22
ENDBRANCH   1  21
TORSDOF 6
