REMARK  Name = ZINC63174855
REMARK  4 active torsions:
REMARK  status: ('A' for Active; 'I' for Inactive)
REMARK    1  A    between atoms: C_2  and  S_9
REMARK    2  A    between atoms: S_9  and  N_12
REMARK    3  A    between atoms: N_12  and  C_13
REMARK    4  A    between atoms: C_18  and  N_20
REMARK                            x       y       z     vdW  Elec       q    Type
REMARK                         _______ _______ _______ _____ _____    ______ ____
ROOT
ATOM      1  S   UNL     1       1.146   3.849   0.011  0.00  0.00    +0.059 S 
ATOM      2  O   UNL     1       2.380   4.275  -0.549  0.00  0.00    -0.153 OA
ATOM      3  O   UNL     1      -0.110   4.240  -0.526  0.00  0.00    -0.153 OA
ENDROOT
BRANCH   1   5
ATOM      4  C   UNL     1      -0.017   1.379   0.010  0.00  0.00    +0.048 A 
ATOM      5  C   UNL     1       1.171   2.087   0.002  0.00  0.00    +0.108 A 
ATOM      6  C   UNL     1       2.377   1.413  -0.013  0.00  0.00    +0.048 A 
ATOM      7  C   UNL     1       2.397   0.030  -0.021  0.00  0.00    +0.044 A 
ATOM      8  C   UNL     1       1.209  -0.679  -0.013  0.00  0.00    +0.040 A 
ATOM      9  C   UNL     1       0.002  -0.004   0.002  0.00  0.00    +0.044 A 
ATOM     10 CL   UNL     1      -1.489  -0.893   0.012  0.00  0.00    -0.083 Cl
ATOM     11 CL   UNL     1       3.913  -0.817  -0.040  0.00  0.00    -0.083 Cl
ENDBRANCH   1   5
BRANCH   1  12
ATOM     12  N   UNL     1       1.154   4.330   1.596  0.00  0.00    -0.188 NA
ATOM     13  H   UNL     1       0.389   4.800   1.964  0.00  0.00    +0.148 HD
BRANCH  12  14
ATOM     14  C   UNL     1       2.316   4.047   2.442  0.00  0.00    +0.062 C 
ATOM     15  C   UNL     1       2.067   2.769   3.269  0.00  0.00    +0.019 C 
ATOM     16  C   UNL     1       2.726   3.069   4.639  0.00  0.00    -0.000 C 
ATOM     17  C   UNL     1       2.397   4.567   4.856  0.00  0.00    -0.015 C 
ATOM     18  C   UNL     1       2.526   5.190   3.449  0.00  0.00    -0.056 C 
BRANCH  18  19
ATOM     19  N   UNL     1       1.498   6.223   3.260  0.00  0.00    +0.381 N 
ATOM     20  H   UNL     1       0.585   5.819   3.403  0.00  0.00    -0.090 HD
ATOM     21  H   UNL     1       1.644   6.968   3.924  0.00  0.00    -0.090 HD
ATOM     22  H   UNL     1       1.560   6.591   2.323  0.00  0.00    -0.090 HD
ENDBRANCH  18  19
ENDBRANCH  12  14
ENDBRANCH   1  12
TORSDOF 4
