REMARK  Name = ZINC08129440
REMARK  8 active torsions:
REMARK  status: ('A' for Active; 'I' for Inactive)
REMARK    1  A    between atoms: C_1  and  C_2
REMARK    2  A    between atoms: C_2  and  C_3
REMARK    3  A    between atoms: C_3  and  C_5
REMARK    4  A    between atoms: C_3  and  N_43
REMARK    5  A    between atoms: C_12  and  C_13
REMARK    6  A    between atoms: C_12  and  N_43
REMARK    7  A    between atoms: N_18  and  C_19
REMARK    8  A    between atoms: C_19  and  C_20
REMARK                            x       y       z     vdW  Elec       q    Type
REMARK                         _______ _______ _______ _____ _____    ______ ____
ROOT
ATOM      1  C   UNL     1      -3.050   1.589   0.551  0.00  0.00    +0.016 C 
ENDROOT
BRANCH   1   2
ATOM      2  C   UNL     1      -4.330   0.796   0.625  0.00  0.00    +0.203 C 
ATOM      3  O   UNL     1      -4.410  -0.157   1.371  0.00  0.00    -0.277 OA
ATOM      4  N   UNL     1      -5.384   1.146  -0.138  0.00  0.00    -0.242 N 
ATOM      5  C   UNL     1      -6.528   0.436  -0.072  0.00  0.00    +0.306 C 
ATOM      6  O   UNL     1      -6.609  -0.518   0.676  0.00  0.00    -0.252 OA
ATOM      7  N   UNL     1      -7.583   0.786  -0.835  0.00  0.00    -0.292 N 
ATOM      8  H   UNL     1      -5.320   1.908  -0.735  0.00  0.00    +0.159 HD
ATOM      9  H   UNL     1      -7.518   1.548  -1.431  0.00  0.00    +0.151 HD
BRANCH   7  10
ATOM     10  C   UNL     1      -8.826   0.015  -0.763  0.00  0.00    +0.180 C 
BRANCH  10  11
ATOM     11  C   UNL     1      -9.840   0.608  -1.708  0.00  0.00    +0.122 A 
ATOM     12  C   UNL     1     -10.010   0.264  -2.997  0.00  0.00    +0.046 A 
ATOM     13  C   UNL     1     -11.061   1.065  -3.500  0.00  0.00    +0.041 A 
ATOM     14  C   UNL     1     -11.470   1.851  -2.488  0.00  0.00    +0.195 A 
ATOM     15  O   UNL     1     -10.731   1.566  -1.403  0.00  0.00    -0.466 OA
ENDBRANCH  10  11
ENDBRANCH   7  10
ENDBRANCH   1   2
BRANCH   1  16
ATOM     16  N   UNL     1      -2.064   1.003   1.479  0.00  0.00    +0.389 N 
ATOM     17  H   UNL     1      -2.397   1.117   2.443  0.00  0.00    -0.084 HD
ATOM     18  H   UNL     1      -1.955   0.004   1.270  0.00  0.00    -0.084 HD
BRANCH  16  19
ATOM     19  C   UNL     1      -0.760   1.676   1.331  0.00  0.00    -0.041 C 
BRANCH  19  20
ATOM     20  C   UNL     1       0.008   1.554   2.622  0.00  0.00    -0.061 A 
ATOM     21  C   UNL     1      -0.031   0.375   3.341  0.00  0.00    +0.003 A 
ATOM     22  C   UNL     1       0.677   0.261   4.523  0.00  0.00    +0.015 A 
ATOM     23  C   UNL     1       1.417   1.332   4.991  0.00  0.00    +0.018 A 
ATOM     24  C   UNL     1       1.452   2.514   4.273  0.00  0.00    +0.015 A 
ATOM     25  C   UNL     1       0.748   2.625   3.089  0.00  0.00    +0.003 A 
ATOM     26 BR   UNL     1       2.380   1.181   6.612  0.00  0.00    -0.050 Br
ENDBRANCH  19  20
BRANCH  19  28
ATOM     27  C   UNL     1       1.329   1.788  -0.035  0.00  0.00    +0.002 C 
ATOM     28  C   UNL     1       0.032   1.012   0.202  0.00  0.00    -0.015 C 
ENDBRANCH  19  28
ENDBRANCH  16  19
ENDBRANCH   1  16
TORSDOF 7
