REMARK  Name = ZINC40852907
REMARK  4 active torsions:
REMARK  status: ('A' for Active; 'I' for Inactive)
REMARK    1  A    between atoms: C_1  and  C_2
REMARK    2  A    between atoms: C_9  and  N_13
REMARK    3  A    between atoms: C_10  and  C_11
REMARK    4  A    between atoms: C_14  and  C_16
REMARK                            x       y       z     vdW  Elec       q    Type
REMARK                         _______ _______ _______ _____ _____    ______ ____
ROOT
ATOM      1  C   UNL     1      -0.019   1.526   0.010  0.00  0.00    +0.008 C 
ATOM      2  C   UNL     1       0.002  -0.004   0.002  0.00  0.00    -0.009 C 
ATOM      3  C   UNL     1       0.724  -0.500  -1.254  0.00  0.00    +0.008 C 
ATOM      4  C   UNL     1       0.537  -2.012  -1.399  0.00  0.00    +0.037 C 
ATOM      5  C   UNL     1       0.935  -2.680  -0.092  0.00  0.00    -0.018 A 
ATOM      6  C   UNL     1       1.019  -1.977   1.059  0.00  0.00    -0.004 A 
ATOM      7  S   UNL     1       1.508  -3.165   2.275  0.00  0.00    -0.077 S 
ATOM      8  C   UNL     1       1.599  -4.539   1.313  0.00  0.00    +0.090 A 
ATOM      9  C   UNL     1       1.254  -4.090   0.049  0.00  0.00    +0.084 A 
ATOM     10  C   UNL     1       0.750  -0.515   1.242  0.00  0.00    +0.046 C 
ENDROOT
BRANCH   8  11
ATOM     11  N   UNL     1       1.941  -5.828   1.697  0.00  0.00    -0.280 N 
ATOM     12  C   UNL     1       2.252  -6.088   2.983  0.00  0.00    +0.204 C 
ATOM     13  O   UNL     1       2.232  -5.196   3.804  0.00  0.00    -0.277 OA
ATOM     14  H   UNL     1       1.957  -6.541   1.040  0.00  0.00    +0.155 HD
BRANCH  12  15
ATOM     15  C   UNL     1       2.624  -7.488   3.399  0.00  0.00    +0.016 C 
ATOM     16  C   UNL     1       3.861  -7.939   2.620  0.00  0.00    -0.007 C 
ATOM     17  C   UNL     1       4.235  -9.362   3.047  0.00  0.00    -0.003 C 
ATOM     18  C   UNL     1       4.462  -9.387   4.561  0.00  0.00    -0.019 C 
ATOM     19  C   UNL     1       3.203  -8.882   5.268  0.00  0.00    -0.082 C 
ATOM     20  N   UNL     1       2.914  -7.508   4.838  0.00  0.00    +0.387 N 
ATOM     21  H   UNL     1       3.713  -6.922   5.028  0.00  0.00    -0.085 HD
ATOM     22  H   UNL     1       2.115  -7.159   5.346  0.00  0.00    -0.085 HD
ENDBRANCH  12  15
ENDBRANCH   8  11
BRANCH   9  23
ATOM     23  C   UNL     1       1.212  -4.980  -1.072  0.00  0.00    +0.102 C 
ATOM     24  N   UNL     1       1.180  -5.685  -1.962  0.00  0.00    -0.191 NA
ENDBRANCH   9  23
TORSDOF 3
