REMARK  Name = ZINC06162446
REMARK  10 active torsions:
REMARK  status: ('A' for Active; 'I' for Inactive)
REMARK    1  A    between atoms: C_1  and  C_2
REMARK    2  A    between atoms: C_2  and  C_3
REMARK    3  A    between atoms: C_3  and  O_4
REMARK    4  A    between atoms: O_4  and  C_5
REMARK    5  A    between atoms: C_8  and  C_11
REMARK    6  A    between atoms: C_14  and  C_25
REMARK    7  A    between atoms: C_20  and  N_24
REMARK    8  A    between atoms: C_21  and  C_22
REMARK    9  A    between atoms: C_27  and  C_31
REMARK   10  A    between atoms: C_29  and  C_30
REMARK                            x       y       z     vdW  Elec       q    Type
REMARK                         _______ _______ _______ _____ _____    ______ ____
ROOT
ATOM      1  C   UNL     1       3.299  -4.428  -5.737  0.00  0.00    +0.102 C 
ATOM      2  C   UNL     1       2.311  -5.398  -6.332  0.00  0.00    +0.054 A 
ATOM      3  C   UNL     1       1.154  -5.140  -7.072  0.00  0.00    +0.101 A 
ATOM      4  N   UNL     1       0.603  -6.298  -7.382  0.00  0.00    -0.171 NA
ATOM      5  N   UNL     1       1.398  -7.323  -6.845  0.00  0.00    -0.246 N 
ATOM      6  H   UNL     1       1.228  -8.275  -6.921  0.00  0.00    +0.192 HD
ATOM      7  C   UNL     1       2.439  -6.751  -6.206  0.00  0.00    +0.223 A 
ATOM      8  O   UNL     1       3.468  -7.330  -5.539  0.00  0.00    -0.423 OA
ATOM      9  C   UNL     1       4.525  -6.554  -5.225  0.00  0.00    +0.200 C 
ATOM     10  C   UNL     1       4.516  -5.203  -5.297  0.00  0.00    +0.098 C 
ENDROOT
BRANCH   3  11
ATOM     11  C   UNL     1       0.636  -3.799  -7.445  0.00  0.00    +0.013 A 
ATOM     12  C   UNL     1       1.480  -2.838  -7.993  0.00  0.00    +0.021 A 
ATOM     13  C   UNL     1       0.971  -1.628  -8.320  0.00  0.00    -0.012 A 
ATOM     14  S   UNL     1      -0.744  -1.802  -7.858  0.00  0.00    -0.098 S 
ATOM     15  C   UNL     1      -0.680  -3.483  -7.261  0.00  0.00    -0.004 A 
ATOM     16  C   UNL     1      -1.790  -4.333  -6.699  0.00  0.00    +0.052 C 
ATOM     17  C   UNL     1       1.673  -0.438  -8.920  0.00  0.00    +0.051 C 
ENDBRANCH   3  11
BRANCH   1  21
ATOM     18  C   UNL     1       1.545  -2.464  -2.371  0.00  0.00    +0.121 A 
ATOM     19  C   UNL     1       2.036  -1.718  -3.432  0.00  0.00    +0.046 A 
ATOM     20  C   UNL     1       2.603  -2.355  -4.519  0.00  0.00    +0.008 A 
ATOM     21  C   UNL     1       2.680  -3.735  -4.550  0.00  0.00    -0.034 A 
ATOM     22  C   UNL     1       2.191  -4.481  -3.494  0.00  0.00    +0.008 A 
ATOM     23  C   UNL     1       1.629  -3.849  -2.402  0.00  0.00    +0.046 A 
BRANCH  18  24
ATOM     24  O   UNL     1       0.987  -1.840  -1.301  0.00  0.00    -0.492 OA
BRANCH  24  25
ATOM     25  C   UNL     1       0.934  -0.412  -1.337  0.00  0.00    +0.229 C 
BRANCH  25  27
ATOM     26  C   UNL     1       0.222   1.635  -0.095  0.00  0.00    +0.007 C 
ATOM     27  C   UNL     1       0.278   0.107  -0.056  0.00  0.00    +0.038 C 
ENDBRANCH  25  27
ENDBRANCH  24  25
ENDBRANCH  18  24
ENDBRANCH   1  21
BRANCH   9  28
ATOM     28  N   UNL     1       5.679  -7.170  -4.809  0.00  0.00    -0.328 N 
ATOM     29  H   UNL     1       5.717  -8.137  -4.747  0.00  0.00    +0.145 HD
ATOM     30  H   UNL     1       6.456  -6.638  -4.576  0.00  0.00    +0.145 HD
ENDBRANCH   9  28
BRANCH  10  31
ATOM     31  C   UNL     1       5.702  -4.484  -4.943  0.00  0.00    +0.101 C 
ATOM     32  N   UNL     1       6.643  -3.913  -4.663  0.00  0.00    -0.191 NA
ENDBRANCH  10  31
TORSDOF 7
