REMARK  Name = ZINC15504535
REMARK  10 active torsions:
REMARK  status: ('A' for Active; 'I' for Inactive)
REMARK    1  A    between atoms: C_1  and  C_2
REMARK    2  A    between atoms: N_5  and  C_8
REMARK    3  A    between atoms: C_11  and  N_14
REMARK    4  A    between atoms: N_14  and  C_15
REMARK    5  A    between atoms: C_15  and  C_17
REMARK    6  A    between atoms: C_15  and  C_18
REMARK    7  A    between atoms: C_18  and  C_20
REMARK    8  A    between atoms: C_21  and  N_30
REMARK    9  A    between atoms: N_22  and  C_29
REMARK   10  A    between atoms: N_25  and  C_28
REMARK                            x       y       z     vdW  Elec       q    Type
REMARK                         _______ _______ _______ _____ _____    ______ ____
ROOT
ATOM      1  C   UNL     1       3.417  -8.434   0.288  0.00  0.00    +0.139 C 
ATOM      2  C   UNL     1       3.667  -8.582  -1.214  0.00  0.00    +0.036 C 
ENDROOT
BRANCH   1   3
ATOM      3  N   UNL     1       2.152  -7.728   0.506  0.00  0.00    -0.334 N 
ATOM      4  H   UNL     1       1.335  -8.230   0.654  0.00  0.00    +0.147 HD
BRANCH   3   8
ATOM      5  C   UNL     1       2.061  -3.565   0.488  0.00  0.00    +0.014 A 
ATOM      6  C   UNL     1       0.896  -4.280   0.699  0.00  0.00    +0.023 A 
ATOM      7  C   UNL     1       0.922  -5.661   0.706  0.00  0.00    +0.025 A 
ATOM      8  C   UNL     1       2.121  -6.332   0.499  0.00  0.00    +0.028 A 
ATOM      9  C   UNL     1       3.290  -5.611   0.287  0.00  0.00    +0.025 A 
ATOM     10  C   UNL     1       3.255  -4.230   0.277  0.00  0.00    +0.023 A 
BRANCH   5  15
ATOM     11  C   UNL     1       0.795   1.921   0.677  0.00  0.00    +0.007 C 
ATOM     12  C   UNL     1       0.697   0.394   0.708  0.00  0.00    -0.011 C 
ATOM     13  C   UNL     1       1.150  -0.175  -0.640  0.00  0.00    +0.020 C 
ATOM     14  C   UNL     1       1.125  -1.704  -0.576  0.00  0.00    +0.085 C 
ATOM     15  N   UNL     1       2.031  -2.168   0.482  0.00  0.00    -0.393 NA
ATOM     16  C   UNL     1       1.561  -1.685   1.786  0.00  0.00    +0.085 C 
ATOM     17  C   UNL     1       1.603  -0.155   1.813  0.00  0.00    +0.020 C 
ATOM     18  H   UNL     1       2.959  -1.814   0.308  0.00  0.00    +0.126 HD
ENDBRANCH   5  15
ENDBRANCH   3   8
ENDBRANCH   1   3
BRANCH   1  19
ATOM     19  C   UNL     1       3.345  -9.800   0.922  0.00  0.00    +0.191 C 
ATOM     20  O   UNL     1       2.266 -10.297   1.172  0.00  0.00    -0.290 OA
BRANCH  19  21
ATOM     21  C   UNL     1       4.532 -10.500   1.224  0.00  0.00    +0.122 A 
ATOM     22  C   UNL     1       4.494 -11.828   1.685  0.00  0.00    +0.116 A 
ATOM     23  N   UNL     1       5.670 -12.464   1.963  0.00  0.00    -0.284 N 
ATOM     24  C   UNL     1       6.851 -11.848   1.806  0.00  0.00    +0.333 A 
ATOM     25  O   UNL     1       7.870 -12.458   2.068  0.00  0.00    -0.246 OA
ATOM     26  N   UNL     1       6.950 -10.582   1.369  0.00  0.00    -0.263 N 
ATOM     27  C   UNL     1       5.848  -9.868   1.061  0.00  0.00    +0.269 A 
ATOM     28  O   UNL     1       5.941  -8.722   0.661  0.00  0.00    -0.267 OA
ATOM     29  C   UNL     1       8.273  -9.969   1.221  0.00  0.00    +0.157 C 
ATOM     30  C   UNL     1       5.641 -13.848   2.444  0.00  0.00    +0.155 C 
BRANCH  22  31
ATOM     31  N   UNL     1       3.305 -12.468   1.851  0.00  0.00    -0.344 N 
ATOM     32  H   UNL     1       2.498 -12.102   1.456  0.00  0.00    +0.144 HD
ATOM     33  H   UNL     1       3.264 -13.290   2.363  0.00  0.00    +0.144 HD
ENDBRANCH  22  31
ENDBRANCH  19  21
ENDBRANCH   1  19
TORSDOF 6
