REMARK  Name = ZINC61645992
REMARK  7 active torsions:
REMARK  status: ('A' for Active; 'I' for Inactive)
REMARK    1  A    between atoms: C_1  and  N_2
REMARK    2  A    between atoms: N_2  and  C_3
REMARK    3  A    between atoms: N_2  and  C_4
REMARK    4  A    between atoms: C_4  and  C_5
REMARK    5  A    between atoms: N_10  and  C_11
REMARK    6  A    between atoms: C_16  and  C_17
REMARK    7  A    between atoms: C_17  and  N_18
REMARK                            x       y       z     vdW  Elec       q    Type
REMARK                         _______ _______ _______ _____ _____    ______ ____
ROOT
ATOM      1  C   UNL     1       2.398  -0.185   1.178  0.00  0.00    +0.032 A 
ATOM      2  C   UNL     1       2.267   1.145   1.556  0.00  0.00    +0.038 A 
ATOM      3  C   UNL     1       2.042   1.466   2.881  0.00  0.00    +0.020 A 
ATOM      4  C   UNL     1       1.948   0.464   3.830  0.00  0.00    +0.015 A 
ATOM      5  C   UNL     1       2.079  -0.861   3.457  0.00  0.00    +0.004 A 
ATOM      6  C   UNL     1       2.297  -1.189   2.133  0.00  0.00    -0.044 A 
ATOM      7 BR   UNL     1       1.863   3.276   3.397  0.00  0.00    -0.050 Br
ENDROOT
BRANCH   1  12
ATOM      8  C   UNL     1       1.606  -0.541  -1.220  0.00  0.00    +0.057 C 
ATOM      9  C   UNL     1       2.317  -0.926  -2.535  0.00  0.00    +0.022 C 
ATOM     10  C   UNL     1       3.795  -0.544  -2.255  0.00  0.00    +0.021 C 
ATOM     11  C   UNL     1       3.926  -0.890  -0.750  0.00  0.00    +0.105 C 
ATOM     12  N   UNL     1       2.624  -0.513  -0.161  0.00  0.00    -0.328 N 
BRANCH   8  13
ATOM     13  C   UNL     1       0.534  -1.581  -0.885  0.00  0.00    -0.057 C 
BRANCH  13  15
ATOM     14  C   UNL     1      -0.968   0.046   0.037  0.00  0.00    -0.097 C 
ATOM     15  N   UNL     1      -0.189  -1.165   0.324  0.00  0.00    +0.377 N 
ATOM     16  C   UNL     1      -1.095  -2.241   0.747  0.00  0.00    -0.097 C 
ATOM     17  H   UNL     1       0.472  -0.973   1.062  0.00  0.00    -0.083 HD
ENDBRANCH  13  15
ENDBRANCH   8  13
ENDBRANCH   1  12
BRANCH   6  18
ATOM     18  C   UNL     1       2.433  -2.633   1.726  0.00  0.00    -0.049 C 
BRANCH  18  19
ATOM     19  N   UNL     1       3.855  -2.967   1.571  0.00  0.00    +0.381 N 
ATOM     20  H   UNL     1       4.291  -2.301   0.951  0.00  0.00    -0.090 HD
ATOM     21  H   UNL     1       4.308  -2.935   2.472  0.00  0.00    -0.090 HD
ATOM     22  H   UNL     1       3.943  -3.894   1.183  0.00  0.00    -0.090 HD
ENDBRANCH  18  19
ENDBRANCH   6  18
TORSDOF 5
