REMARK  Name = ZINC63101148
REMARK  6 active torsions:
REMARK  status: ('A' for Active; 'I' for Inactive)
REMARK    1  A    between atoms: C_3  and  C_9
REMARK    2  A    between atoms: C_4  and  N_8
REMARK    3  A    between atoms: C_6  and  N_7
REMARK    4  A    between atoms: N_13  and  C_14
REMARK    5  A    between atoms: C_14  and  C_15
REMARK    6  A    between atoms: C_15  and  C_16
REMARK                            x       y       z     vdW  Elec       q    Type
REMARK                         _______ _______ _______ _____ _____    ______ ____
ROOT
ATOM      1  C   UNL     1       0.231   0.987  -0.968  0.00  0.00    +0.023 A 
ATOM      2  C   UNL     1       1.424   1.676  -0.989  0.00  0.00    +0.015 A 
ATOM      3  C   UNL     1       2.400   1.411  -0.027  0.00  0.00    +0.041 A 
ATOM      4  C   UNL     1       2.162   0.442   0.960  0.00  0.00    +0.037 A 
ATOM      5  C   UNL     1       0.959  -0.245   0.972  0.00  0.00    +0.046 A 
ATOM      6  C   UNL     1      -0.006   0.026   0.011  0.00  0.00    +0.026 A 
ENDROOT
BRANCH   3   7
ATOM      7  C   UNL     1       3.680   2.147  -0.048  0.00  0.00    +0.184 A 
ATOM      8  N   UNL     1       4.888   1.624   0.026  0.00  0.00    -0.108 NA
ATOM      9  N   UNL     1       5.781   2.546  -0.020  0.00  0.00    -0.023 NA
ATOM     10  N   UNL     1       5.229   3.706  -0.125  0.00  0.00    -0.044 NA
ATOM     11  N   UNL     1       3.839   3.496  -0.153  0.00  0.00    -0.225 N 
BRANCH  11  12
ATOM     12  C   UNL     1       2.787   4.510  -0.268  0.00  0.00    +0.156 C 
BRANCH  12  13
ATOM     13  C   UNL     1       2.465   5.070   1.119  0.00  0.00    +0.136 C 
BRANCH  13  14
ATOM     14  C   UNL     1       1.367   6.129   0.998  0.00  0.00    +0.392 C 
ATOM     15  F   UNL     1       0.218   5.549   0.451  0.00  0.00    -0.171 F 
ATOM     16  F   UNL     1       1.073   6.641   2.266  0.00  0.00    -0.171 F 
ATOM     17  F   UNL     1       1.807   7.165   0.167  0.00  0.00    -0.171 F 
ENDBRANCH  13  14
ENDBRANCH  12  13
ENDBRANCH  11  12
ENDBRANCH   3   7
BRANCH   6  18
ATOM     18  N   UNL     1      -1.216  -0.667   0.025  0.00  0.00    -0.358 N 
ATOM     19  H   UNL     1      -1.890  -0.479  -0.646  0.00  0.00    +0.142 HD
ATOM     20  H   UNL     1      -1.383  -1.337   0.706  0.00  0.00    +0.142 HD
ENDBRANCH   6  18
BRANCH   4  21
ATOM     21  N   UNL     1       3.131   0.171   1.922  0.00  0.00    -0.357 N 
ATOM     22  H   UNL     1       3.934   0.713   1.968  0.00  0.00    +0.142 HD
ATOM     23  H   UNL     1       3.003  -0.559   2.547  0.00  0.00    +0.142 HD
ENDBRANCH   4  21
TORSDOF 6
