REMARK  Name = ZINC37367821
REMARK  5 active torsions:
REMARK  status: ('A' for Active; 'I' for Inactive)
REMARK    1  A    between atoms: C_1  and  C_2
REMARK    2  A    between atoms: C_7  and  N_8
REMARK    3  A    between atoms: N_8  and  S_9
REMARK    4  A    between atoms: S_9  and  C_12
REMARK    5  A    between atoms: C_15  and  N_19
REMARK                            x       y       z     vdW  Elec       q    Type
REMARK                         _______ _______ _______ _____ _____    ______ ____
ROOT
ATOM      1  S   UNL     1       0.957  -0.651   3.627  0.00  0.00    +0.074 S 
ATOM      2  O   UNL     1       0.826   0.142   4.799  0.00  0.00    -0.150 OA
ATOM      3  O   UNL     1       0.633  -2.035   3.603  0.00  0.00    -0.150 OA
ENDROOT
BRANCH   1   4
ATOM      4  C   UNL     1       2.638  -0.518   3.115  0.00  0.00    +0.127 A 
ATOM      5  C   UNL     1       3.535   0.210   3.875  0.00  0.00    +0.032 A 
ATOM      6  C   UNL     1       4.853   0.317   3.477  0.00  0.00    +0.025 A 
ATOM      7  C   UNL     1       5.278  -0.310   2.312  0.00  0.00    +0.026 A 
ATOM      8  C   UNL     1       4.376  -1.042   1.551  0.00  0.00    +0.044 A 
ATOM      9  C   UNL     1       3.059  -1.149   1.957  0.00  0.00    +0.069 A 
ATOM     10 CL   UNL     1       1.931  -2.068   1.011  0.00  0.00    -0.081 Cl
BRANCH   7  11
ATOM     11  N   UNL     1       6.611  -0.204   1.907  0.00  0.00    -0.358 N 
ATOM     12  H   UNL     1       7.240   0.307   2.438  0.00  0.00    +0.142 HD
ATOM     13  H   UNL     1       6.907  -0.642   1.093  0.00  0.00    +0.142 HD
ENDBRANCH   7  11
ENDBRANCH   1   4
BRANCH   1  14
ATOM     14  N   UNL     1       0.031   0.072   2.460  0.00  0.00    -0.216 N 
ATOM     15  H   UNL     1      -0.562  -0.464   1.911  0.00  0.00    +0.174 HD
BRANCH  14  22
ATOM     16  C   UNL     1      -2.345   1.453   1.725  0.00  0.00    +0.046 C 
ATOM     17  C   UNL     1      -1.030   2.167   1.906  0.00  0.00    -0.028 A 
ATOM     18  C   UNL     1      -0.955   3.534   1.720  0.00  0.00    +0.006 A 
ATOM     19  C   UNL     1       0.250   4.191   1.887  0.00  0.00    +0.015 A 
ATOM     20  C   UNL     1       1.385   3.482   2.240  0.00  0.00    +0.020 A 
ATOM     21  C   UNL     1       1.317   2.114   2.427  0.00  0.00    +0.040 A 
ATOM     22  C   UNL     1       0.105   1.453   2.266  0.00  0.00    +0.052 A 
ATOM     23 BR   UNL     1       3.031   4.385   2.465  0.00  0.00    -0.050 Br
ENDBRANCH  14  22
ENDBRANCH   1  14
TORSDOF 4
