REMARK  Name = ZINC09226053
REMARK  6 active torsions:
REMARK  status: ('A' for Active; 'I' for Inactive)
REMARK    1  A    between atoms: C_6  and  N_7
REMARK    2  A    between atoms: C_8  and  C_10
REMARK    3  A    between atoms: C_10  and  S_11
REMARK    4  A    between atoms: S_11  and  C_12
REMARK    5  A    between atoms: C_15  and  C_18
REMARK    6  A    between atoms: C_23  and  O_24
REMARK                            x       y       z     vdW  Elec       q    Type
REMARK                         _______ _______ _______ _____ _____    ______ ____
ROOT
ATOM      1  S   UNL     1      -5.053   0.310   0.379  0.00  0.00    -0.077 S 
ENDROOT
BRANCH   1   2
ATOM      2  C   UNL     1      -6.464  -0.738   0.510  0.00  0.00    +0.185 A 
ATOM      3  N   UNL     1      -6.453  -2.053   0.504  0.00  0.00    -0.201 NA
ATOM      4  H   UNL     1      -8.063   0.586   0.677  0.00  0.00    +0.191 HD
ATOM      5  C   UNL     1      -7.707  -2.515   0.621  0.00  0.00    +0.186 A 
ATOM      6  N   UNL     1      -8.530  -1.494   0.704  0.00  0.00    -0.151 NA
ATOM      7  N   UNL     1      -7.746  -0.331   0.639  0.00  0.00    -0.253 N 
BRANCH   5   8
ATOM      8  C   UNL     1      -8.100  -3.945   0.653  0.00  0.00    +0.063 A 
ATOM      9  C   UNL     1      -7.128  -4.939   0.562  0.00  0.00    +0.030 A 
ATOM     10  C   UNL     1      -7.500  -6.269   0.593  0.00  0.00    +0.019 A 
ATOM     11  C   UNL     1      -8.834  -6.617   0.713  0.00  0.00    +0.019 A 
ATOM     12  C   UNL     1      -9.805  -5.638   0.803  0.00  0.00    +0.047 A 
ATOM     13  C   UNL     1      -9.446  -4.300   0.780  0.00  0.00    +0.128 A 
ATOM     14 BR   UNL     1      -6.181  -7.618   0.470  0.00  0.00    -0.050 Br
BRANCH  13  15
ATOM     15  O   UNL     1     -10.399  -3.337   0.874  0.00  0.00    -0.506 OA
ATOM     16  H   UNL     1     -10.758  -3.054   0.022  0.00  0.00    +0.292 HD
ENDBRANCH  13  15
ENDBRANCH   5   8
ENDBRANCH   1   2
BRANCH   1  17
ATOM     17  C   UNL     1      -3.661  -0.845   0.242  0.00  0.00    +0.173 C 
BRANCH  17  19
ATOM     18  N   UNL     1      -1.201  -0.721   0.008  0.00  0.00    -0.285 N 
ATOM     19  C   UNL     1      -2.375  -0.068   0.122  0.00  0.00    +0.227 C 
ATOM     20  O   UNL     1      -2.396   1.145   0.129  0.00  0.00    -0.275 OA
ATOM     21  H   UNL     1      -1.190  -1.688  -0.075  0.00  0.00    +0.155 HD
BRANCH  18  27
ATOM     22  C   UNL     1       0.120   1.155   0.762  0.00  0.00    +0.027 A 
ATOM     23  C   UNL     1       1.307   1.863   0.761  0.00  0.00    +0.051 A 
ATOM     24  C   UNL     1       2.383   1.419   0.007  0.00  0.00    +0.162 A 
ATOM     25  C   UNL     1       2.268   0.257  -0.747  0.00  0.00    +0.164 A 
ATOM     26  C   UNL     1       1.077  -0.453  -0.747  0.00  0.00    +0.072 A 
ATOM     27  C   UNL     1       0.002  -0.004   0.008  0.00  0.00    +0.037 A 
ATOM     28  O   UNL     1       3.316  -0.199  -1.487  0.00  0.00    -0.485 OA
ATOM     29  C   UNL     1       4.367   0.734  -1.758  0.00  0.00    +0.270 C 
ATOM     30  C   UNL     1       4.716   1.458  -0.451  0.00  0.00    +0.270 C 
ATOM     31  O   UNL     1       3.542   2.132   0.016  0.00  0.00    -0.485 OA
ENDBRANCH  18  27
ENDBRANCH  17  19
ENDBRANCH   1  17
TORSDOF 6
