REMARK  Name = ZINC11662259
REMARK  9 active torsions:
REMARK  status: ('A' for Active; 'I' for Inactive)
REMARK    1  A    between atoms: C_1  and  C_2
REMARK    2  A    between atoms: C_2  and  C_3
REMARK    3  A    between atoms: C_2  and  C_4
REMARK    4  A    between atoms: C_2  and  C_5
REMARK    5  A    between atoms: C_5  and  N_6
REMARK    6  A    between atoms: C_10  and  C_13
REMARK    7  A    between atoms: C_10  and  O_21
REMARK    8  A    between atoms: C_13  and  N_55
REMARK    9  A    between atoms: C_14  and  N_55
REMARK                            x       y       z     vdW  Elec       q    Type
REMARK                         _______ _______ _______ _____ _____    ______ ____
ROOT
ATOM      1  N   UNL     1       1.975   1.677   3.579  0.00  0.00    -0.299 N 
ATOM      2  C   UNL     1       3.401   1.950   3.704  0.00  0.00    +0.108 C 
ATOM      3  C   UNL     1       4.177   1.272   2.574  0.00  0.00    +0.022 C 
ATOM      4  C   UNL     1       3.519   1.639   1.238  0.00  0.00    +0.044 C 
ATOM      5  C   UNL     1       2.136   0.985   1.184  0.00  0.00    +0.127 C 
ATOM      6  C   UNL     1       1.388   1.265   2.455  0.00  0.00    +0.245 C 
ATOM      7  O   UNL     1       0.185   1.108   2.460  0.00  0.00    -0.273 OA
ENDROOT
BRANCH   5   8
ATOM      8  O   UNL     1       2.288  -0.427   1.023  0.00  0.00    -0.381 OA
ATOM      9  H   UNL     1       1.451  -0.910   0.977  0.00  0.00    +0.211 HD
ENDBRANCH   5   8
BRANCH   1  10
ATOM     10  C   UNL     1       1.134   1.866   4.764  0.00  0.00    +0.114 C 
BRANCH  10  12
ATOM     11  C   UNL     1       2.482   0.160   5.994  0.00  0.00    +0.012 C 
ATOM     12  C   UNL     1       1.071   0.560   5.559  0.00  0.00    -0.022 C 
ATOM     13  C   UNL     1       0.192   0.758   6.795  0.00  0.00    +0.012 C 
ATOM     14  C   UNL     1       0.475  -0.542   4.681  0.00  0.00    +0.012 C 
ENDBRANCH  10  12
ENDBRANCH   1  10
BRANCH   5  15
ATOM     15  C   UNL     1       1.353   1.550  -0.003  0.00  0.00    -0.037 C 
BRANCH  15  16
ATOM     16  N   UNL     1      -0.015   0.998   0.015  0.00  0.00    +0.383 N 
ATOM     17  H   UNL     1      -0.475   1.261   0.894  0.00  0.00    -0.085 HD
ATOM     18  H   UNL     1       0.032  -0.025  -0.054  0.00  0.00    -0.085 HD
BRANCH  16  19
ATOM     19  C   UNL     1      -0.795   1.527  -1.120  0.00  0.00    -0.072 C 
ATOM     20  C   UNL     1      -1.341   2.920  -0.746  0.00  0.00    -0.016 C 
ATOM     21  C   UNL     1      -1.685   3.655  -2.014  0.00  0.00    -0.002 C 
ATOM     22  C   UNL     1      -3.167   3.495  -2.404  0.00  0.00    -0.000 C 
ATOM     23  C   UNL     1      -3.685   2.058  -2.205  0.00  0.00    -0.000 C 
ATOM     24  C   UNL     1      -2.693   1.020  -2.654  0.00  0.00    -0.002 C 
ATOM     25  C   UNL     1      -1.857   0.582  -1.434  0.00  0.00    -0.016 C 
ENDBRANCH  16  19
ENDBRANCH  15  16
ENDBRANCH   5  15
TORSDOF 6
