REMARK  Name = ZINC39734270
REMARK  6 active torsions:
REMARK  status: ('A' for Active; 'I' for Inactive)
REMARK    1  A    between atoms: C_1  and  C_2
REMARK    2  A    between atoms: C_6  and  S_9
REMARK    3  A    between atoms: N_7  and  C_8
REMARK    4  A    between atoms: S_9  and  C_10
REMARK    5  A    between atoms: C_12  and  N_22
REMARK    6  A    between atoms: N_22  and  C_23
REMARK                            x       y       z     vdW  Elec       q    Type
REMARK                         _______ _______ _______ _____ _____    ______ ____
ROOT
ATOM      1  C   UNL     1      -1.470  -2.973   3.616  0.00  0.00    +0.183 C 
ATOM      2  C   UNL     1      -1.296  -3.792   4.879  0.00  0.00    +0.020 C 
ATOM      3  C   UNL     1      -2.062  -3.453   5.955  0.00  0.00    +0.013 A 
ATOM      4  C   UNL     1      -1.957  -4.192   7.214  0.00  0.00    +0.011 A 
ATOM      5  C   UNL     1      -2.740  -3.818   8.259  0.00  0.00    +0.001 A 
ATOM      6  C   UNL     1      -3.635  -2.753   8.152  0.00  0.00    +0.002 A 
ATOM      7  C   UNL     1      -3.779  -2.028   7.012  0.00  0.00    +0.024 A 
ATOM      8  C   UNL     1      -3.014  -2.332   5.871  0.00  0.00    +0.042 A 
ATOM      9  N   UNL     1      -3.164  -1.614   4.758  0.00  0.00    -0.284 N 
ATOM     10  C   UNL     1      -2.478  -1.846   3.652  0.00  0.00    +0.236 C 
ATOM     11  O   UNL     1      -2.658  -1.156   2.667  0.00  0.00    -0.274 OA
ATOM     12  H   UNL     1      -3.805  -0.887   4.760  0.00  0.00    +0.155 HD
ENDROOT
BRANCH   2  13
ATOM     13  N   UNL     1      -0.387  -4.853   4.939  0.00  0.00    -0.404 NA
ATOM     14  H   UNL     1       0.420  -4.637   4.373  0.00  0.00    +0.123 HD
ATOM     15  H   UNL     1      -0.098  -4.995   5.895  0.00  0.00    +0.123 HD
BRANCH  13  16
ATOM     16  C   UNL     1      -1.026  -6.075   4.434  0.00  0.00    +0.053 C 
ATOM     17  C   UNL     1      -1.204  -7.237   5.414  0.00  0.00    +0.022 C 
ATOM     18  C   UNL     1      -0.155  -7.326   4.303  0.00  0.00    +0.022 C 
ENDBRANCH  13  16
ENDBRANCH   2  13
BRANCH   1  19
ATOM     19  S   UNL     1       0.143  -2.262   3.187  0.00  0.00    -0.070 S 
BRANCH  19  24
ATOM     20  C   UNL     1       0.276   1.048  -0.525  0.00  0.00    +0.051 C 
ATOM     21  C   UNL     1       0.248  -0.477  -0.398  0.00  0.00    +0.173 C 
ATOM     22  N   UNL     1      -1.139  -0.961  -0.288  0.00  0.00    -0.247 N 
ATOM     23  N   UNL     1      -1.233  -1.597   0.955  0.00  0.00    -0.163 NA
ATOM     24  C   UNL     1      -0.111  -1.560   1.591  0.00  0.00    +0.176 C 
ATOM     25  N   UNL     1       0.875  -0.902   0.865  0.00  0.00    -0.292 N 
ATOM     26  C   UNL     1       2.264  -0.673   1.273  0.00  0.00    +0.133 C 
ATOM     27  H   UNL     1      -1.846  -0.858  -0.945  0.00  0.00    +0.170 HD
ENDBRANCH  19  24
ENDBRANCH   1  19
TORSDOF 4
