REMARK  Name = ZINC05689181
REMARK  6 active torsions:
REMARK  status: ('A' for Active; 'I' for Inactive)
REMARK    1  A    between atoms: C_1  and  N_39
REMARK    2  A    between atoms: C_2  and  N_39
REMARK    3  A    between atoms: C_3  and  C_4
REMARK    4  A    between atoms: C_3  and  N_39
REMARK    5  A    between atoms: C_10  and  O_21
REMARK    6  A    between atoms: C_11  and  C_15
REMARK                            x       y       z     vdW  Elec       q    Type
REMARK                         _______ _______ _______ _____ _____    ______ ____
ROOT
ATOM      1  C   UNL     1      -0.718   1.572   1.248  0.00  0.00    +0.026 A 
ATOM      2  C   UNL     1      -1.731   0.802   1.826  0.00  0.00    +0.184 A 
ATOM      3  O   UNL     1      -2.072  -0.365   1.277  0.00  0.00    -0.288 OA
ATOM      4  C   UNL     1      -2.393   1.251   2.985  0.00  0.00    +0.052 A 
ATOM      5  C   UNL     1      -2.054   2.437   3.552  0.00  0.00    +0.019 A 
ATOM      6  C   UNL     1      -1.036   3.223   2.981  0.00  0.00    +0.060 A 
ATOM      7  C   UNL     1      -0.669   4.458   3.555  0.00  0.00    +0.138 A 
ATOM      8  C   UNL     1       0.372   5.193   2.944  0.00  0.00    +0.059 A 
ATOM      9  C   UNL     1       0.979   4.700   1.814  0.00  0.00    +0.207 A 
ATOM     10  O   UNL     1       0.617   3.531   1.279  0.00  0.00    -0.462 OA
ATOM     11  C   UNL     1      -0.362   2.778   1.821  0.00  0.00    +0.143 A 
ENDROOT
BRANCH   8  12
ATOM     12  C   UNL     1       0.798   6.496   3.513  0.00  0.00    -0.011 A 
ATOM     13  C   UNL     1      -0.150   7.471   3.815  0.00  0.00    +0.009 A 
ATOM     14  C   UNL     1       0.252   8.679   4.348  0.00  0.00    +0.001 A 
ATOM     15  C   UNL     1       1.595   8.927   4.572  0.00  0.00    +0.000 A 
ATOM     16  C   UNL     1       2.540   7.964   4.269  0.00  0.00    +0.001 A 
ATOM     17  C   UNL     1       2.149   6.751   3.741  0.00  0.00    +0.009 A 
ENDBRANCH   8  12
BRANCH   7  18
ATOM     18  O   UNL     1      -1.283   4.918   4.665  0.00  0.00    -0.505 OA
ATOM     19  H   UNL     1      -0.864   4.640   5.491  0.00  0.00    +0.292 HD
ENDBRANCH   7  18
BRANCH   1  20
ATOM     20  C   UNL     1      -0.013   1.086   0.008  0.00  0.00    -0.036 C 
BRANCH  20  23
ATOM     21  C   UNL     1      -0.640   3.036  -1.283  0.00  0.00    -0.096 C 
ATOM     22  C   UNL     1      -0.211   0.930  -2.400  0.00  0.00    -0.096 C 
ATOM     23  N   UNL     1      -0.751   1.565  -1.179  0.00  0.00    +0.379 N 
ATOM     24  H   UNL     1      -1.741   1.312  -1.081  0.00  0.00    -0.082 HD
ENDBRANCH  20  23
ENDBRANCH   1  20
TORSDOF 4
