REMARK  Name = ZINC44175364
REMARK  6 active torsions:
REMARK  status: ('A' for Active; 'I' for Inactive)
REMARK    1  A    between atoms: C_1  and  N_2
REMARK    2  A    between atoms: C_4  and  C_7
REMARK    3  A    between atoms: C_7  and  N_8
REMARK    4  A    between atoms: N_8  and  C_9
REMARK    5  A    between atoms: N_8  and  C_10
REMARK    6  A    between atoms: C_16  and  O_18
REMARK                            x       y       z     vdW  Elec       q    Type
REMARK                         _______ _______ _______ _____ _____    ______ ____
ROOT
ATOM      1  C   UNL     1       1.442  -4.931  -2.619  0.00  0.00    -0.034 C 
ATOM      2  C   UNL     1       0.777  -6.036  -1.795  0.00  0.00    +0.052 C 
ATOM      3  C   UNL     1       0.798  -7.344  -2.587  0.00  0.00    +0.169 C 
ATOM      4  C   UNL     1       2.242  -7.738  -2.901  0.00  0.00    +0.067 C 
ATOM      5  C   UNL     1       2.905  -6.630  -3.723  0.00  0.00    +0.035 C 
ATOM      6  C   UNL     1       2.889  -5.325  -2.926  0.00  0.00    +0.101 C 
ATOM      7  O   UNL     1       0.073  -7.170  -3.816  0.00  0.00    -0.346 OA
ATOM      8  C   UNL     1      -0.585  -8.440  -4.040  0.00  0.00    +0.191 C 
ATOM      9  C   UNL     1      -0.946  -8.867  -2.595  0.00  0.00    +0.191 C 
ATOM     10  O   UNL     1       0.171  -8.382  -1.823  0.00  0.00    -0.346 OA
ENDROOT
BRANCH   1  11
ATOM     11  N   UNL     1       1.428  -3.676  -1.856  0.00  0.00    +0.384 N 
ATOM     12  C   UNL     1       2.066  -2.615  -2.647  0.00  0.00    -0.095 C 
ATOM     13  H   UNL     1       1.933  -3.801  -0.992  0.00  0.00    -0.081 HD
BRANCH  11  14
ATOM     14  C   UNL     1       0.039  -3.298  -1.561  0.00  0.00    -0.040 C 
BRANCH  14  18
ATOM     15  C   UNL     1      -0.018   1.461   0.010  0.00  0.00    +0.172 C 
ATOM     16  N   UNL     1       0.002  -0.004   0.002  0.00  0.00    -0.274 N 
ATOM     17  C   UNL     1       0.008  -0.792  -1.094  0.00  0.00    +0.109 A 
ATOM     18  C   UNL     1       0.027  -2.079  -0.676  0.00  0.00    -0.026 A 
ATOM     19  C   UNL     1       0.034  -2.078   0.723  0.00  0.00    +0.136 A 
ATOM     20  N   UNL     1       0.025  -0.834   1.130  0.00  0.00    -0.180 NA
ENDBRANCH  14  18
ENDBRANCH  11  14
ENDBRANCH   1  11
BRANCH   6  21
ATOM     21  O   UNL     1       3.603  -5.506  -1.701  0.00  0.00    -0.393 OA
ATOM     22  H   UNL     1       4.529  -5.757  -1.820  0.00  0.00    +0.210 HD
ENDBRANCH   6  21
TORSDOF 4
