REMARK  Name = ZINC21473161
REMARK  13 active torsions:
REMARK  status: ('A' for Active; 'I' for Inactive)
REMARK    1  A    between atoms: C_1  and  C_2
REMARK    2  A    between atoms: C_2  and  C_3
REMARK    3  A    between atoms: C_3  and  C_4
REMARK    4  A    between atoms: C_4  and  N_5
REMARK    5  A    between atoms: N_5  and  C_6
REMARK    6  A    between atoms: C_7  and  N_19
REMARK    7  A    between atoms: N_8  and  C_15
REMARK    8  A    between atoms: C_15  and  C_16
REMARK    9  A    between atoms: C_16  and  C_17
REMARK   10  A    between atoms: C_16  and  C_18
REMARK   11  A    between atoms: C_20  and  C_22
REMARK   12  A    between atoms: C_22  and  N_23
REMARK   13  A    between atoms: C_27  and  C_29
REMARK                            x       y       z     vdW  Elec       q    Type
REMARK                         _______ _______ _______ _____ _____    ______ ____
ROOT
ATOM      1  N   UNL     1       4.049   2.791  -4.347  0.00  0.00    -0.266 N 
ATOM      2  C   UNL     1       4.283   2.840  -3.019  0.00  0.00    +0.203 C 
ATOM      3  O   UNL     1       5.015   3.694  -2.564  0.00  0.00    -0.277 OA
ENDROOT
BRANCH   1   4
ATOM      4  C   UNL     1       4.576   3.789  -5.194  0.00  0.00    +0.140 A 
ATOM      5  C   UNL     1       4.181   5.105  -5.059  0.00  0.00    +0.127 A 
ATOM      6  N   UNL     1       4.718   6.056  -5.895  0.00  0.00    -0.280 N 
ATOM      7  C   UNL     1       5.607   5.707  -6.842  0.00  0.00    +0.331 A 
ATOM      8  O   UNL     1       6.066   6.562  -7.575  0.00  0.00    -0.246 OA
ATOM      9  N   UNL     1       5.999   4.429  -6.992  0.00  0.00    -0.273 N 
ATOM     10  H   UNL     1       6.727   4.165  -7.774  0.00  0.00    +0.173 HD
ATOM     11  C   UNL     1       5.509   3.459  -6.195  0.00  0.00    +0.277 A 
ATOM     12  O   UNL     1       5.871   2.304  -6.340  0.00  0.00    -0.266 OA
BRANCH   5  13
ATOM     13  N   UNL     1       3.268   5.461  -4.096  0.00  0.00    -0.343 N 
ATOM     14  H   UNL     1       2.958   6.511  -3.993  0.00  0.00    +0.144 HD
ATOM     15  H   UNL     1       2.847   4.696  -3.427  0.00  0.00    +0.144 HD
ENDBRANCH   5  13
BRANCH   6  16
ATOM     16  C   UNL     1       4.314   7.457  -5.758  0.00  0.00    +0.131 C 
BRANCH  16  17
ATOM     17  C   UNL     1       3.094   7.725  -6.642  0.00  0.00    +0.003 C 
ATOM     18  C   UNL     1       1.905   6.909  -6.131  0.00  0.00    +0.009 C 
ATOM     19  C   UNL     1       2.747   9.215  -6.595  0.00  0.00    +0.009 C 
ENDBRANCH  16  17
ENDBRANCH   6  16
ENDBRANCH   1   4
BRANCH   1  20
ATOM     20  C   UNL     1       3.247   1.702  -4.910  0.00  0.00    +0.114 C 
BRANCH  20  21
ATOM     21  C   UNL     1       1.785   2.140  -5.004  0.00  0.00    +0.019 C 
BRANCH  21  23
ATOM     22  C   UNL     1      -0.515   1.442  -5.686  0.00  0.00    +0.004 C 
ATOM     23  C   UNL     1       0.948   1.003  -5.592  0.00  0.00    -0.002 C 
ENDBRANCH  21  23
ENDBRANCH  20  21
ENDBRANCH   1  20
BRANCH   2  24
ATOM     24  C   UNL     1       3.636   1.835  -2.102  0.00  0.00    +0.020 C 
BRANCH  24  25
ATOM     25  N   UNL     1       4.047   2.100  -0.717  0.00  0.00    +0.390 N 
ATOM     26  C   UNL     1       5.448   1.665  -0.485  0.00  0.00    -0.077 C 
ATOM     27  C   UNL     1       5.553   1.493   1.046  0.00  0.00    -0.020 C 
ATOM     28  C   UNL     1       4.107   1.246   1.522  0.00  0.00    -0.012 C 
ATOM     29  C   UNL     1       3.249   1.289   0.239  0.00  0.00    -0.030 C 
ATOM     30  H   UNL     1       3.908   3.182  -0.576  0.00  0.00    -0.080 HD
BRANCH  29  31
ATOM     31  C   UNL     1       1.925   1.953   0.514  0.00  0.00    -0.024 A 
ATOM     32  C   UNL     1       0.710   1.385   0.713  0.00  0.00    +0.009 A 
ATOM     33  C   UNL     1      -0.381   2.201   0.947  0.00  0.00    +0.008 A 
ATOM     34  C   UNL     1      -0.202   3.544   0.981  0.00  0.00    +0.045 A 
ATOM     35  S   UNL     1       1.548   3.692   0.664  0.00  0.00    -0.103 S 
ENDBRANCH  29  31
ENDBRANCH  24  25
ENDBRANCH   2  24
TORSDOF 10
