REMARK  Name = ZINC63833846
REMARK  6 active torsions:
REMARK  status: ('A' for Active; 'I' for Inactive)
REMARK    1  A    between atoms: C_1  and  C_2
REMARK    2  A    between atoms: C_2  and  C_3
REMARK    3  A    between atoms: C_3  and  C_4
REMARK    4  A    between atoms: N_7  and  C_10
REMARK    5  A    between atoms: C_10  and  C_11
REMARK    6  A    between atoms: C_17  and  C_19
REMARK                            x       y       z     vdW  Elec       q    Type
REMARK                         _______ _______ _______ _____ _____    ______ ____
ROOT
ATOM      1  C   UNL     1      -3.874  -5.476   2.346  0.00  0.00    +0.005 C 
ATOM      2  C   UNL     1      -3.495  -6.642   1.430  0.00  0.00    +0.024 C 
ATOM      3  C   UNL     1      -3.515  -7.946   2.235  0.00  0.00    +0.108 C 
ATOM      4  N   UNL     1      -4.829  -8.085   2.876  0.00  0.00    -0.298 N 
ATOM      5  C   UNL     1      -5.331  -6.982   3.706  0.00  0.00    +0.108 C 
ATOM      6  C   UNL     1      -5.290  -5.689   2.885  0.00  0.00    +0.024 C 
ATOM      7  C   UNL     1      -5.561  -9.204   2.706  0.00  0.00    +0.247 C 
ATOM      8  O   UNL     1      -6.605  -9.346   3.313  0.00  0.00    -0.270 OA
ENDROOT
BRANCH   7   9
ATOM      9  C   UNL     1      -5.096 -10.256   1.782  0.00  0.00    +0.037 C 
ATOM     10  C   UNL     1      -4.125 -11.164   2.189  0.00  0.00    +0.019 C 
ATOM     11  C   UNL     1      -3.804 -12.154   1.244  0.00  0.00    -0.017 C 
ATOM     12  C   UNL     1      -2.675 -12.839   0.994  0.00  0.00    +0.025 C 
ATOM     13  C   UNL     1      -2.824 -13.531  -0.284  0.00  0.00    +0.106 C 
ATOM     14  N   UNL     1      -4.027 -13.390  -0.759  0.00  0.00    -0.279 NA
ATOM     15  C   UNL     1      -4.803 -12.631   0.207  0.00  0.00    +0.158 C 
ATOM     16  C   UNL     1      -5.515 -11.432  -0.340  0.00  0.00    +0.005 C 
ATOM     17  C   UNL     1      -5.662 -10.354   0.429  0.00  0.00    +0.011 C 
ENDBRANCH   7   9
BRANCH   1  18
ATOM     18  C   UNL     1      -3.821  -4.168   1.554  0.00  0.00    +0.072 C 
BRANCH  18  21
ATOM     19  C   UNL     1      -0.907  -2.225   0.444  0.00  0.00    +0.053 C 
ATOM     20  C   UNL     1      -2.365  -2.701   0.263  0.00  0.00    +0.086 C 
ATOM     21  N   UNL     1      -2.438  -3.903   1.138  0.00  0.00    -0.334 NA
ATOM     22  N   UNL     1      -1.603  -3.530   2.289  0.00  0.00    +0.400 N 
ATOM     23  N   UNL     1      -0.464  -2.795   1.734  0.00  0.00    -0.345 NA
ATOM     24  H   UNL     1      -2.125  -2.940   2.920  0.00  0.00    -0.033 HD
ATOM     25  H   UNL     1       0.332  -3.402   1.606  0.00  0.00    +0.104 HD
ATOM     26  H   UNL     1      -1.283  -4.357   2.769  0.00  0.00    -0.033 HD
BRANCH  19  27
ATOM     27  C   UNL     1      -0.851  -0.696   0.493  0.00  0.00    +0.018 C 
BRANCH  27  29
ATOM     28  C   UNL     1       0.663   1.286   0.628  0.00  0.00    +0.004 C 
ATOM     29  C   UNL     1       0.608  -0.242   0.579  0.00  0.00    -0.002 C 
ENDBRANCH  27  29
ENDBRANCH  19  27
ENDBRANCH  18  21
ENDBRANCH   1  18
TORSDOF 5
