REMARK  Name = ZINC48927094
REMARK  8 active torsions:
REMARK  status: ('A' for Active; 'I' for Inactive)
REMARK    1  A    between atoms: C_1  and  C_2
REMARK    2  A    between atoms: C_2  and  C_20
REMARK    3  A    between atoms: C_11  and  N_19
REMARK    4  A    between atoms: C_12  and  O_14
REMARK    5  A    between atoms: O_14  and  C_15
REMARK    6  A    between atoms: C_15  and  C_16
REMARK    7  A    between atoms: C_15  and  C_17
REMARK    8  A    between atoms: C_15  and  C_18
REMARK                            x       y       z     vdW  Elec       q    Type
REMARK                         _______ _______ _______ _____ _____    ______ ____
ROOT
ATOM      1  C   UNL     1      -0.138   0.990   3.060  0.00  0.00    +0.034 C 
ATOM      2  C   UNL     1       0.571   0.942   1.705  0.00  0.00    +0.054 C 
ATOM      3  C   UNL     1      -0.282   1.655   0.650  0.00  0.00    +0.185 C 
ATOM      4  O   UNL     1      -1.477   0.904   0.424  0.00  0.00    -0.376 OA
ATOM      5  C   UNL     1      -1.253  -0.408  -0.100  0.00  0.00    +0.179 C 
ATOM      6  C   UNL     1      -0.450  -1.227   0.917  0.00  0.00    +0.135 C 
ATOM      7  N   UNL     1       0.749  -0.459   1.289  0.00  0.00    -0.305 N 
ATOM      8  C   UNL     1       2.014  -1.040   1.248  0.00  0.00    +0.126 A 
ATOM      9  C   UNL     1       2.726  -1.052   0.056  0.00  0.00    +0.046 A 
ATOM     10  C   UNL     1       3.984  -1.631   0.023  0.00  0.00    +0.031 A 
ATOM     11  C   UNL     1       4.491  -2.183   1.195  0.00  0.00    +0.087 A 
ATOM     12  C   UNL     1       3.722  -2.135   2.355  0.00  0.00    +0.238 A 
ATOM     13  N   UNL     1       2.527  -1.569   2.349  0.00  0.00    -0.196 NA
ATOM     14  C   UNL     1       1.936   1.624   1.814  0.00  0.00    +0.034 C 
ENDROOT
BRANCH  11  15
ATOM     15  N   UNL     1       5.761  -2.780   1.207  0.00  0.00    -0.354 N 
ATOM     16  H   UNL     1       6.291  -2.810   0.396  0.00  0.00    +0.142 HD
ATOM     17  H   UNL     1       6.109  -3.163   2.028  0.00  0.00    +0.142 HD
ENDBRANCH  11  15
BRANCH  12  18
ATOM     18  O   UNL     1       4.207  -2.671   3.505  0.00  0.00    -0.469 OA
BRANCH  18  19
ATOM     19  C   UNL     1       3.370  -2.591   4.661  0.00  0.00    +0.104 C 
ATOM     20  C   UNL     1       2.054  -3.322   4.389  0.00  0.00    +0.055 C 
ATOM     21  C   UNL     1       4.080  -3.243   5.849  0.00  0.00    +0.055 C 
ATOM     22  C   UNL     1       3.082  -1.123   4.981  0.00  0.00    +0.055 C 
ENDBRANCH  18  19
ENDBRANCH  12  18
TORSDOF 3
