REMARK  Name = ZINC39355878
REMARK  6 active torsions:
REMARK  status: ('A' for Active; 'I' for Inactive)
REMARK    1  A    between atoms: C_1  and  C_2
REMARK    2  A    between atoms: C_2  and  C_30
REMARK    3  A    between atoms: C_4  and  N_10
REMARK    4  A    between atoms: C_6  and  C_8
REMARK    5  A    between atoms: C_6  and  C_9
REMARK    6  A    between atoms: C_11  and  C_13
REMARK                            x       y       z     vdW  Elec       q    Type
REMARK                         _______ _______ _______ _____ _____    ______ ____
ROOT
ATOM      1  C   UNL     1       2.252  -4.091  -4.202  0.00  0.00    +0.078 C 
ATOM      2  C   UNL     1       1.599  -3.266  -5.313  0.00  0.00    +0.031 C 
ATOM      3  C   UNL     1       2.307  -3.554  -6.641  0.00  0.00    +0.107 C 
ATOM      4  N   UNL     1       2.295  -5.004  -6.878  0.00  0.00    -0.313 N 
ATOM      5  C   UNL     1       2.816  -5.896  -5.834  0.00  0.00    +0.107 C 
ATOM      6  C   UNL     1       2.102  -5.581  -4.515  0.00  0.00    +0.031 C 
ATOM      7  C   UNL     1       1.800  -5.521  -8.065  0.00  0.00    +0.152 A 
ATOM      8  C   UNL     1       2.640  -5.718  -9.162  0.00  0.00    +0.126 A 
ATOM      9  C   UNL     1       2.093  -6.245 -10.344  0.00  0.00    +0.184 A 
ATOM     10  N   UNL     1       3.099  -6.334 -11.234  0.00  0.00    -0.216 NA
ATOM     11  C   UNL     1       4.206  -5.908 -10.693  0.00  0.00    +0.199 A 
ATOM     12  N   UNL     1       3.980  -5.516  -9.419  0.00  0.00    -0.340 N 
ATOM     13  H   UNL     1       4.638  -5.161  -8.801  0.00  0.00    +0.167 HD
ATOM     14  N   UNL     1       0.788  -6.537 -10.371  0.00  0.00    -0.196 NA
ATOM     15  C   UNL     1       0.035  -6.335  -9.312  0.00  0.00    +0.226 A 
ATOM     16  N   UNL     1       0.515  -5.845  -8.182  0.00  0.00    -0.200 NA
ATOM     17 CL   UNL     1      -1.653  -6.730  -9.400  0.00  0.00    -0.041 Cl
ENDROOT
BRANCH   1  19
ATOM     18  N   UNL     1       1.583  -2.526  -2.407  0.00  0.00    -0.312 N 
ATOM     19  C   UNL     1       1.579  -3.784  -2.888  0.00  0.00    +0.216 C 
ATOM     20  O   UNL     1       1.035  -4.671  -2.264  0.00  0.00    -0.276 OA
ATOM     21  H   UNL     1       2.019  -1.817  -2.906  0.00  0.00    +0.149 HD
BRANCH  18  25
ATOM     22  C   UNL     1      -0.269   1.133   0.293  0.00  0.00    -0.010 C 
ATOM     23  C   UNL     1      -0.132  -0.406   0.233  0.00  0.00    -0.072 C 
ATOM     24  C   UNL     1       0.523  -0.753  -1.100  0.00  0.00    +0.009 C 
ATOM     25  C   UNL     1       0.929  -2.227  -1.127  0.00  0.00    +0.070 C 
ATOM     26  C   UNL     1       1.917  -2.470   0.014  0.00  0.00    +0.009 C 
ATOM     27  C   UNL     1       1.272  -2.137   1.355  0.00  0.00    -0.072 C 
ATOM     28  N   UNL     1       0.649  -0.826   1.384  0.00  0.00    +0.386 N 
ATOM     29  C   UNL     1       2.392  -2.149   2.421  0.00  0.00    -0.010 C 
ATOM     30  C   UNL     1       0.276  -3.236   1.738  0.00  0.00    -0.010 C 
ATOM     31  C   UNL     1      -1.549  -0.986   0.281  0.00  0.00    -0.010 C 
ATOM     32  H   UNL     1       1.381  -0.127   1.545  0.00  0.00    -0.084 HD
ATOM     33  H   UNL     1       0.051  -0.772   2.214  0.00  0.00    -0.084 HD
ENDBRANCH  18  25
ENDBRANCH   1  19
TORSDOF 2
