REMARK  Name = ZINC21959893
REMARK  13 active torsions:
REMARK  status: ('A' for Active; 'I' for Inactive)
REMARK    1  A    between atoms: C_1  and  C_2
REMARK    2  A    between atoms: C_2  and  N_3
REMARK    3  A    between atoms: N_3  and  C_4
REMARK    4  A    between atoms: N_3  and  C_6
REMARK    5  A    between atoms: C_4  and  C_5
REMARK    6  A    between atoms: C_6  and  C_7
REMARK    7  A    between atoms: C_10  and  C_13
REMARK    8  A    between atoms: C_13  and  N_14
REMARK    9  A    between atoms: C_15  and  C_17
REMARK   10  A    between atoms: C_17  and  N_18
REMARK   11  A    between atoms: C_23  and  C_30
REMARK   12  A    between atoms: C_26  and  C_28
REMARK   13  A    between atoms: C_26  and  C_29
REMARK                            x       y       z     vdW  Elec       q    Type
REMARK                         _______ _______ _______ _____ _____    ______ ____
ROOT
ATOM      1  N   UNL     1      -6.002  -3.889  -2.905  0.00  0.00    -0.310 N 
ATOM      2  C   UNL     1      -4.841  -3.404  -2.422  0.00  0.00    +0.231 C 
ATOM      3  O   UNL     1      -4.505  -2.267  -2.678  0.00  0.00    -0.274 OA
ATOM      4  H   UNL     1      -6.307  -4.920  -2.673  0.00  0.00    +0.149 HD
ENDROOT
BRANCH   1   5
ATOM      5  C   UNL     1      -6.858  -3.043  -3.741  0.00  0.00    +0.139 C 
BRANCH   5   9
ATOM      6  C   UNL     1     -10.337  -5.236  -4.897  0.00  0.00    -0.064 A 
ATOM      7  C   UNL     1     -10.344  -4.491  -3.732  0.00  0.00    +0.002 A 
ATOM      8  C   UNL     1      -9.218  -3.782  -3.358  0.00  0.00    +0.005 A 
ATOM      9  C   UNL     1      -8.085  -3.817  -4.149  0.00  0.00    -0.030 A 
ATOM     10  C   UNL     1      -8.079  -4.556  -5.316  0.00  0.00    +0.005 A 
ATOM     11  C   UNL     1      -9.203  -5.271  -5.687  0.00  0.00    +0.002 A 
BRANCH   6  12
ATOM     12  C   UNL     1     -11.564  -6.009  -5.304  0.00  0.00    -0.043 C 
BRANCH  12  13
ATOM     13  N   UNL     1     -12.422  -5.160  -6.142  0.00  0.00    +0.382 N 
ATOM     14  H   UNL     1     -12.588  -4.214  -5.606  0.00  0.00    -0.081 HD
BRANCH  13  16
ATOM     15  C   UNL     1     -11.576  -6.134  -8.224  0.00  0.00    -0.017 C 
ATOM     16  C   UNL     1     -11.766  -4.847  -7.419  0.00  0.00    -0.082 C 
ENDBRANCH  13  16
BRANCH  13  17
ATOM     17  C   UNL     1     -13.730  -5.790  -6.363  0.00  0.00    -0.082 C 
ATOM     18  C   UNL     1     -14.641  -4.822  -7.122  0.00  0.00    -0.017 C 
ENDBRANCH  13  17
ENDBRANCH  12  13
ENDBRANCH   6  12
ENDBRANCH   5   9
ENDBRANCH   1   5
BRANCH   2  19
ATOM     19  C   UNL     1      -3.961  -4.274  -1.562  0.00  0.00    +0.213 C 
BRANCH  19  20
ATOM     20  N   UNL     1      -2.768  -3.522  -1.166  0.00  0.00    -0.215 N 
ATOM     21  C   UNL     1      -2.682  -2.769  -0.049  0.00  0.00    +0.247 C 
ATOM     22  O   UNL     1      -3.544  -2.593   0.785  0.00  0.00    -0.273 OA
ATOM     23  C   UNL     1      -1.285  -2.192  -0.058  0.00  0.00    +0.113 C 
ATOM     24  C   UNL     1      -1.340  -0.669  -0.111  0.00  0.00    +0.038 C 
ATOM     25  C   UNL     1       0.083  -0.106  -0.147  0.00  0.00    -0.011 C 
ATOM     26  C   UNL     1       0.843  -0.562   1.100  0.00  0.00    +0.009 C 
ATOM     27  C   UNL     1       0.911  -2.091   1.126  0.00  0.00    -0.032 C 
ATOM     28  C   UNL     1      -0.509  -2.662   1.167  0.00  0.00    +0.041 C 
ATOM     29  C   UNL     1       1.626  -2.591  -0.131  0.00  0.00    +0.011 C 
ATOM     30  C   UNL     1       1.681  -2.546   2.367  0.00  0.00    +0.011 C 
ATOM     31  C   UNL     1       0.026   1.423  -0.179  0.00  0.00    +0.007 C 
ATOM     32  N   UNL     1      -0.685  -2.730  -1.285  0.00  0.00    -0.285 N 
ATOM     33  C   UNL     1      -1.628  -3.496  -1.866  0.00  0.00    +0.310 C 
ATOM     34  O   UNL     1      -1.462  -4.097  -2.910  0.00  0.00    -0.252 OA
ATOM     35  H   UNL     1       0.350  -2.469  -1.551  0.00  0.00    +0.151 HD
ENDBRANCH  19  20
ENDBRANCH   2  19
TORSDOF 8
