REMARK  Name = ZINC04478165
REMARK  5 active torsions:
REMARK  status: ('A' for Active; 'I' for Inactive)
REMARK    1  A    between atoms: C_1  and  N_2
REMARK    2  A    between atoms: N_4  and  S_5
REMARK    3  A    between atoms: S_5  and  C_8
REMARK    4  A    between atoms: N_10  and  N_11
REMARK    5  A    between atoms: N_11  and  C_12
REMARK                            x       y       z     vdW  Elec       q    Type
REMARK                         _______ _______ _______ _____ _____    ______ ____
ROOT
ATOM      1  C   UNL     1      -0.343   5.014   0.002  0.00  0.00    +0.155 C 
ATOM      2  N   UNL     1       0.383   3.747  -0.110  0.00  0.00    -0.235 N 
ATOM      3  C   UNL     1       1.715   3.630  -0.443  0.00  0.00    +0.189 C 
ATOM      4  N   UNL     1       2.538   4.608  -0.710  0.00  0.00    -0.115 NA
ATOM      5  C   UNL     1       2.037   2.185  -0.442  0.00  0.00    +0.163 C 
ATOM      6  N   UNL     1       3.195   1.627  -0.705  0.00  0.00    -0.176 NA
ATOM      7  C   UNL     1       0.774   1.504  -0.080  0.00  0.00    +0.137 C 
ATOM      8  H   UNL     1      -0.243  -0.226   0.279  0.00  0.00    +0.157 HD
ATOM      9  N   UNL     1      -0.176   2.486   0.100  0.00  0.00    -0.247 N 
ATOM     10  H   UNL     1      -1.102   2.324   0.340  0.00  0.00    +0.172 HD
ATOM     11  N   UNL     1       0.655   0.186   0.026  0.00  0.00    -0.384 N 
ATOM     12  H   UNL     1       1.467  -0.418  -0.146  0.00  0.00    +0.157 HD
ENDROOT
BRANCH   4  13
ATOM     13  S   UNL     1       1.952   6.136  -0.963  0.00  0.00    +0.068 S 
ATOM     14  O   UNL     1       1.059   6.005  -2.060  0.00  0.00    -0.152 OA
ATOM     15  O   UNL     1       1.480   6.559   0.309  0.00  0.00    -0.152 OA
ATOM     16  C   UNL     1       3.400   7.115  -1.449  0.00  0.00    +0.223 C 
ENDBRANCH   4  13
BRANCH   6  17
ATOM     17  N   UNL     1       4.212   2.362  -1.006  0.00  0.00    -0.237 N 
ATOM     18  H   UNL     1       4.120   3.327  -1.038  0.00  0.00    +0.174 HD
BRANCH  17  19
ATOM     19  C   UNL     1       5.443   1.768  -1.286  0.00  0.00    +0.050 A 
ATOM     20  C   UNL     1       5.578   0.386  -1.235  0.00  0.00    +0.025 A 
ATOM     21  C   UNL     1       6.796  -0.199  -1.517  0.00  0.00    +0.003 A 
ATOM     22  C   UNL     1       7.886   0.590  -1.840  0.00  0.00    +0.020 A 
ATOM     23  C   UNL     1       7.757   1.967  -1.887  0.00  0.00    +0.043 A 
ATOM     24  C   UNL     1       6.539   2.558  -1.611  0.00  0.00    +0.044 A 
ATOM     25 CL   UNL     1       9.127   2.953  -2.293  0.00  0.00    -0.083 Cl
ENDBRANCH  17  19
ENDBRANCH   6  17
TORSDOF 3
