REMARK  Name = ZINC50648828
REMARK  6 active torsions:
REMARK  status: ('A' for Active; 'I' for Inactive)
REMARK    1  A    between atoms: C_1  and  C_2
REMARK    2  A    between atoms: C_2  and  C_3
REMARK    3  A    between atoms: C_8  and  N_9
REMARK    4  A    between atoms: N_9  and  S_10
REMARK    5  A    between atoms: S_10  and  C_13
REMARK    6  A    between atoms: N_19  and  C_20
REMARK                            x       y       z     vdW  Elec       q    Type
REMARK                         _______ _______ _______ _____ _____    ______ ____
ROOT
ATOM      1  S   UNL     1       4.374   0.315  -0.274  0.00  0.00    +0.074 S 
ATOM      2  O   UNL     1       4.886   0.473   1.042  0.00  0.00    -0.150 OA
ATOM      3  O   UNL     1       5.016  -0.494  -1.250  0.00  0.00    -0.150 OA
ENDROOT
BRANCH   1   4
ATOM      4  C   UNL     1       4.250   1.932  -0.964  0.00  0.00    +0.124 A 
ATOM      5  C   UNL     1       4.257   2.109  -2.341  0.00  0.00    +0.033 A 
ATOM      6  C   UNL     1       4.158   3.395  -2.841  0.00  0.00    +0.043 A 
ATOM      7  C   UNL     1       4.055   4.461  -1.953  0.00  0.00    +0.096 A 
ATOM      8  N   UNL     1       4.051   4.250  -0.645  0.00  0.00    -0.348 N 
ATOM      9  C   UNL     1       4.139   3.034  -0.140  0.00  0.00    +0.113 A 
ATOM     10  N   UNL     1       3.955   5.758  -2.442  0.00  0.00    -0.334 N 
ATOM     11  C   UNL     1       3.959   5.998  -3.887  0.00  0.00    +0.127 C 
ATOM     12  H   UNL     1       3.883   6.504  -1.826  0.00  0.00    +0.147 HD
ATOM     13  H   UNL     1       3.979   5.008  -0.044  0.00  0.00    +0.167 HD
ENDBRANCH   1   4
BRANCH   1  14
ATOM     14  N   UNL     1       2.832  -0.269  -0.115  0.00  0.00    -0.216 N 
ATOM     15  H   UNL     1       2.492  -0.509   0.761  0.00  0.00    +0.174 HD
BRANCH  14  21
ATOM     16  C   UNL     1       0.655  -0.183  -1.153  0.00  0.00    -0.025 A 
ATOM     17  C   UNL     1      -0.143  -0.324  -2.271  0.00  0.00    +0.005 A 
ATOM     18  C   UNL     1       0.415  -0.703  -3.478  0.00  0.00    +0.000 A 
ATOM     19  C   UNL     1       1.775  -0.941  -3.569  0.00  0.00    +0.002 A 
ATOM     20  C   UNL     1       2.579  -0.802  -2.455  0.00  0.00    +0.025 A 
ATOM     21  C   UNL     1       2.021  -0.416  -1.243  0.00  0.00    +0.051 A 
BRANCH  16  23
ATOM     22  C   UNL     1       0.166   1.746   0.327  0.00  0.00    +0.009 C 
ATOM     23  C   UNL     1       0.045   0.230   0.162  0.00  0.00    +0.033 C 
ENDBRANCH  16  23
ENDBRANCH  14  21
ENDBRANCH   1  14
TORSDOF 4
