REMARK  Name = ZINC06058873
REMARK  2 active torsions:
REMARK  status: ('A' for Active; 'I' for Inactive)
REMARK    1  A    between atoms: C_6  and  C_7
REMARK    2  A    between atoms: C_9  and  C_23
REMARK                            x       y       z     vdW  Elec       q    Type
REMARK                         _______ _______ _______ _____ _____    ______ ____
ROOT
ATOM      1  C   UNL     1      -1.271  -0.765   0.011  0.00  0.00    +0.094 A 
ATOM      2  C   UNL     1      -1.396  -2.170   0.010  0.00  0.00    +0.062 A 
ATOM      3  C   UNL     1      -2.712  -2.470   0.019  0.00  0.00    +0.151 A 
ATOM      4  N   UNL     1      -3.406  -1.299   0.026  0.00  0.00    -0.192 N 
ATOM      5  N   UNL     1      -2.481  -0.247   0.026  0.00  0.00    -0.163 NA
ATOM      6  C   UNL     1      -4.789  -1.170   0.036  0.00  0.00    +0.272 C 
ATOM      7  N   UNL     1      -5.503  -2.246   0.045  0.00  0.00    -0.132 NA
ATOM      8  N   UNL     1      -6.876  -2.325  -0.058  0.00  0.00    -0.265 N 
ATOM      9  C   UNL     1      -7.747  -1.581   0.546  0.00  0.00    +0.094 C 
ATOM     10  N   UNL     1      -9.088  -1.792   0.327  0.00  0.00    -0.347 N 
ATOM     11  C   UNL     1      -7.309  -0.485   1.490  0.00  0.00    +0.146 C 
ATOM     12  C   UNL     1      -6.441   0.469   0.705  0.00  0.00    +0.143 A 
ATOM     13  N   UNL     1      -5.327   0.102   0.042  0.00  0.00    -0.181 N 
ATOM     14  N   UNL     1      -4.851   1.254  -0.593  0.00  0.00    -0.151 NA
ATOM     15  C   UNL     1      -5.654   2.230  -0.249  0.00  0.00    +0.245 A 
ATOM     16  N   UNL     1      -6.610   1.750   0.536  0.00  0.00    -0.218 NA
ATOM     17  H   UNL     1      -9.376  -2.494  -0.277  0.00  0.00    +0.143 HD
ATOM     18  H   UNL     1      -9.745  -1.239   0.777  0.00  0.00    +0.143 HD
ATOM     19  H   UNL     1      -7.227  -3.011  -0.647  0.00  0.00    +0.190 HD
ENDROOT
BRANCH   1  25
ATOM     20  C   UNL     1      -0.017   1.389   0.010  0.00  0.00    +0.013 A 
ATOM     21  C   UNL     1       1.170   2.094   0.002  0.00  0.00    +0.039 A 
ATOM     22  C   UNL     1       2.379   1.417  -0.013  0.00  0.00    +0.123 A 
ATOM     23  C   UNL     1       2.402   0.032  -0.021  0.00  0.00    +0.039 A 
ATOM     24  C   UNL     1       1.221  -0.680  -0.013  0.00  0.00    +0.013 A 
ATOM     25  C   UNL     1       0.002  -0.004   0.002  0.00  0.00    +0.002 A 
ATOM     26  F   UNL     1       3.538   2.110  -0.022  0.00  0.00    -0.205 F 
ENDBRANCH   1  25
BRANCH   3  27
ATOM     27  C   UNL     1      -3.307  -3.854   0.022  0.00  0.00    +0.434 C 
ATOM     28  F   UNL     1      -2.283  -4.801   0.128  0.00  0.00    -0.164 F 
ATOM     29  F   UNL     1      -4.179  -3.986   1.108  0.00  0.00    -0.164 F 
ATOM     30  F   UNL     1      -4.012  -4.061  -1.169  0.00  0.00    -0.164 F 
ENDBRANCH   3  27
TORSDOF 2
