REMARK  Name = ZINC55029185
REMARK  10 active torsions:
REMARK  status: ('A' for Active; 'I' for Inactive)
REMARK    1  A    between atoms: C_1  and  C_2
REMARK    2  A    between atoms: C_2  and  C_3
REMARK    3  A    between atoms: C_3  and  C_4
REMARK    4  A    between atoms: C_4  and  C_6
REMARK    5  A    between atoms: C_4  and  N_7
REMARK    6  A    between atoms: C_8  and  C_10
REMARK    7  A    between atoms: C_10  and  C_12
REMARK    8  A    between atoms: C_10  and  N_13
REMARK    9  A    between atoms: C_16  and  N_19
REMARK   10  A    between atoms: N_22  and  C_23
REMARK                            x       y       z     vdW  Elec       q    Type
REMARK                         _______ _______ _______ _____ _____    ______ ____
ROOT
ATOM      1  N   UNL     1      -2.436  -5.586   0.338  0.00  0.00    +0.387 N 
ATOM      2  C   UNL     1      -1.581  -6.573   1.008  0.00  0.00    -0.076 C 
ATOM      3  C   UNL     1      -1.630  -7.899   0.246  0.00  0.00    +0.004 C 
ATOM      4  C   UNL     1      -3.073  -8.409   0.213  0.00  0.00    +0.071 C 
ATOM      5  C   UNL     1      -3.968  -7.341  -0.421  0.00  0.00    +0.004 C 
ATOM      6  C   UNL     1      -3.833  -6.036   0.366  0.00  0.00    -0.076 C 
ATOM      7  H   UNL     1      -2.137  -5.481  -0.620  0.00  0.00    -0.081 HD
ENDROOT
BRANCH   4   8
ATOM      8  N   UNL     1      -3.140  -9.639  -0.580  0.00  0.00    -0.297 N 
ATOM      9  C   UNL     1      -4.126 -10.531  -0.359  0.00  0.00    +0.300 C 
ATOM     10  O   UNL     1      -4.960 -10.315   0.498  0.00  0.00    -0.253 OA
ATOM     11  N   UNL     1      -4.187 -11.662  -1.090  0.00  0.00    -0.297 N 
ATOM     12  H   UNL     1      -2.474  -9.811  -1.264  0.00  0.00    +0.151 HD
ATOM     13  H   UNL     1      -3.522 -11.835  -1.774  0.00  0.00    +0.151 HD
BRANCH  11  14
ATOM     14  C   UNL     1      -5.259 -12.632  -0.850  0.00  0.00    +0.074 C 
ATOM     15  C   UNL     1      -6.502 -12.225  -1.645  0.00  0.00    +0.022 C 
ATOM     16  C   UNL     1      -7.621 -13.238  -1.394  0.00  0.00    +0.002 C 
ATOM     17  C   UNL     1      -7.162 -14.627  -1.841  0.00  0.00    +0.000 C 
ATOM     18  C   UNL     1      -5.919 -15.033  -1.046  0.00  0.00    +0.002 C 
ATOM     19  C   UNL     1      -4.800 -14.021  -1.296  0.00  0.00    +0.022 C 
ENDBRANCH  11  14
ENDBRANCH   4   8
BRANCH   1  20
ATOM     20  C   UNL     1      -2.325  -4.294   1.028  0.00  0.00    +0.016 C 
ATOM     21  C   UNL     1      -3.252  -3.277   0.359  0.00  0.00    -0.004 C 
BRANCH  20  23
ATOM     22  N   UNL     1      -0.417  -2.989   1.908  0.00  0.00    -0.314 N 
ATOM     23  C   UNL     1      -0.902  -3.804   0.950  0.00  0.00    +0.199 C 
ATOM     24  O   UNL     1      -0.193  -4.143   0.026  0.00  0.00    -0.278 OA
ATOM     25  H   UNL     1      -0.984  -2.718   2.647  0.00  0.00    +0.149 HD
BRANCH  22  26
ATOM     26  C   UNL     1       0.966  -2.512   1.832  0.00  0.00    +0.070 C 
ATOM     27  C   UNL     1       1.899  -3.554   2.452  0.00  0.00    +0.028 C 
BRANCH  26  28
ATOM     28  C   UNL     1       1.093  -1.194   2.598  0.00  0.00    +0.022 C 
BRANCH  28  30
ATOM     29  C   UNL     1       0.384   1.201   2.669  0.00  0.00    +0.004 C 
ATOM     30  C   UNL     1       0.256  -0.118   1.904  0.00  0.00    -0.002 C 
ENDBRANCH  28  30
ENDBRANCH  26  28
ENDBRANCH  22  26
ENDBRANCH  20  23
ENDBRANCH   1  20
TORSDOF 7
