REMARK  Name = ZINC31993887
REMARK  7 active torsions:
REMARK  status: ('A' for Active; 'I' for Inactive)
REMARK    1  A    between atoms: C_1  and  N_2
REMARK    2  A    between atoms: N_2  and  C_3
REMARK    3  A    between atoms: N_2  and  C_4
REMARK    4  A    between atoms: C_10  and  O_12
REMARK    5  A    between atoms: O_12  and  C_13
REMARK    6  A    between atoms: C_16  and  N_20
REMARK    7  A    between atoms: C_18  and  N_19
REMARK                            x       y       z     vdW  Elec       q    Type
REMARK                         _______ _______ _______ _____ _____    ______ ____
ROOT
ATOM      1  C   UNL     1      -3.720   3.296   0.039  0.00  0.00    +0.141 A 
ATOM      2  C   UNL     1      -2.536   3.980   0.257  0.00  0.00    +0.050 A 
ATOM      3  C   UNL     1      -1.333   3.299   0.254  0.00  0.00    +0.036 A 
ATOM      4  C   UNL     1      -1.306   1.936   0.024  0.00  0.00    +0.128 A 
ATOM      5  C   UNL     1      -2.484   1.246  -0.194  0.00  0.00    +0.059 A 
ATOM      6  C   UNL     1      -3.695   1.922  -0.187  0.00  0.00    +0.069 A 
ENDROOT
BRANCH   6   7
ATOM      7  N   UNL     1      -4.889   1.225  -0.408  0.00  0.00    -0.355 N 
ATOM      8  H   UNL     1      -4.868   0.140  -0.587  0.00  0.00    +0.142 HD
ATOM      9  H   UNL     1      -5.849   1.763  -0.403  0.00  0.00    +0.142 HD
ENDBRANCH   6   7
BRANCH   4  10
ATOM     10  N   UNL     1      -0.015   1.213   0.016  0.00  0.00    +0.056 N 
ATOM     11  O   UNL     1       0.009   0.011  -0.182  0.00  0.00    -0.126 OA
ATOM     12  O   UNL     1       1.024   1.821   0.203  0.00  0.00    -0.126 OA
ENDBRANCH   4  10
BRANCH   1  13
ATOM     13  O   UNL     1      -4.905   3.964   0.047  0.00  0.00    -0.489 OA
BRANCH  13  19
ATOM     14  C   UNL     1      -6.108   6.002  -0.444  0.00  0.00    -0.028 C 
ATOM     15  C   UNL     1      -6.045   7.526  -0.317  0.00  0.00    -0.012 C 
ATOM     16  C   UNL     1      -5.953   7.911   1.161  0.00  0.00    -0.001 C 
ATOM     17  C   UNL     1      -4.691   7.296   1.770  0.00  0.00    +0.003 C 
ATOM     18  C   UNL     1      -4.754   5.773   1.643  0.00  0.00    +0.043 C 
ATOM     19  C   UNL     1      -4.846   5.387   0.166  0.00  0.00    +0.160 C 
BRANCH  14  21
ATOM     20  C   UNL     1      -7.455   6.106  -2.453  0.00  0.00    -0.096 C 
ATOM     21  N   UNL     1      -6.196   5.632  -1.863  0.00  0.00    +0.380 N 
ATOM     22  C   UNL     1      -5.040   6.140  -2.613  0.00  0.00    -0.096 C 
ATOM     23  H   UNL     1      -6.185   4.534  -1.927  0.00  0.00    -0.082 HD
ENDBRANCH  14  21
ENDBRANCH  13  19
ENDBRANCH   1  13
TORSDOF 5
