REMARK  Name = ZINC52005498
REMARK  6 active torsions:
REMARK  status: ('A' for Active; 'I' for Inactive)
REMARK    1  A    between atoms: C_1  and  N_2
REMARK    2  A    between atoms: C_4  and  S_11
REMARK    3  A    between atoms: N_7  and  C_10
REMARK    4  A    between atoms: S_11  and  N_14
REMARK    5  A    between atoms: N_14  and  C_15
REMARK    6  A    between atoms: C_21  and  O_23
REMARK                            x       y       z     vdW  Elec       q    Type
REMARK                         _______ _______ _______ _____ _____    ______ ____
ROOT
ATOM      1  S   UNL     1      -2.461  -2.713  -0.170  0.00  0.00    +0.065 S 
ATOM      2  O   UNL     1      -2.177  -3.678   0.834  0.00  0.00    -0.153 OA
ATOM      3  O   UNL     1      -3.445  -1.703   0.002  0.00  0.00    -0.153 OA
ENDROOT
BRANCH   1   7
ATOM      4  C   UNL     1       2.607  -2.029   0.476  0.00  0.00    +0.153 C 
ATOM      5  N   UNL     1       1.367  -1.615  -0.186  0.00  0.00    -0.301 N 
ATOM      6  C   UNL     1       0.198  -2.268   0.094  0.00  0.00    +0.124 A 
ATOM      7  C   UNL     1      -0.944  -1.886  -0.515  0.00  0.00    +0.186 A 
ATOM      8  C   UNL     1      -0.907  -0.812  -1.437  0.00  0.00    +0.283 A 
ATOM      9  O   UNL     1      -1.924  -0.449  -1.999  0.00  0.00    -0.265 OA
ATOM     10  N   UNL     1       0.266  -0.194  -1.686  0.00  0.00    -0.262 N 
ATOM     11  C   UNL     1       1.389  -0.592  -1.060  0.00  0.00    +0.332 A 
ATOM     12  O   UNL     1       2.438  -0.022  -1.291  0.00  0.00    -0.246 OA
ATOM     13  C   UNL     1       0.316   0.919  -2.638  0.00  0.00    +0.157 C 
ENDBRANCH   1   7
BRANCH   1  14
ATOM     14  N   UNL     1      -2.880  -3.557  -1.532  0.00  0.00    -0.184 NA
ATOM     15  H   UNL     1      -3.705  -3.347  -1.997  0.00  0.00    +0.148 HD
BRANCH  14  16
ATOM     16  C   UNL     1      -2.006  -4.619  -2.034  0.00  0.00    +0.105 C 
ATOM     17  C   UNL     1      -2.722  -5.966  -1.920  0.00  0.00    +0.023 C 
ATOM     18  C   UNL     1      -1.809  -7.076  -2.444  0.00  0.00    +0.002 C 
ATOM     19  C   UNL     1      -1.465  -6.803  -3.910  0.00  0.00    +0.003 C 
ATOM     20  C   UNL     1      -0.748  -5.456  -4.024  0.00  0.00    +0.033 C 
ATOM     21  C   UNL     1      -1.661  -4.346  -3.499  0.00  0.00    +0.133 C 
BRANCH  21  22
ATOM     22  O   UNL     1      -2.863  -4.314  -4.272  0.00  0.00    -0.390 OA
ATOM     23  H   UNL     1      -2.720  -4.145  -5.214  0.00  0.00    +0.210 HD
ENDBRANCH  21  22
ENDBRANCH  14  16
ENDBRANCH   1  14
TORSDOF 4
