REMARK  Name = ZINC33838865
REMARK  4 active torsions:
REMARK  status: ('A' for Active; 'I' for Inactive)
REMARK    1  A    between atoms: C_1  and  C_2
REMARK    2  A    between atoms: C_12  and  C_14
REMARK    3  A    between atoms: C_12  and  O_21
REMARK    4  A    between atoms: C_26  and  C_33
REMARK                            x       y       z     vdW  Elec       q    Type
REMARK                         _______ _______ _______ _____ _____    ______ ____
ROOT
ATOM      1  C   UNL     1       5.822  -1.215   3.588  0.00  0.00    +0.012 C 
ATOM      2  C   UNL     1       4.581  -2.038   3.238  0.00  0.00    +0.009 C 
ATOM      3  C   UNL     1       3.866  -1.401   2.047  0.00  0.00    +0.010 C 
ATOM      4  C   UNL     1       2.669  -0.593   2.541  0.00  0.00    +0.032 C 
ATOM      5  C   UNL     1       1.980   0.084   1.353  0.00  0.00    +0.125 C 
ATOM      6  C   UNL     1       2.817  -0.148   0.092  0.00  0.00    +0.076 C 
ATOM      7  C   UNL     1       2.076  -1.113  -0.841  0.00  0.00    +0.184 C 
ATOM      8  C   UNL     1       0.736  -0.498  -1.246  0.00  0.00    +0.111 C 
ATOM      9  C   UNL     1       0.002  -0.004   0.002  0.00  0.00    +0.190 C 
ATOM     10  O   UNL     1       0.679  -0.479   1.169  0.00  0.00    -0.344 OA
ATOM     11  O   UNL     1       2.885  -1.352  -2.021  0.00  0.00    -0.458 OA
ATOM     12  C   UNL     1       3.772  -2.365  -1.943  0.00  0.00    +0.332 C 
ATOM     13  O   UNL     1       3.776  -3.086  -0.965  0.00  0.00    -0.246 OA
ATOM     14  C   UNL     1       4.734  -2.605  -3.027  0.00  0.00    +0.090 C 
ATOM     15  C   UNL     1       5.556  -3.649  -2.966  0.00  0.00    -0.066 C 
ATOM     16  C   UNL     1       5.482  -4.590  -1.791  0.00  0.00    +0.035 C 
ATOM     17  C   UNL     1       6.604  -4.292  -0.798  0.00  0.00    +0.031 C 
ATOM     18  C   UNL     1       6.601  -5.338   0.285  0.00  0.00    -0.027 C 
ATOM     19  C   UNL     1       6.198  -5.022   1.512  0.00  0.00    -0.005 C 
ATOM     20  C   UNL     1       5.775  -3.653   1.828  0.00  0.00    -0.004 C 
ATOM     21  C   UNL     1       4.993  -3.443   2.883  0.00  0.00    -0.024 C 
ATOM     22  C   UNL     1       6.554  -3.885  -4.067  0.00  0.00    +0.039 C 
ENDROOT
BRANCH   9  23
ATOM     23  C   UNL     1      -0.019   1.526   0.010  0.00  0.00    +0.143 C 
ATOM     24  C   UNL     1      -0.704   2.005   1.307  0.00  0.00    +0.106 C 
ATOM     25  S   UNL     1      -2.097   2.979   0.621  0.00  0.00    -0.066 S 
ATOM     26  C   UNL     1      -1.777   2.754  -1.116  0.00  0.00    +0.272 C 
ATOM     27  O   UNL     1      -2.420   3.204  -2.046  0.00  0.00    -0.263 OA
ATOM     28  N   UNL     1      -0.683   1.987  -1.186  0.00  0.00    -0.298 N 
ATOM     29  H   UNL     1      -0.290   1.709  -2.175  0.00  0.00    +0.150 HD
ENDBRANCH   9  23
BRANCH   9  30
ATOM     30  O   UNL     1      -1.338  -0.499  -0.005  0.00  0.00    -0.363 OA
ATOM     31  H   UNL     1      -2.023  -0.246   0.818  0.00  0.00    +0.213 HD
ENDBRANCH   9  30
TORSDOF 2
