REMARK  Name = ZINC66244268
REMARK  6 active torsions:
REMARK  status: ('A' for Active; 'I' for Inactive)
REMARK    1  A    between atoms: C_3  and  O_9
REMARK    2  A    between atoms: O_9  and  C_10
REMARK    3  A    between atoms: C_10  and  C_11
REMARK    4  A    between atoms: C_11  and  N_12
REMARK    5  A    between atoms: N_14  and  C_15
REMARK    6  A    between atoms: C_15  and  C_16
REMARK                            x       y       z     vdW  Elec       q    Type
REMARK                         _______ _______ _______ _____ _____    ______ ____
ROOT
ATOM      1  N   UNL     1       5.526   3.801  -1.284  0.00  0.00    -0.354 N 
ATOM      2  C   UNL     1       6.808   4.238  -1.522  0.00  0.00    +0.169 C 
ATOM      3  N   UNL     1       7.401   3.938  -2.643  0.00  0.00    -0.351 N 
ATOM      4  N   UNL     1       7.463   4.992  -0.577  0.00  0.00    -0.371 N 
ATOM      5  H   UNL     1       5.064   3.269  -1.950  0.00  0.00    +0.163 HD
ATOM      6  H   UNL     1       7.021   5.215   0.257  0.00  0.00    +0.159 HD
ATOM      7  H   UNL     1       8.367   5.301  -0.745  0.00  0.00    +0.159 HD
ATOM      8  H   UNL     1       8.305   4.247  -2.811  0.00  0.00    +0.163 HD
ENDROOT
BRANCH   1   9
ATOM      9  C   UNL     1       4.859   4.138  -0.024  0.00  0.00    +0.156 C 
BRANCH   9  10
ATOM     10  C   UNL     1       3.454   3.533  -0.013  0.00  0.00    +0.250 C 
BRANCH  10  11
ATOM     11  O   UNL     1       3.548   2.107  -0.021  0.00  0.00    -0.489 OA
BRANCH  11  14
ATOM     12  C   UNL     1      -0.017   1.378   0.010  0.00  0.00    +0.005 A 
ATOM     13  C   UNL     1       1.169   2.087   0.002  0.00  0.00    +0.047 A 
ATOM     14  C   UNL     1       2.381   1.411  -0.013  0.00  0.00    +0.140 A 
ATOM     15  C   UNL     1       2.399   0.023  -0.021  0.00  0.00    +0.101 A 
ATOM     16  C   UNL     1       1.209  -0.682  -0.013  0.00  0.00    +0.063 A 
ATOM     17  C   UNL     1       0.002  -0.004   0.002  0.00  0.00    +0.022 A 
ATOM     18 CL   UNL     1       1.229  -2.418  -0.023  0.00  0.00    -0.082 Cl
ATOM     19 CL   UNL     1       3.912  -0.826  -0.040  0.00  0.00    -0.078 Cl
ENDBRANCH  11  14
ENDBRANCH  10  11
ENDBRANCH   9  10
ENDBRANCH   1   9
BRANCH   3  20
ATOM     20  C   UNL     1       6.702   3.135  -3.649  0.00  0.00    +0.190 C 
BRANCH  20  21
ATOM     21  C   UNL     1       7.601   2.932  -4.842  0.00  0.00    +0.124 A 
ATOM     22  C   UNL     1       8.461   1.912  -5.014  0.00  0.00    +0.046 A 
ATOM     23  C   UNL     1       9.094   2.117  -6.262  0.00  0.00    +0.041 A 
ATOM     24  C   UNL     1       8.582   3.249  -6.777  0.00  0.00    +0.195 A 
ATOM     25  O   UNL     1       7.674   3.735  -5.916  0.00  0.00    -0.466 OA
ENDBRANCH  20  21
ENDBRANCH   3  20
TORSDOF 6
