REMARK  Name = ZINC62978079
REMARK  7 active torsions:
REMARK  status: ('A' for Active; 'I' for Inactive)
REMARK    1  A    between atoms: C_1  and  C_2
REMARK    2  A    between atoms: C_2  and  C_3
REMARK    3  A    between atoms: C_3  and  C_4
REMARK    4  A    between atoms: C_8  and  C_24
REMARK    5  A    between atoms: C_10  and  N_13
REMARK    6  A    between atoms: C_16  and  N_19
REMARK    7  A    between atoms: C_24  and  N_25
REMARK                            x       y       z     vdW  Elec       q    Type
REMARK                         _______ _______ _______ _____ _____    ______ ____
ROOT
ATOM      1  C   UNL     1       0.800  -2.026  -1.149  0.00  0.00    -0.009 C 
ATOM      2  C   UNL     1       1.710  -2.559  -0.040  0.00  0.00    +0.004 C 
ATOM      3  C   UNL     1       1.688  -4.089  -0.054  0.00  0.00    +0.003 C 
ATOM      4  C   UNL     1       2.186  -4.594  -1.409  0.00  0.00    -0.011 C 
ATOM      5  C   UNL     1       1.277  -4.061  -2.518  0.00  0.00    +0.058 C 
ATOM      6  C   UNL     1       1.299  -2.531  -2.505  0.00  0.00    +0.022 C 
ENDROOT
BRANCH   5   7
ATOM      7  N   UNL     1       1.755  -4.546  -3.820  0.00  0.00    -0.301 NA
ATOM      8  C   UNL     1       0.906  -4.031  -4.924  0.00  0.00    +0.083 C 
ATOM      9  C   UNL     1       1.817  -4.178  -6.169  0.00  0.00    +0.001 C 
ATOM     10  C   UNL     1       3.216  -3.820  -5.618  0.00  0.00    -0.053 C 
ATOM     11  C   UNL     1       3.122  -4.054  -4.099  0.00  0.00    +0.069 C 
BRANCH  10  12
ATOM     12  N   UNL     1       4.236  -4.696  -6.209  0.00  0.00    +0.382 N 
ATOM     13  C   UNL     1       4.337  -4.452  -7.670  0.00  0.00    -0.078 C 
ATOM     14  C   UNL     1       5.752  -4.978  -8.021  0.00  0.00    -0.020 C 
ATOM     15  C   UNL     1       6.590  -4.563  -6.790  0.00  0.00    -0.020 C 
ATOM     16  C   UNL     1       5.569  -4.374  -5.653  0.00  0.00    -0.078 C 
ATOM     17  H   UNL     1       4.010  -5.663  -6.031  0.00  0.00    -0.081 HD
ENDBRANCH  10  12
ENDBRANCH   5   7
BRANCH   1  18
ATOM     18  C   UNL     1       0.822  -0.496  -1.135  0.00  0.00    +0.003 C 
BRANCH  18  20
ATOM     19  C   UNL     1       0.230   1.541   0.185  0.00  0.00    +0.004 C 
ATOM     20  C   UNL     1       0.208   0.011   0.171  0.00  0.00    -0.003 C 
ENDBRANCH  18  20
ENDBRANCH   1  18
BRANCH   4  21
ATOM     21  C   UNL     1       2.164  -6.124  -1.423  0.00  0.00    -0.081 C 
BRANCH  21  22
ATOM     22  N   UNL     1       3.136  -6.636  -0.448  0.00  0.00    +0.378 N 
ATOM     23  H   UNL     1       2.894  -6.304   0.474  0.00  0.00    -0.090 HD
ATOM     24  H   UNL     1       3.122  -7.645  -0.457  0.00  0.00    -0.090 HD
ATOM     25  H   UNL     1       4.060  -6.311  -0.691  0.00  0.00    -0.090 HD
ENDBRANCH  21  22
ENDBRANCH   4  21
TORSDOF 6
