REMARK  Name = ZINC65382617
REMARK  6 active torsions:
REMARK  status: ('A' for Active; 'I' for Inactive)
REMARK    1  A    between atoms: C_11  and  C_13
REMARK    2  A    between atoms: C_13  and  C_14
REMARK    3  A    between atoms: C_14  and  N_15
REMARK    4  A    between atoms: N_15  and  C_16
REMARK    5  A    between atoms: C_16  and  C_17
REMARK    6  A    between atoms: C_17  and  N_18
REMARK                            x       y       z     vdW  Elec       q    Type
REMARK                         _______ _______ _______ _____ _____    ______ ____
ROOT
ATOM      1  C   UNL     1       5.510  -2.026   1.732  0.00  0.00    +0.077 C 
ENDROOT
BRANCH   1  12
ATOM      2  C   UNL     1      -0.017   1.375   0.010  0.00  0.00    +0.000 A 
ATOM      3  C   UNL     1       1.173   2.079   0.002  0.00  0.00    +0.000 A 
ATOM      4  C   UNL     1       2.372   1.396  -0.019  0.00  0.00    +0.005 A 
ATOM      5  C   UNL     1       2.392   0.008  -0.029  0.00  0.00    -0.027 A 
ATOM      6  C   UNL     1       1.208  -0.695  -0.011  0.00  0.00    -0.041 A 
ATOM      7  C   UNL     1       0.002  -0.004   0.002  0.00  0.00    +0.004 A 
ATOM      8  C   UNL     1       1.151  -2.200   0.010  0.00  0.00    +0.054 C 
ATOM      9  C   UNL     1       2.465  -2.801  -0.485  0.00  0.00    +0.113 C 
ATOM     10  N   UNL     1       3.568  -2.109   0.202  0.00  0.00    -0.297 N 
ATOM     11  C   UNL     1       3.735  -0.676  -0.066  0.00  0.00    +0.143 C 
ATOM     12  C   UNL     1       4.391  -2.765   1.044  0.00  0.00    +0.214 C 
ATOM     13  O   UNL     1       4.230  -3.950   1.248  0.00  0.00    -0.276 OA
ENDBRANCH   1  12
BRANCH   1  14
ATOM     14  C   UNL     1       6.287  -2.995   2.625  0.00  0.00    -0.073 C 
BRANCH  14  15
ATOM     15  N   UNL     1       7.378  -2.276   3.296  0.00  0.00    +0.380 N 
ATOM     16  H   UNL     1       7.999  -1.885   2.603  0.00  0.00    -0.086 HD
ATOM     17  H   UNL     1       6.994  -1.533   3.860  0.00  0.00    -0.086 HD
BRANCH  15  18
ATOM     18  C   UNL     1       8.124  -3.206   4.153  0.00  0.00    -0.063 C 
BRANCH  18  19
ATOM     19  C   UNL     1       9.261  -2.457   4.852  0.00  0.00    +0.092 C 
BRANCH  19  20
ATOM     20  N   UNL     1      10.005  -3.385   5.707  0.00  0.00    -0.269 N 
ATOM     21  C   UNL     1       9.575  -3.558   7.093  0.00  0.00    +0.114 C 
ATOM     22  C   UNL     1      10.146  -4.865   7.651  0.00  0.00    +0.060 C 
ATOM     23  C   UNL     1      11.639  -4.927   7.303  0.00  0.00    +0.235 C 
ATOM     24  O   UNL     1      11.767  -4.938   5.878  0.00  0.00    -0.450 OA
ATOM     25  C   UNL     1      11.047  -4.042   5.186  0.00  0.00    +0.403 C 
ATOM     26  O   UNL     1      11.358  -3.815   4.034  0.00  0.00    -0.226 OA
ENDBRANCH  19  20
ENDBRANCH  18  19
ENDBRANCH  15  18
ENDBRANCH  14  15
ENDBRANCH   1  14
TORSDOF 6
