REMARK  Name = ZINC13177143
REMARK  8 active torsions:
REMARK  status: ('A' for Active; 'I' for Inactive)
REMARK    1  A    between atoms: C_1  and  C_2
REMARK    2  A    between atoms: C_8  and  N_10
REMARK    3  A    between atoms: C_14  and  C_16
REMARK    4  A    between atoms: C_16  and  S_17
REMARK    5  A    between atoms: S_17  and  C_18
REMARK    6  A    between atoms: N_28  and  C_29
REMARK    7  A    between atoms: C_29  and  C_30
REMARK    8  A    between atoms: C_30  and  C_31
REMARK                            x       y       z     vdW  Elec       q    Type
REMARK                         _______ _______ _______ _____ _____    ______ ____
ROOT
ATOM      1  S   UNL     1      -0.837  -1.510  -8.482  0.00  0.00    -0.078 S 
ENDROOT
BRANCH   1   2
ATOM      2  C   UNL     1      -1.784  -0.712  -9.736  0.00  0.00    +0.173 A 
ATOM      3  N   UNL     1      -2.447   0.373  -9.423  0.00  0.00    -0.223 NA
ATOM      4  C   UNL     1      -3.190   1.038 -10.339  0.00  0.00    +0.080 A 
ATOM      5  C   UNL     1      -3.893   2.200 -10.008  0.00  0.00    +0.048 A 
ATOM      6  C   UNL     1      -4.641   2.839 -10.973  0.00  0.00    +0.043 A 
ATOM      7  C   UNL     1      -4.702   2.343 -12.271  0.00  0.00    +0.021 A 
ATOM      8  C   UNL     1      -4.022   1.210 -12.618  0.00  0.00    +0.017 A 
ATOM      9  C   UNL     1      -3.258   0.542 -11.662  0.00  0.00    +0.065 A 
ATOM     10  C   UNL     1      -2.509  -0.679 -11.983  0.00  0.00    +0.262 A 
ATOM     11  O   UNL     1      -2.529  -1.155 -13.103  0.00  0.00    -0.267 OA
ATOM     12  N   UNL     1      -1.796  -1.257 -10.989  0.00  0.00    -0.287 N 
ATOM     13 CL   UNL     1      -5.516   4.282 -10.564  0.00  0.00    -0.083 Cl
BRANCH  12  14
ATOM     14  C   UNL     1      -1.032  -2.478 -11.257  0.00  0.00    +0.138 C 
BRANCH  14  15
ATOM     15  C   UNL     1      -1.913  -3.700 -10.992  0.00  0.00    +0.147 C 
BRANCH  15  16
ATOM     16  C   UNL     1      -1.127  -4.956 -11.268  0.00  0.00    +0.358 C 
ATOM     17  O   UNL     1       0.021  -4.881 -11.639  0.00  0.00    -0.246 OA
ATOM     18  O   UNL     1      -1.702  -6.157 -11.102  0.00  0.00    -0.246 OA
ENDBRANCH  15  16
ENDBRANCH  14  15
ENDBRANCH  12  14
ENDBRANCH   1   2
BRANCH   1  19
ATOM     19  C   UNL     1      -1.169  -0.405  -7.088  0.00  0.00    +0.173 C 
BRANCH  19  24
ATOM     20  N   UNL     1       0.010  -0.012  -2.444  0.00  0.00    -0.296 N 
ATOM     21  C   UNL     1       0.111  -0.681  -3.609  0.00  0.00    +0.306 C 
ATOM     22  O   UNL     1       0.789  -1.687  -3.676  0.00  0.00    -0.252 OA
ATOM     23  N   UNL     1      -0.541  -0.235  -4.701  0.00  0.00    -0.239 N 
ATOM     24  C   UNL     1      -0.441  -0.904  -5.867  0.00  0.00    +0.231 C 
ATOM     25  O   UNL     1       0.237  -1.907  -5.933  0.00  0.00    -0.274 OA
ATOM     26  H   UNL     1      -0.532   0.791  -2.391  0.00  0.00    +0.151 HD
ATOM     27  H   UNL     1      -1.083   0.568  -4.648  0.00  0.00    +0.159 HD
BRANCH  20  34
ATOM     28  C   UNL     1      -1.433  -0.534   0.013  0.00  0.00    +0.009 C 
ATOM     29  C   UNL     1       0.002  -0.004   0.002  0.00  0.00    +0.006 C 
ATOM     30  C   UNL     1      -0.019   1.526   0.010  0.00  0.00    +0.005 C 
ATOM     31  C   UNL     1       1.417   2.055  -0.000  0.00  0.00    +0.000 C 
ATOM     32  C   UNL     1       2.133   1.562  -1.259  0.00  0.00    +0.002 C 
ATOM     33  C   UNL     1       2.154   0.032  -1.268  0.00  0.00    +0.022 C 
ATOM     34  C   UNL     1       0.718  -0.497  -1.257  0.00  0.00    +0.077 C 
ENDBRANCH  20  34
ENDBRANCH  19  24
ENDBRANCH   1  19
TORSDOF 7
