REMARK  Name = ZINC14241833
REMARK  9 active torsions:
REMARK  status: ('A' for Active; 'I' for Inactive)
REMARK    1  A    between atoms: C_1  and  C_2
REMARK    2  A    between atoms: C_5  and  N_9
REMARK    3  A    between atoms: C_6  and  O_8
REMARK    4  A    between atoms: C_10  and  C_12
REMARK    5  A    between atoms: C_12  and  C_13
REMARK    6  A    between atoms: C_13  and  C_14
REMARK    7  A    between atoms: C_13  and  C_20
REMARK    8  A    between atoms: C_13  and  O_24
REMARK    9  A    between atoms: C_17  and  C_19
REMARK                            x       y       z     vdW  Elec       q    Type
REMARK                         _______ _______ _______ _____ _____    ______ ____
ROOT
ATOM      1  C   UNL     1      -0.899   5.489   0.753  0.00  0.00    +0.148 C 
ENDROOT
BRANCH   1   3
ATOM      2  N   UNL     1      -1.177   7.917   1.136  0.00  0.00    -0.282 N 
ATOM      3  C   UNL     1      -1.693   6.766   0.659  0.00  0.00    +0.221 C 
ATOM      4  O   UNL     1      -2.796   6.760   0.155  0.00  0.00    -0.275 OA
ATOM      5  H   UNL     1      -0.323   7.912   1.596  0.00  0.00    +0.155 HD
BRANCH   2  10
ATOM      6  C   UNL     1      -4.007  12.792   0.452  0.00  0.00    +0.044 C 
ATOM      7  C   UNL     1      -3.254  11.499   0.633  0.00  0.00    -0.047 A 
ATOM      8  C   UNL     1      -3.947  10.320   0.836  0.00  0.00    +0.005 A 
ATOM      9  C   UNL     1      -3.261   9.132   1.003  0.00  0.00    +0.027 A 
ATOM     10  C   UNL     1      -1.875   9.120   0.967  0.00  0.00    +0.075 A 
ATOM     11  C   UNL     1      -1.177  10.309   0.767  0.00  0.00    +0.138 A 
ATOM     12  C   UNL     1      -1.872  11.496   0.596  0.00  0.00    +0.050 A 
BRANCH  11  13
ATOM     13  O   UNL     1       0.182  10.305   0.737  0.00  0.00    -0.505 OA
ATOM     14  H   UNL     1       0.555  10.170  -0.145  0.00  0.00    +0.292 HD
ENDBRANCH  11  13
ENDBRANCH   2  10
ENDBRANCH   1   3
BRANCH   1  15
ATOM     15  C   UNL     1      -1.649   4.368   0.029  0.00  0.00    +0.227 C 
BRANCH  15  16
ATOM     16  C   UNL     1      -3.000   4.174   0.668  0.00  0.00    +0.146 A 
ATOM     17  C   UNL     1      -4.110   3.741   0.043  0.00  0.00    +0.048 A 
ATOM     18  C   UNL     1      -5.139   3.711   1.012  0.00  0.00    +0.045 A 
ATOM     19  C   UNL     1      -4.595   4.118   2.172  0.00  0.00    +0.102 A 
ATOM     20  O   UNL     1      -3.299   4.397   1.958  0.00  0.00    -0.462 OA
ATOM     21  C   UNL     1      -5.316   4.239   3.490  0.00  0.00    +0.086 C 
ENDBRANCH  15  16
BRANCH  15  22
ATOM     22  C   UNL     1      -0.846   3.070   0.130  0.00  0.00    +0.426 C 
ATOM     23  F   UNL     1      -1.474   2.074  -0.625  0.00  0.00    -0.167 F 
ATOM     24  F   UNL     1       0.447   3.282  -0.361  0.00  0.00    -0.167 F 
ATOM     25  F   UNL     1      -0.776   2.667   1.468  0.00  0.00    -0.167 F 
ENDBRANCH  15  22
BRANCH  15  26
ATOM     26  O   UNL     1      -1.817   4.719  -1.345  0.00  0.00    -0.373 OA
ATOM     27  H   UNL     1      -2.318   5.534  -1.485  0.00  0.00    +0.211 HD
ENDBRANCH  15  26
ENDBRANCH   1  15
TORSDOF 7
