REMARK  Name = ZINC42173162
REMARK  6 active torsions:
REMARK  status: ('A' for Active; 'I' for Inactive)
REMARK    1  A    between atoms: C_1  and  O_2
REMARK    2  A    between atoms: O_2  and  C_3
REMARK    3  A    between atoms: C_8  and  O_9
REMARK    4  A    between atoms: O_9  and  C_10
REMARK    5  A    between atoms: C_12  and  C_15
REMARK    6  A    between atoms: C_20  and  N_21
REMARK                            x       y       z     vdW  Elec       q    Type
REMARK                         _______ _______ _______ _____ _____    ______ ____
ROOT
ATOM      1  C   UNL     1      -1.203  -0.631  -0.094  0.00  0.00    +0.164 A 
ATOM      2  C   UNL     1      -2.372   0.108  -0.091  0.00  0.00    +0.077 A 
ATOM      3  C   UNL     1      -3.599  -0.539  -0.050  0.00  0.00    +0.070 A 
ATOM      4  C   UNL     1      -3.654  -1.943  -0.013  0.00  0.00    +0.093 A 
ATOM      5  C   UNL     1      -2.465  -2.681  -0.017  0.00  0.00    +0.079 A 
ATOM      6  C   UNL     1      -1.252  -2.026  -0.063  0.00  0.00    +0.164 A 
ATOM      7  N   UNL     1      -4.963  -2.293   0.022  0.00  0.00    -0.228 NA
ATOM      8  C   UNL     1      -5.709  -1.214   0.008  0.00  0.00    +0.141 A 
ATOM      9  N   UNL     1      -4.911  -0.101  -0.036  0.00  0.00    -0.338 N 
ATOM     10  H   UNL     1      -5.211   0.822  -0.054  0.00  0.00    +0.167 HD
ENDROOT
BRANCH   8  11
ATOM     11  C   UNL     1      -7.185  -1.201   0.036  0.00  0.00    +0.038 A 
ATOM     12  C   UNL     1      -7.874   0.008   0.142  0.00  0.00    +0.014 A 
ATOM     13  C   UNL     1      -9.252   0.015   0.168  0.00  0.00    +0.016 A 
ATOM     14  C   UNL     1      -9.959  -1.175   0.088  0.00  0.00    +0.020 A 
ATOM     15  C   UNL     1      -9.290  -2.379  -0.017  0.00  0.00    +0.038 A 
ATOM     16  C   UNL     1      -7.902  -2.403  -0.049  0.00  0.00    +0.036 A 
ATOM     17 BR   UNL     1     -11.850  -1.150   0.125  0.00  0.00    -0.050 Br
BRANCH  16  18
ATOM     18  N   UNL     1      -7.226  -3.615  -0.161  0.00  0.00    -0.357 N 
ATOM     19  H   UNL     1      -6.258  -3.638  -0.096  0.00  0.00    +0.142 HD
ATOM     20  H   UNL     1      -7.722  -4.436  -0.305  0.00  0.00    +0.142 HD
ENDBRANCH  16  18
ENDBRANCH   8  11
BRANCH   1  22
ATOM     21  C   UNL     1      -0.023   1.433  -0.165  0.00  0.00    +0.277 C 
ATOM     22  O   UNL     1      -0.001   0.004  -0.134  0.00  0.00    -0.491 OA
ENDBRANCH   1  22
BRANCH   6  23
ATOM     23  O   UNL     1      -0.096  -2.743  -0.072  0.00  0.00    -0.491 OA
ATOM     24  C   UNL     1      -0.215  -4.166  -0.039  0.00  0.00    +0.277 C 
ENDBRANCH   6  23
TORSDOF 4
