REMARK  Name = ZINC03847572
REMARK  8 active torsions:
REMARK  status: ('A' for Active; 'I' for Inactive)
REMARK    1  A    between atoms: C_1  and  C_2
REMARK    2  A    between atoms: C_2  and  N_3
REMARK    3  A    between atoms: C_10  and  O_24
REMARK    4  A    between atoms: C_11  and  C_14
REMARK    5  A    between atoms: C_14  and  C_16
REMARK    6  A    between atoms: C_14  and  N_44
REMARK    7  A    between atoms: C_17  and  C_18
REMARK    8  A    between atoms: C_17  and  N_44
REMARK                            x       y       z     vdW  Elec       q    Type
REMARK                         _______ _______ _______ _____ _____    ______ ____
ROOT
ATOM      1  N   UNL     1       0.597  -4.540  -5.152  0.00  0.00    -0.308 N 
ATOM      2  C   UNL     1      -0.462  -5.423  -5.211  0.00  0.00    +0.056 A 
ATOM      3  C   UNL     1      -0.992  -5.824  -6.433  0.00  0.00    +0.026 A 
ATOM      4  C   UNL     1      -2.050  -6.707  -6.463  0.00  0.00    +0.002 A 
ATOM      5  C   UNL     1      -2.593  -7.200  -5.285  0.00  0.00    +0.001 A 
ATOM      6  C   UNL     1      -2.088  -6.819  -4.073  0.00  0.00    +0.013 A 
ATOM      7  C   UNL     1      -1.015  -5.925  -4.021  0.00  0.00    +0.040 A 
ATOM      8  C   UNL     1      -0.447  -5.494  -2.736  0.00  0.00    +0.133 A 
ATOM      9  C   UNL     1       0.601  -4.618  -2.752  0.00  0.00    +0.045 A 
ATOM     10  C   UNL     1       1.108  -4.146  -3.973  0.00  0.00    +0.257 A 
ATOM     11  O   UNL     1       2.042  -3.361  -3.963  0.00  0.00    -0.267 OA
ENDROOT
BRANCH   1  13
ATOM     12  C   UNL     1       0.446  -2.731  -6.791  0.00  0.00    +0.027 C 
ATOM     13  C   UNL     1       1.171  -4.019  -6.395  0.00  0.00    +0.122 C 
ENDBRANCH   1  13
BRANCH   9  14
ATOM     14  C   UNL     1       1.211  -4.152  -1.455  0.00  0.00    -0.035 C 
ATOM     15  C   UNL     1       2.653  -4.655  -1.359  0.00  0.00    -0.009 C 
BRANCH  14  16
ATOM     16  N   UNL     1       1.200  -2.678  -1.417  0.00  0.00    +0.386 N 
ATOM     17  H   UNL     1       0.354  -2.333  -1.886  0.00  0.00    -0.085 HD
ATOM     18  H   UNL     1       2.031  -2.321  -1.903  0.00  0.00    -0.085 HD
BRANCH  16  19
ATOM     19  C   UNL     1       1.210  -2.202  -0.021  0.00  0.00    -0.044 C 
BRANCH  19  20
ATOM     20  C   UNL     1       1.199  -0.695  -0.013  0.00  0.00    -0.046 A 
ATOM     21  C   UNL     1       2.389   0.017  -0.021  0.00  0.00    +0.005 A 
ATOM     22  C   UNL     1       2.331   1.401  -0.013  0.00  0.00    +0.020 A 
ATOM     23  C   UNL     1       1.096   2.023   0.003  0.00  0.00    +0.111 A 
ATOM     24  N   UNL     1      -0.016   1.315   0.009  0.00  0.00    -0.263 NA
ATOM     25  C   UNL     1       0.002  -0.004   0.002  0.00  0.00    +0.112 A 
ENDBRANCH  19  20
ENDBRANCH  16  19
ENDBRANCH  14  16
ENDBRANCH   9  14
BRANCH   8  26
ATOM     26  O   UNL     1      -0.949  -5.954  -1.567  0.00  0.00    -0.506 OA
ATOM     27  H   UNL     1      -1.688  -6.568  -1.671  0.00  0.00    +0.292 HD
ENDBRANCH   8  26
TORSDOF 6
