REMARK  Name = ZINC29550275
REMARK  7 active torsions:
REMARK  status: ('A' for Active; 'I' for Inactive)
REMARK    1  A    between atoms: C_1  and  C_2
REMARK    2  A    between atoms: C_6  and  C_25
REMARK    3  A    between atoms: C_7  and  N_8
REMARK    4  A    between atoms: C_9  and  S_11
REMARK    5  A    between atoms: S_11  and  C_12
REMARK    6  A    between atoms: C_12  and  C_13
REMARK    7  A    between atoms: C_18  and  C_24
REMARK                            x       y       z     vdW  Elec       q    Type
REMARK                         _______ _______ _______ _____ _____    ______ ____
ROOT
ATOM      1  N   UNL     1      -0.773  -1.147   2.583  0.00  0.00    -0.295 N 
ATOM      2  C   UNL     1      -0.974  -1.657   3.846  0.00  0.00    +0.130 C 
ATOM      3  N   UNL     1      -1.110  -2.942   4.017  0.00  0.00    -0.381 N 
ATOM      4  H   UNL     1      -1.325  -3.295   4.894  0.00  0.00    +0.158 HD
ATOM      5  H   UNL     1      -0.996  -3.546   3.266  0.00  0.00    +0.158 HD
ATOM      6  H   UNL     1      -0.764  -0.187   2.442  0.00  0.00    +0.154 HD
ENDROOT
BRANCH   1  13
ATOM      7  C   UNL     1       1.863  -2.087   2.066  0.00  0.00    +0.045 C 
ATOM      8  C   UNL     1       0.689  -2.496   1.214  0.00  0.00    -0.029 A 
ATOM      9  C   UNL     1       0.875  -3.356   0.149  0.00  0.00    +0.005 A 
ATOM     10  C   UNL     1      -0.202  -3.732  -0.634  0.00  0.00    +0.001 A 
ATOM     11  C   UNL     1      -1.466  -3.248  -0.353  0.00  0.00    +0.005 A 
ATOM     12  C   UNL     1      -1.659  -2.388   0.710  0.00  0.00    -0.029 A 
ATOM     13  C   UNL     1      -0.581  -2.013   1.501  0.00  0.00    +0.039 A 
ATOM     14  C   UNL     1      -3.037  -1.861   1.014  0.00  0.00    +0.045 C 
ENDBRANCH   1  13
BRANCH   2  15
ATOM     15  S   UNL     1      -1.047  -0.571   5.232  0.00  0.00    -0.086 S 
BRANCH  15  16
ATOM     16  C   UNL     1      -1.320  -1.679   6.643  0.00  0.00    +0.132 C 
BRANCH  16  17
ATOM     17  C   UNL     1      -1.403  -0.868   7.910  0.00  0.00    +0.059 A 
ATOM     18  C   UNL     1      -2.627  -0.658   8.516  0.00  0.00    +0.094 A 
ATOM     19  C   UNL     1      -2.679   0.099   9.692  0.00  0.00    +0.259 A 
ATOM     20  O   UNL     1      -3.744   0.301  10.252  0.00  0.00    -0.267 OA
ATOM     21  N   UNL     1      -1.532   0.601  10.198  0.00  0.00    -0.265 N 
ATOM     22  C   UNL     1      -1.566   1.339  11.342  0.00  0.00    +0.025 A 
ATOM     23  C   UNL     1      -0.431   1.852  11.867  0.00  0.00    +0.021 A 
ATOM     24  C   UNL     1       0.801   1.629  11.236  0.00  0.00    +0.005 A 
ATOM     25  C   UNL     1       0.846   0.891  10.091  0.00  0.00    +0.047 A 
ATOM     26  C   UNL     1      -0.346   0.365   9.560  0.00  0.00    +0.141 A 
ATOM     27  N   UNL     1      -0.303  -0.361   8.444  0.00  0.00    -0.233 NA
ATOM     28  C   UNL     1      -2.884   1.587  12.029  0.00  0.00    +0.064 C 
ENDBRANCH  16  17
ENDBRANCH  15  16
ENDBRANCH   2  15
TORSDOF 4
