REMARK  Name = ZINC62964396
REMARK  11 active torsions:
REMARK  status: ('A' for Active; 'I' for Inactive)
REMARK    1  A    between atoms: C_1  and  C_2
REMARK    2  A    between atoms: C_2  and  C_3
REMARK    3  A    between atoms: C_3  and  C_4
REMARK    4  A    between atoms: C_3  and  C_5
REMARK    5  A    between atoms: C_3  and  C_6
REMARK    6  A    between atoms: C_10  and  C_24
REMARK    7  A    between atoms: C_12  and  N_15
REMARK    8  A    between atoms: C_18  and  N_21
REMARK    9  A    between atoms: N_21  and  C_22
REMARK   10  A    between atoms: N_21  and  C_23
REMARK   11  A    between atoms: C_24  and  N_25
REMARK                            x       y       z     vdW  Elec       q    Type
REMARK                         _______ _______ _______ _____ _____    ______ ____
ROOT
ATOM      1  C   UNL     1      -1.220  -2.375   0.090  0.00  0.00    -0.004 C 
ATOM      2  C   UNL     1      -0.496  -3.067   1.246  0.00  0.00    +0.004 C 
ATOM      3  C   UNL     1      -0.754  -4.574   1.180  0.00  0.00    +0.003 C 
ATOM      4  C   UNL     1      -2.257  -4.840   1.286  0.00  0.00    -0.011 C 
ATOM      5  C   UNL     1      -2.981  -4.147   0.130  0.00  0.00    +0.058 C 
ATOM      6  C   UNL     1      -2.723  -2.641   0.196  0.00  0.00    +0.023 C 
ENDROOT
BRANCH   5   7
ATOM      7  N   UNL     1      -2.480  -4.674  -1.147  0.00  0.00    -0.301 NA
ATOM      8  C   UNL     1      -2.778  -3.739  -2.262  0.00  0.00    +0.083 C 
ATOM      9  C   UNL     1      -2.706  -4.614  -3.532  0.00  0.00    +0.001 C 
ATOM     10  C   UNL     1      -2.975  -6.052  -3.045  0.00  0.00    -0.054 C 
ATOM     11  C   UNL     1      -3.187  -5.926  -1.520  0.00  0.00    +0.069 C 
BRANCH  10  12
ATOM     12  N   UNL     1      -4.181  -6.591  -3.687  0.00  0.00    +0.379 N 
ATOM     13  C   UNL     1      -3.982  -6.639  -5.141  0.00  0.00    -0.096 C 
ATOM     14  C   UNL     1      -4.439  -7.947  -3.183  0.00  0.00    -0.096 C 
ATOM     15  H   UNL     1      -4.969  -5.998  -3.474  0.00  0.00    -0.082 HD
ENDBRANCH  10  12
ENDBRANCH   5   7
BRANCH   1  16
ATOM     16  C   UNL     1      -0.963  -0.868   0.156  0.00  0.00    -0.032 C 
ATOM     17  C   UNL     1      -1.485  -0.320   1.486  0.00  0.00    +0.011 C 
ATOM     18  C   UNL     1      -1.687  -0.176  -1.000  0.00  0.00    +0.011 C 
BRANCH  16  20
ATOM     19  C   UNL     1       0.798   0.904   0.116  0.00  0.00    +0.004 C 
ATOM     20  C   UNL     1       0.540  -0.602   0.050  0.00  0.00    +0.003 C 
ENDBRANCH  16  20
ENDBRANCH   1  16
BRANCH   4  21
ATOM     21  C   UNL     1      -2.514  -6.347   1.220  0.00  0.00    -0.081 C 
BRANCH  21  22
ATOM     22  N   UNL     1      -1.973  -6.989   2.425  0.00  0.00    +0.378 N 
ATOM     23  H   UNL     1      -2.143  -7.983   2.381  0.00  0.00    -0.090 HD
ATOM     24  H   UNL     1      -0.980  -6.820   2.479  0.00  0.00    -0.090 HD
ATOM     25  H   UNL     1      -2.425  -6.607   3.242  0.00  0.00    -0.090 HD
ENDBRANCH  21  22
ENDBRANCH   4  21
TORSDOF 6
