REMARK  Name = ZINC21155914
REMARK  8 active torsions:
REMARK  status: ('A' for Active; 'I' for Inactive)
REMARK    1  A    between atoms: C_1  and  C_2
REMARK    2  A    between atoms: C_2  and  O_3
REMARK    3  A    between atoms: O_3  and  C_4
REMARK    4  A    between atoms: C_4  and  C_6
REMARK    5  A    between atoms: C_6  and  C_7
REMARK    6  A    between atoms: N_9  and  C_10
REMARK    7  A    between atoms: C_19  and  O_20
REMARK    8  A    between atoms: N_21  and  C_22
REMARK                            x       y       z     vdW  Elec       q    Type
REMARK                         _______ _______ _______ _____ _____    ______ ____
ROOT
ATOM      1  C   UNL     1      -1.284   3.280  -0.029  0.00  0.00    +0.138 A 
ATOM      2  C   UNL     1      -2.289   4.055   0.523  0.00  0.00    +0.075 A 
ATOM      3  C   UNL     1      -2.012   5.483   0.748  0.00  0.00    +0.042 A 
ATOM      4  C   UNL     1      -2.978   6.323   1.305  0.00  0.00    +0.013 A 
ATOM      5  C   UNL     1      -2.691   7.656   1.498  0.00  0.00    +0.001 A 
ATOM      6  C   UNL     1      -1.450   8.164   1.141  0.00  0.00    +0.004 A 
ATOM      7  C   UNL     1      -0.488   7.344   0.589  0.00  0.00    +0.047 A 
ATOM      8  C   UNL     1      -0.757   5.997   0.386  0.00  0.00    +0.141 A 
ATOM      9  O   UNL     1       0.176   5.183  -0.154  0.00  0.00    -0.424 OA
ATOM     10  C   UNL     1      -0.054   3.877  -0.362  0.00  0.00    +0.309 A 
ATOM     11  N   UNL     1      -3.511   3.504   0.857  0.00  0.00    -0.380 N 
ATOM     12  H   UNL     1      -4.265   3.325   0.077  0.00  0.00    +0.160 HD
ENDROOT
BRANCH  11  13
ATOM     13  C   UNL     1      -3.592   3.238   2.300  0.00  0.00    +0.079 C 
ATOM     14  C   UNL     1      -2.907   1.906   2.612  0.00  0.00    +0.024 C 
ATOM     15  C   UNL     1      -2.991   1.629   4.114  0.00  0.00    +0.002 C 
ATOM     16  C   UNL     1      -4.459   1.558   4.538  0.00  0.00    +0.000 C 
ATOM     17  C   UNL     1      -5.145   2.890   4.226  0.00  0.00    +0.002 C 
ATOM     18  C   UNL     1      -5.060   3.168   2.724  0.00  0.00    +0.024 C 
ENDBRANCH  11  13
BRANCH   1  21
ATOM     19  C   UNL     1      -0.576   1.010   0.148  0.00  0.00    +0.228 C 
ATOM     20  O   UNL     1       0.476   1.387   0.621  0.00  0.00    -0.275 OA
ATOM     21  N   UNL     1      -1.492   1.909  -0.262  0.00  0.00    -0.278 N 
ATOM     22  H   UNL     1      -2.402   1.571  -0.778  0.00  0.00    +0.155 HD
BRANCH  19  23
ATOM     23  C   UNL     1      -0.855  -0.465   0.013  0.00  0.00    +0.216 C 
BRANCH  23  24
ATOM     24  C   UNL     1       0.322  -1.249   0.533  0.00  0.00    +0.316 C 
ATOM     25  O   UNL     1       1.289  -0.669   0.970  0.00  0.00    -0.250 OA
BRANCH  24  26
ATOM     26  O   UNL     1       0.297  -2.591   0.513  0.00  0.00    -0.465 OA
BRANCH  26  28
ATOM     27  C   UNL     1       1.254  -4.792   0.925  0.00  0.00    +0.048 C 
ATOM     28  C   UNL     1       1.466  -3.280   1.030  0.00  0.00    +0.229 C 
ENDBRANCH  26  28
ENDBRANCH  24  26
ENDBRANCH  23  24
ENDBRANCH  19  23
ENDBRANCH   1  21
BRANCH  10  29
ATOM     29  O   UNL     1       0.825   3.190  -0.852  0.00  0.00    -0.479 OA
ATOM     30  H   UNL     1       1.792   3.642  -1.118  0.00  0.00    +0.295 HD
ENDBRANCH  10  29
TORSDOF 7
