REMARK  Name = ZINC67269867
REMARK  5 active torsions:
REMARK  status: ('A' for Active; 'I' for Inactive)
REMARK    1  A    between atoms: C_1  and  O_2
REMARK    2  A    between atoms: O_2  and  C_3
REMARK    3  A    between atoms: C_3  and  C_4
REMARK    4  A    between atoms: C_4  and  N_5
REMARK    5  A    between atoms: C_12  and  C_14
REMARK                            x       y       z     vdW  Elec       q    Type
REMARK                         _______ _______ _______ _____ _____    ______ ____
ROOT
ATOM      1  N   UNL     1       0.131  -2.392   1.494  0.00  0.00    +0.382 N 
ATOM      2  C   UNL     1       0.643  -3.749   1.321  0.00  0.00    -0.077 C 
ATOM      3  C   UNL     1       1.761  -3.991   2.311  0.00  0.00    +0.000 C 
ATOM      4  C   UNL     1       1.186  -4.642   3.583  0.00  0.00    +0.106 C 
ATOM      5  N   UNL     1      -0.116  -4.045   3.943  0.00  0.00    -0.303 N 
ATOM      6  C   UNL     1      -0.366  -2.621   3.860  0.00  0.00    +0.089 C 
ATOM      7  C   UNL     1      -0.898  -2.262   2.453  0.00  0.00    -0.060 C 
ATOM      8  C   UNL     1      -1.108  -4.855   4.363  0.00  0.00    +0.219 C 
ATOM      9  O   UNL     1      -2.215  -4.403   4.565  0.00  0.00    -0.275 OA
ATOM     10  H   UNL     1       0.898  -1.797   1.767  0.00  0.00    -0.082 HD
ENDROOT
BRANCH   8  11
ATOM     11  C   UNL     1      -0.841  -6.322   4.582  0.00  0.00    +0.075 C 
ATOM     12  C   UNL     1      -0.794  -7.039   3.231  0.00  0.00    +0.015 C 
ATOM     13  C   UNL     1      -0.511  -8.527   3.454  0.00  0.00    +0.036 C 
ATOM     14  C   UNL     1      -1.603  -9.130   4.330  0.00  0.00    +0.112 C 
ATOM     15  C   UNL     1      -1.680  -8.409   5.671  0.00  0.00    +0.036 C 
ATOM     16  C   UNL     1      -1.958  -6.921   5.439  0.00  0.00    +0.015 C 
ATOM     17  C   UNL     1      -2.938  -9.073   3.623  0.00  0.00    +0.244 C 
ATOM     18  O   UNL     1      -3.533  -8.082   3.257  0.00  0.00    -0.273 OA
ATOM     19  N   UNL     1      -3.328 -10.357   3.486  0.00  0.00    -0.238 N 
ATOM     20  C   UNL     1      -2.430 -11.203   4.005  0.00  0.00    +0.307 C 
ATOM     21  O   UNL     1      -2.559 -12.412   4.001  0.00  0.00    -0.252 OA
ATOM     22  N   UNL     1      -1.367 -10.565   4.531  0.00  0.00    -0.285 N 
ATOM     23  H   UNL     1      -4.157 -10.633   3.064  0.00  0.00    +0.159 HD
ATOM     24  H   UNL     1      -0.598 -10.973   4.958  0.00  0.00    +0.151 HD
ENDBRANCH   8  11
BRANCH   1  25
ATOM     25  C   UNL     1      -0.381  -1.921   0.200  0.00  0.00    -0.050 C 
BRANCH  25  26
ATOM     26  C   UNL     1      -0.657  -0.418   0.277  0.00  0.00    +0.141 C 
BRANCH  26  28
ATOM     27  C   UNL     1       0.416   1.696   0.627  0.00  0.00    +0.193 C 
ATOM     28  O   UNL     1       0.564   0.278   0.535  0.00  0.00    -0.385 OA
ENDBRANCH  26  28
ENDBRANCH  25  26
ENDBRANCH   1  25
TORSDOF 4
