REMARK  Name = ZINC52003479
REMARK  5 active torsions:
REMARK  status: ('A' for Active; 'I' for Inactive)
REMARK    1  A    between atoms: C_3  and  C_20
REMARK    2  A    between atoms: C_5  and  S_7
REMARK    3  A    between atoms: S_7  and  N_10
REMARK    4  A    between atoms: N_10  and  C_11
REMARK    5  A    between atoms: C_17  and  O_19
REMARK                            x       y       z     vdW  Elec       q    Type
REMARK                         _______ _______ _______ _____ _____    ______ ____
ROOT
ATOM      1  S   UNL     1       1.218  -2.448  -0.023  0.00  0.00    +0.059 S 
ATOM      2  O   UNL     1      -0.029  -2.860  -0.564  0.00  0.00    -0.153 OA
ATOM      3  O   UNL     1       2.461  -2.842  -0.587  0.00  0.00    -0.153 OA
ENDROOT
BRANCH   1   8
ATOM      4  C   UNL     1      -0.017   1.379   0.010  0.00  0.00    +0.003 A 
ATOM      5  C   UNL     1       1.167   2.088   0.002  0.00  0.00    +0.019 A 
ATOM      6  C   UNL     1       2.385   1.407  -0.013  0.00  0.00    +0.054 A 
ATOM      7  C   UNL     1       2.397   0.010  -0.021  0.00  0.00    +0.047 A 
ATOM      8  C   UNL     1       1.206  -0.686  -0.013  0.00  0.00    +0.106 A 
ATOM      9  C   UNL     1       0.002  -0.004   0.002  0.00  0.00    +0.028 A 
BRANCH   6  10
ATOM     10  C   UNL     1       3.617   2.136  -0.021  0.00  0.00    +0.099 C 
ATOM     11  N   UNL     1       4.595   2.715  -0.028  0.00  0.00    -0.191 NA
ENDBRANCH   6  10
ENDBRANCH   1   8
BRANCH   1  12
ATOM     12  N   UNL     1       1.237  -2.946   1.557  0.00  0.00    -0.184 NA
ATOM     13  H   UNL     1       2.005  -3.425   1.905  0.00  0.00    +0.148 HD
BRANCH  12  14
ATOM     14  C   UNL     1       0.093  -2.663   2.427  0.00  0.00    +0.105 C 
ATOM     15  C   UNL     1       0.356  -1.376   3.212  0.00  0.00    +0.023 C 
ATOM     16  C   UNL     1       1.615  -1.546   4.063  0.00  0.00    +0.002 C 
ATOM     17  C   UNL     1       1.418  -2.707   5.040  0.00  0.00    +0.003 C 
ATOM     18  C   UNL     1       1.156  -3.994   4.256  0.00  0.00    +0.033 C 
ATOM     19  C   UNL     1      -0.104  -3.824   3.404  0.00  0.00    +0.133 C 
BRANCH  19  20
ATOM     20  O   UNL     1      -0.349  -5.026   2.671  0.00  0.00    -0.390 OA
ATOM     21  H   UNL     1      -0.484  -5.806   3.228  0.00  0.00    +0.210 HD
ENDBRANCH  19  20
ENDBRANCH  12  14
ENDBRANCH   1  12
TORSDOF 5
