REMARK  Name = ZINC13177133
REMARK  9 active torsions:
REMARK  status: ('A' for Active; 'I' for Inactive)
REMARK    1  A    between atoms: C_1  and  C_2
REMARK    2  A    between atoms: C_7  and  N_12
REMARK    3  A    between atoms: C_9  and  C_11
REMARK    4  A    between atoms: C_16  and  C_18
REMARK    5  A    between atoms: C_18  and  S_19
REMARK    6  A    between atoms: S_19  and  C_20
REMARK    7  A    between atoms: N_30  and  C_31
REMARK    8  A    between atoms: C_31  and  C_32
REMARK    9  A    between atoms: C_32  and  C_33
REMARK                            x       y       z     vdW  Elec       q    Type
REMARK                         _______ _______ _______ _____ _____    ______ ____
ROOT
ATOM      1  S   UNL     1      -5.023   0.720   0.030  0.00  0.00    -0.078 S 
ENDROOT
BRANCH   1   2
ATOM      2  C   UNL     1      -6.399   1.822   0.042  0.00  0.00    +0.173 A 
ATOM      3  N   UNL     1      -6.166   3.111   0.048  0.00  0.00    -0.223 NA
ATOM      4  C   UNL     1      -7.176   4.012   0.058  0.00  0.00    +0.080 A 
ATOM      5  C   UNL     1      -6.930   5.388   0.065  0.00  0.00    +0.048 A 
ATOM      6  C   UNL     1      -7.990   6.268   0.075  0.00  0.00    +0.043 A 
ATOM      7  C   UNL     1      -9.301   5.803   0.079  0.00  0.00    +0.021 A 
ATOM      8  C   UNL     1      -9.566   4.462   0.072  0.00  0.00    +0.017 A 
ATOM      9  C   UNL     1      -8.512   3.550   0.062  0.00  0.00    +0.065 A 
ATOM     10  C   UNL     1      -8.743   2.099   0.055  0.00  0.00    +0.262 A 
ATOM     11  O   UNL     1      -9.871   1.640   0.057  0.00  0.00    -0.267 OA
ATOM     12  N   UNL     1      -7.657   1.292   0.040  0.00  0.00    -0.287 N 
ATOM     13 CL   UNL     1      -7.687   7.977   0.083  0.00  0.00    -0.083 Cl
BRANCH  12  14
ATOM     14  C   UNL     1      -7.833  -0.162   0.027  0.00  0.00    +0.138 C 
BRANCH  14  15
ATOM     15  C   UNL     1      -7.892  -0.682   1.465  0.00  0.00    +0.147 C 
BRANCH  15  16
ATOM     16  C   UNL     1      -8.073  -2.178   1.452  0.00  0.00    +0.358 C 
ATOM     17  O   UNL     1      -8.147  -2.768   0.400  0.00  0.00    -0.246 OA
ATOM     18  O   UNL     1      -8.151  -2.854   2.608  0.00  0.00    -0.246 OA
ENDBRANCH  15  16
ENDBRANCH  14  15
ENDBRANCH  12  14
ENDBRANCH   1   2
BRANCH   1  19
ATOM     19  C   UNL     1      -3.664   1.915   0.030  0.00  0.00    +0.173 C 
BRANCH  19  24
ATOM     20  N   UNL     1       1.143   1.901   0.001  0.00  0.00    -0.296 N 
ATOM     21  C   UNL     1      -0.014   1.211   0.009  0.00  0.00    +0.306 C 
ATOM     22  O   UNL     1       0.002  -0.004   0.002  0.00  0.00    -0.252 OA
ATOM     23  N   UNL     1      -1.191   1.869   0.018  0.00  0.00    -0.239 N 
ATOM     24  C   UNL     1      -2.349   1.179   0.020  0.00  0.00    +0.231 C 
ATOM     25  O   UNL     1      -2.332  -0.033   0.013  0.00  0.00    -0.274 OA
ATOM     26  H   UNL     1       1.130   2.871   0.007  0.00  0.00    +0.151 HD
ATOM     27  H   UNL     1      -1.204   2.839   0.023  0.00  0.00    +0.159 HD
BRANCH  20  33
ATOM     28  C   UNL     1       4.695   0.058  -1.480  0.00  0.00    +0.008 C 
ATOM     29  C   UNL     1       4.835   1.334  -0.647  0.00  0.00    -0.009 C 
ATOM     30  C   UNL     1       5.232   0.968   0.785  0.00  0.00    +0.003 C 
ATOM     31  C   UNL     1       4.155   0.072   1.400  0.00  0.00    +0.002 C 
ATOM     32  C   UNL     1       2.819   0.819   1.417  0.00  0.00    +0.022 C 
ATOM     33  C   UNL     1       2.422   1.186  -0.015  0.00  0.00    +0.078 C 
ATOM     34  C   UNL     1       3.499   2.081  -0.630  0.00  0.00    +0.009 C 
ATOM     35  C   UNL     1       3.102   2.447  -2.061  0.00  0.00    +0.009 C 
ENDBRANCH  20  33
ENDBRANCH  19  24
ENDBRANCH   1  19
TORSDOF 7
