REMARK  Name = ZINC53866619
REMARK  7 active torsions:
REMARK  status: ('A' for Active; 'I' for Inactive)
REMARK    1  A    between atoms: C_1  and  C_2
REMARK    2  A    between atoms: C_2  and  N_3
REMARK    3  A    between atoms: N_3  and  C_4
REMARK    4  A    between atoms: N_3  and  C_16
REMARK    5  A    between atoms: C_4  and  C_5
REMARK    6  A    between atoms: C_12  and  N_14
REMARK    7  A    between atoms: N_14  and  C_15
REMARK                            x       y       z     vdW  Elec       q    Type
REMARK                         _______ _______ _______ _____ _____    ______ ____
ROOT
ATOM      1  C   UNL     1       2.248   1.531  -0.833  0.00  0.00    -0.042 C 
ATOM      2  C   UNL     1       1.862   2.213  -2.118  0.00  0.00    -0.000 C 
ATOM      3  C   UNL     1       1.108   3.514  -1.774  0.00  0.00    +0.000 C 
ATOM      4  C   UNL     1       2.010   4.599  -1.415  0.00  0.00    -0.000 C 
ATOM      5  C   UNL     1       2.842   4.280  -0.157  0.00  0.00    -0.002 C 
ATOM      6  C   UNL     1       3.991   3.394  -0.556  0.00  0.00    -0.016 C 
ATOM      7  C   UNL     1       3.673   1.898  -0.378  0.00  0.00    -0.071 C 
ENDROOT
BRANCH   7   8
ATOM      8  N   UNL     1       4.637   1.111  -1.159  0.00  0.00    +0.379 N 
ATOM      9  C   UNL     1       5.994   1.360  -0.656  0.00  0.00    -0.100 C 
ATOM     10  H   UNL     1       4.420   0.129  -1.070  0.00  0.00    -0.086 HD
ATOM     11  H   UNL     1       4.583   1.380  -2.130  0.00  0.00    -0.086 HD
ENDBRANCH   7   8
BRANCH   1  12
ATOM     12  C   UNL     1       2.166   0.016  -1.033  0.00  0.00    -0.077 C 
BRANCH  12  13
ATOM     13  N   UNL     1       0.776  -0.366  -1.316  0.00  0.00    +0.382 N 
ATOM     14  H   UNL     1       0.434   0.167  -2.101  0.00  0.00    -0.081 HD
BRANCH  13  15
ATOM     15  C   UNL     1       0.718  -1.799  -1.635  0.00  0.00    -0.069 C 
ATOM     16  C   UNL     1       1.532  -2.090  -2.913  0.00  0.00    -0.015 C 
ATOM     17  C   UNL     1       0.711  -3.180  -3.645  0.00  0.00    -0.002 C 
ATOM     18  C   UNL     1      -0.751  -2.742  -3.383  0.00  0.00    -0.002 C 
ATOM     19  C   UNL     1      -0.733  -2.214  -1.933  0.00  0.00    -0.015 C 
ENDBRANCH  13  15
BRANCH  13  21
ATOM     20  C   UNL     1       0.507  -0.842   1.071  0.00  0.00    -0.017 C 
ATOM     21  C   UNL     1      -0.057  -0.092  -0.138  0.00  0.00    -0.082 C 
ENDBRANCH  13  21
ENDBRANCH  12  13
ENDBRANCH   1  12
TORSDOF 5
