REMARK  Name = ZINC52549307
REMARK  10 active torsions:
REMARK  status: ('A' for Active; 'I' for Inactive)
REMARK    1  A    between atoms: C_1  and  C_2
REMARK    2  A    between atoms: C_7  and  C_9
REMARK    3  A    between atoms: C_7  and  N_25
REMARK    4  A    between atoms: C_9  and  N_10
REMARK    5  A    between atoms: N_13  and  C_14
REMARK    6  A    between atoms: C_14  and  C_15
REMARK    7  A    between atoms: C_15  and  N_16
REMARK    8  A    between atoms: C_18  and  C_23
REMARK    9  A    between atoms: N_25  and  C_26
REMARK   10  A    between atoms: N_25  and  C_27
REMARK                            x       y       z     vdW  Elec       q    Type
REMARK                         _______ _______ _______ _____ _____    ______ ____
ROOT
ATOM      1  N   UNL     1       2.822  -1.814  -0.209  0.00  0.00    -0.301 N 
ATOM      2  C   UNL     1       3.509  -1.956  -1.359  0.00  0.00    +0.300 C 
ATOM      3  O   UNL     1       2.942  -2.341  -2.363  0.00  0.00    -0.253 OA
ATOM      4  N   UNL     1       4.826  -1.672  -1.397  0.00  0.00    -0.298 N 
ATOM      5  H   UNL     1       3.275  -1.507   0.592  0.00  0.00    +0.150 HD
ATOM      6  H   UNL     1       5.279  -1.364  -0.596  0.00  0.00    +0.150 HD
ENDROOT
BRANCH   1   7
ATOM      7  C   UNL     1       1.391  -2.123  -0.168  0.00  0.00    +0.094 C 
BRANCH   7  13
ATOM      8  C   UNL     1       0.322   1.905   0.997  0.00  0.00    +0.007 C 
ATOM      9  C   UNL     1       0.188   0.426   0.631  0.00  0.00    -0.015 C 
ATOM     10  C   UNL     1      -1.285   0.017   0.695  0.00  0.00    +0.003 C 
ATOM     11  C   UNL     1      -1.420  -1.462   0.329  0.00  0.00    -0.001 C 
ATOM     12  C   UNL     1      -0.612  -2.308   1.315  0.00  0.00    -0.010 C 
ATOM     13  C   UNL     1       0.861  -1.899   1.250  0.00  0.00    -0.050 C 
ATOM     14  C   UNL     1       0.996  -0.420   1.617  0.00  0.00    -0.007 C 
BRANCH  13  15
ATOM     15  N   UNL     1       1.637  -2.711   2.197  0.00  0.00    +0.381 N 
ATOM     16  C   UNL     1       1.079  -2.556   3.547  0.00  0.00    -0.096 C 
ATOM     17  C   UNL     1       1.571  -4.123   1.799  0.00  0.00    -0.096 C 
ATOM     18  H   UNL     1       2.598  -2.405   2.193  0.00  0.00    -0.082 HD
ENDBRANCH  13  15
ENDBRANCH   7  13
ENDBRANCH   1   7
BRANCH   4  19
ATOM     19  C   UNL     1       5.574  -1.826  -2.648  0.00  0.00    +0.124 C 
BRANCH  19  20
ATOM     20  C   UNL     1       7.036  -1.441  -2.419  0.00  0.00    +0.121 C 
BRANCH  20  21
ATOM     21  N   UNL     1       7.784  -1.595  -3.669  0.00  0.00    -0.327 N 
ATOM     22  C   UNL     1       9.136  -1.303  -3.708  0.00  0.00    +0.136 A 
ATOM     23  C   UNL     1       9.848  -1.447  -4.912  0.00  0.00    +0.091 A 
ATOM     24  C   UNL     1      11.214  -1.145  -4.926  0.00  0.00    +0.024 A 
ATOM     25  C   UNL     1      11.806  -0.717  -3.750  0.00  0.00    +0.021 A 
ATOM     26  C   UNL     1      11.039  -0.600  -2.606  0.00  0.00    +0.113 A 
ATOM     27  N   UNL     1       9.751  -0.884  -2.613  0.00  0.00    -0.239 NA
ATOM     28  H   UNL     1       7.331  -1.903  -4.470  0.00  0.00    +0.148 HD
BRANCH  23  29
ATOM     29  C   UNL     1       9.188  -1.895  -6.101  0.00  0.00    +0.103 C 
ATOM     30  N   UNL     1       8.664  -2.251  -7.044  0.00  0.00    -0.191 NA
ENDBRANCH  23  29
ENDBRANCH  20  21
ENDBRANCH  19  20
ENDBRANCH   4  19
TORSDOF 7
