REMARK  Name = ZINC52588341
REMARK  9 active torsions:
REMARK  status: ('A' for Active; 'I' for Inactive)
REMARK    1  A    between atoms: C_1  and  C_2
REMARK    2  A    between atoms: C_7  and  C_9
REMARK    3  A    between atoms: C_7  and  N_23
REMARK    4  A    between atoms: C_9  and  N_10
REMARK    5  A    between atoms: N_13  and  N_14
REMARK    6  A    between atoms: C_15  and  C_17
REMARK    7  A    between atoms: N_19  and  C_20
REMARK    8  A    between atoms: N_23  and  C_24
REMARK    9  A    between atoms: N_23  and  C_25
REMARK                            x       y       z     vdW  Elec       q    Type
REMARK                         _______ _______ _______ _____ _____    ______ ____
ROOT
ATOM      1  N   UNL     1       2.822  -1.814  -0.209  0.00  0.00    -0.300 N 
ATOM      2  C   UNL     1       3.509  -1.956  -1.359  0.00  0.00    +0.316 C 
ATOM      3  O   UNL     1       2.942  -2.341  -2.363  0.00  0.00    -0.251 OA
ATOM      4  N   UNL     1       4.826  -1.672  -1.397  0.00  0.00    -0.218 N 
ATOM      5  H   UNL     1       3.275  -1.507   0.592  0.00  0.00    +0.150 HD
ATOM      6  H   UNL     1       5.321  -1.774  -2.225  0.00  0.00    +0.174 HD
ENDROOT
BRANCH   4   7
ATOM      7  N   UNL     1       5.481  -1.228  -0.241  0.00  0.00    -0.225 N 
ATOM      8  C   UNL     1       6.797  -0.944  -0.278  0.00  0.00    +0.315 C 
ATOM      9  O   UNL     1       7.416  -1.072  -1.314  0.00  0.00    -0.264 OA
ATOM     10  H   UNL     1       4.986  -1.125   0.587  0.00  0.00    +0.173 HD
BRANCH   8  11
ATOM     11  C   UNL     1       7.495  -0.470   0.955  0.00  0.00    +0.301 C 
ATOM     12  O   UNL     1       6.877  -0.342   1.991  0.00  0.00    -0.265 OA
ATOM     13  N   UNL     1       8.812  -0.186   0.918  0.00  0.00    -0.305 N 
ATOM     14  H   UNL     1       9.307  -0.288   0.090  0.00  0.00    +0.149 HD
BRANCH  13  15
ATOM     15  C   UNL     1       9.496   0.278   2.127  0.00  0.00    +0.073 C 
ATOM     16  C   UNL     1      10.472   1.448   1.982  0.00  0.00    +0.024 C 
ATOM     17  C   UNL     1      11.004   0.034   2.224  0.00  0.00    +0.024 C 
ENDBRANCH  13  15
ENDBRANCH   8  11
ENDBRANCH   4   7
BRANCH   1  18
ATOM     18  C   UNL     1       1.391  -2.123  -0.168  0.00  0.00    +0.094 C 
BRANCH  18  24
ATOM     19  C   UNL     1       0.323   1.905   0.998  0.00  0.00    +0.007 C 
ATOM     20  C   UNL     1       0.188   0.426   0.631  0.00  0.00    -0.015 C 
ATOM     21  C   UNL     1      -1.285   0.017   0.696  0.00  0.00    +0.003 C 
ATOM     22  C   UNL     1      -1.420  -1.462   0.329  0.00  0.00    -0.001 C 
ATOM     23  C   UNL     1      -0.612  -2.308   1.315  0.00  0.00    -0.010 C 
ATOM     24  C   UNL     1       0.861  -1.899   1.250  0.00  0.00    -0.050 C 
ATOM     25  C   UNL     1       0.996  -0.420   1.617  0.00  0.00    -0.007 C 
BRANCH  24  26
ATOM     26  N   UNL     1       1.637  -2.711   2.197  0.00  0.00    +0.381 N 
ATOM     27  C   UNL     1       1.079  -2.556   3.547  0.00  0.00    -0.096 C 
ATOM     28  C   UNL     1       1.571  -4.124   1.799  0.00  0.00    -0.096 C 
ATOM     29  H   UNL     1       2.598  -2.405   2.193  0.00  0.00    -0.082 HD
ENDBRANCH  24  26
ENDBRANCH  18  24
ENDBRANCH   1  18
TORSDOF 6
