REMARK  Name = ZINC35542062
REMARK  10 active torsions:
REMARK  status: ('A' for Active; 'I' for Inactive)
REMARK    1  A    between atoms: C_1  and  C_2
REMARK    2  A    between atoms: C_2  and  N_3
REMARK    3  A    between atoms: N_3  and  C_4
REMARK    4  A    between atoms: C_4  and  C_6
REMARK    5  A    between atoms: C_4  and  C_12
REMARK    6  A    between atoms: C_13  and  C_22
REMARK    7  A    between atoms: C_14  and  C_21
REMARK    8  A    between atoms: C_15  and  C_20
REMARK    9  A    between atoms: C_16  and  C_19
REMARK   10  A    between atoms: C_17  and  C_18
REMARK                            x       y       z     vdW  Elec       q    Type
REMARK                         _______ _______ _______ _____ _____    ______ ____
ROOT
ATOM      1  C   UNL     1       0.858  -2.336  -1.571  0.00  0.00    +0.027 C 
ENDROOT
BRANCH   1   2
ATOM      2  C   UNL     1      -0.615  -2.650  -1.622  0.00  0.00    -0.048 A 
ATOM      3  C   UNL     1      -1.441  -1.954  -2.485  0.00  0.00    -0.045 A 
ATOM      4  C   UNL     1      -2.792  -2.242  -2.531  0.00  0.00    -0.044 A 
ATOM      5  C   UNL     1      -3.318  -3.225  -1.714  0.00  0.00    -0.044 A 
ATOM      6  C   UNL     1      -2.492  -3.921  -0.851  0.00  0.00    -0.044 A 
ATOM      7  C   UNL     1      -1.140  -3.636  -0.808  0.00  0.00    -0.045 A 
ATOM      8  C   UNL     1      -0.239  -4.398   0.129  0.00  0.00    +0.044 C 
ATOM      9  C   UNL     1      -3.065  -4.992   0.040  0.00  0.00    +0.044 C 
ATOM     10  C   UNL     1      -4.791  -3.538  -1.764  0.00  0.00    +0.044 C 
ATOM     11  C   UNL     1      -3.692  -1.483  -3.472  0.00  0.00    +0.044 C 
ATOM     12  C   UNL     1      -0.868  -0.883  -3.376  0.00  0.00    +0.044 C 
ENDBRANCH   1   2
BRANCH   1  13
ATOM     13  C   UNL     1       1.276  -2.114  -0.141  0.00  0.00    +0.097 A 
ATOM     14  C   UNL     1       1.447  -0.919   0.452  0.00  0.00    +0.044 A 
ATOM     15  C   UNL     1       1.837  -1.175   1.787  0.00  0.00    +0.057 A 
ATOM     16  C   UNL     1       1.881  -2.513   1.930  0.00  0.00    +0.170 A 
ATOM     17  O   UNL     1       1.535  -3.076   0.761  0.00  0.00    -0.454 OA
ATOM     18 BR   UNL     1       2.345  -3.442   3.510  0.00  0.00    -0.008 Br
ENDBRANCH   1  13
BRANCH   1  19
ATOM     19  N   UNL     1       1.617  -3.461  -2.134  0.00  0.00    +0.388 N 
ATOM     20  H   UNL     1       1.403  -4.302  -1.621  0.00  0.00    -0.084 HD
ATOM     21  H   UNL     1       2.605  -3.267  -2.065  0.00  0.00    -0.084 HD
BRANCH  19  23
ATOM     22  C   UNL     1       2.042  -4.812  -4.132  0.00  0.00    -0.017 C 
ATOM     23  C   UNL     1       1.251  -3.641  -3.545  0.00  0.00    -0.085 C 
ENDBRANCH  19  23
ENDBRANCH   1  19
TORSDOF 4
