REMARK  Name = ZINC44830148
REMARK  8 active torsions:
REMARK  status: ('A' for Active; 'I' for Inactive)
REMARK    1  A    between atoms: C_1  and  O_2
REMARK    2  A    between atoms: O_2  and  C_3
REMARK    3  A    between atoms: C_10  and  O_11
REMARK    4  A    between atoms: O_11  and  C_12
REMARK    5  A    between atoms: C_12  and  C_13
REMARK    6  A    between atoms: C_13  and  C_14
REMARK    7  A    between atoms: C_14  and  N_15
REMARK    8  A    between atoms: N_25  and  C_26
REMARK                            x       y       z     vdW  Elec       q    Type
REMARK                         _______ _______ _______ _____ _____    ______ ____
ROOT
ATOM      1  C   UNL     1       0.626  -0.618   1.042  0.00  0.00    +0.159 C 
ATOM      2  C   UNL     1       1.185   0.112   2.021  0.00  0.00    +0.047 C 
ATOM      3  C   UNL     1       1.843  -0.628   3.144  0.00  0.00    +0.121 C 
ATOM      4  C   UNL     1       0.980  -1.845   3.503  0.00  0.00    +0.105 C 
ATOM      5  C   UNL     1       0.852  -2.707   2.281  0.00  0.00    +0.036 C 
ATOM      6  C   UNL     1       0.687  -2.096   1.104  0.00  0.00    +0.158 C 
ATOM      7  C   UNL     1       1.671  -2.538   4.654  0.00  0.00    +0.110 C 
ATOM      8  N   UNL     1       1.935  -1.708   5.739  0.00  0.00    -0.295 N 
ATOM      9  C   UNL     1       2.151  -0.370   5.504  0.00  0.00    +0.157 C 
ATOM     10  N   UNL     1       2.084   0.156   4.338  0.00  0.00    -0.372 N 
ATOM     11  N   UNL     1       1.991  -3.800   4.633  0.00  0.00    -0.236 NA
ATOM     12  H   UNL     1       1.966  -2.064   6.641  0.00  0.00    +0.154 HD
ATOM     13  H   UNL     1       2.215   1.114   4.253  0.00  0.00    +0.161 HD
ENDROOT
BRANCH  11  14
ATOM     14  C   UNL     1       2.617  -4.367   5.713  0.00  0.00    +0.067 A 
ATOM     15  C   UNL     1       3.675  -3.704   6.337  0.00  0.00    +0.030 A 
ATOM     16  C   UNL     1       4.303  -4.278   7.423  0.00  0.00    +0.042 A 
ATOM     17  C   UNL     1       3.885  -5.511   7.895  0.00  0.00    +0.142 A 
ATOM     18  C   UNL     1       2.834  -6.175   7.280  0.00  0.00    +0.078 A 
ATOM     19  C   UNL     1       2.195  -5.606   6.196  0.00  0.00    +0.050 A 
ATOM     20 CL   UNL     1       2.317  -7.721   7.878  0.00  0.00    -0.081 Cl
ATOM     21  F   UNL     1       4.503  -6.070   8.959  0.00  0.00    -0.204 F 
ENDBRANCH  11  14
BRANCH   1  23
ATOM     22  C   UNL     1      -0.017   1.425   0.010  0.00  0.00    +0.277 C 
ATOM     23  O   UNL     1       0.002  -0.004   0.002  0.00  0.00    -0.492 OA
ENDBRANCH   1  23
BRANCH   6  24
ATOM     24  O   UNL     1       0.577  -2.831  -0.034  0.00  0.00    -0.489 OA
BRANCH  24  25
ATOM     25  C   UNL     1       0.646  -4.252   0.102  0.00  0.00    +0.230 C 
BRANCH  25  26
ATOM     26  C   UNL     1       0.504  -4.903  -1.275  0.00  0.00    +0.056 C 
BRANCH  26  27
ATOM     27  C   UNL     1       0.577  -6.424  -1.129  0.00  0.00    +0.088 C 
BRANCH  27  28
ATOM     28  N   UNL     1       0.441  -7.050  -2.451  0.00  0.00    -0.298 NA
ATOM     29  C   UNL     1      -0.902  -6.823  -3.006  0.00  0.00    +0.112 C 
ATOM     30  C   UNL     1      -0.981  -7.438  -4.406  0.00  0.00    +0.175 C 
ATOM     31  O   UNL     1      -0.655  -8.829  -4.328  0.00  0.00    -0.377 OA
ATOM     32  C   UNL     1       0.646  -9.087  -3.793  0.00  0.00    +0.175 C 
ATOM     33  C   UNL     1       0.741  -8.488  -2.388  0.00  0.00    +0.112 C 
ENDBRANCH  27  28
ENDBRANCH  26  27
ENDBRANCH  25  26
ENDBRANCH  24  25
ENDBRANCH   6  24
TORSDOF 7
