REMARK  Name = ZINC49036089
REMARK  5 active torsions:
REMARK  status: ('A' for Active; 'I' for Inactive)
REMARK    1  A    between atoms: C_1  and  C_2
REMARK    2  A    between atoms: C_5  and  C_7
REMARK    3  A    between atoms: N_9  and  N_10
REMARK    4  A    between atoms: C_11  and  C_13
REMARK    5  A    between atoms: C_16  and  N_18
REMARK                            x       y       z     vdW  Elec       q    Type
REMARK                         _______ _______ _______ _____ _____    ______ ____
ROOT
ATOM      1  C   UNL     1       1.076  -3.942  -0.026  0.00  0.00    +0.267 C 
ATOM      2  O   UNL     1       0.342  -4.913  -0.027  0.00  0.00    -0.268 OA
ATOM      3  N   UNL     1       2.413  -4.108  -0.033  0.00  0.00    -0.230 N 
ATOM      4  H   UNL     1       2.998  -3.334  -0.032  0.00  0.00    +0.173 HD
ENDROOT
BRANCH   1   9
ATOM      5  C   UNL     1      -0.018   1.503   0.010  0.00  0.00    +0.051 C 
ATOM      6  C   UNL     1       0.002  -0.004   0.002  0.00  0.00    -0.013 A 
ATOM      7  C   UNL     1      -1.056  -0.852   0.002  0.00  0.00    +0.011 A 
ATOM      8  C   UNL     1      -0.827  -2.207  -0.007  0.00  0.00    +0.021 A 
ATOM      9  C   UNL     1       0.505  -2.592  -0.016  0.00  0.00    +0.076 A 
ATOM     10  S   UNL     1       1.341  -1.018  -0.017  0.00  0.00    -0.089 S 
ENDBRANCH   1   9
BRANCH   3  11
ATOM     11  N   UNL     1       2.959  -5.398  -0.043  0.00  0.00    -0.234 N 
ATOM     12  C   UNL     1       4.296  -5.564  -0.050  0.00  0.00    +0.234 C 
ATOM     13  O   UNL     1       5.027  -4.596  -0.049  0.00  0.00    -0.274 OA
ATOM     14  H   UNL     1       2.374  -6.172  -0.044  0.00  0.00    +0.173 HD
BRANCH  12  15
ATOM     15  C   UNL     1       4.883  -6.952  -0.061  0.00  0.00    +0.108 C 
ATOM     16  C   UNL     1       5.618  -7.418   1.198  0.00  0.00    +0.047 C 
ATOM     17  C   UNL     1       6.409  -7.074  -0.067  0.00  0.00    +0.182 C 
BRANCH  17  18
ATOM     18  N   UNL     1       7.186  -5.832  -0.062  0.00  0.00    +0.026 N 
ATOM     19  O   UNL     1       7.067  -5.048   0.850  0.00  0.00    -0.131 OA
ATOM     20  O   UNL     1       7.948  -5.593  -0.970  0.00  0.00    -0.131 OA
ENDBRANCH  17  18
ENDBRANCH  12  15
ENDBRANCH   3  11
TORSDOF 4
