REMARK  Name = ZINC49204900
REMARK  6 active torsions:
REMARK  status: ('A' for Active; 'I' for Inactive)
REMARK    1  A    between atoms: C_1  and  C_2
REMARK    2  A    between atoms: C_2  and  C_3
REMARK    3  A    between atoms: C_3  and  N_4
REMARK    4  A    between atoms: C_5  and  N_7
REMARK    5  A    between atoms: C_14  and  C_18
REMARK    6  A    between atoms: C_15  and  C_17
REMARK                            x       y       z     vdW  Elec       q    Type
REMARK                         _______ _______ _______ _____ _____    ______ ____
ROOT
ATOM      1  N   UNL     1      -2.553  -4.016   0.005  0.00  0.00    -0.164 NA
ATOM      2  C   UNL     1      -3.693  -4.751  -0.078  0.00  0.00    +0.058 C 
ATOM      3  C   UNL     1      -4.936  -4.109  -0.169  0.00  0.00    +0.026 C 
ATOM      4  C   UNL     1      -6.079  -4.845  -0.253  0.00  0.00    +0.015 C 
ATOM      5  C   UNL     1      -6.012  -6.247  -0.248  0.00  0.00    +0.033 C 
ATOM      6  C   UNL     1      -7.239  -7.039  -0.338  0.00  0.00    +0.198 C 
ATOM      7  N   UNL     1      -7.314  -8.381  -0.338  0.00  0.00    -0.286 N 
ATOM      8  C   UNL     1      -8.649  -8.721  -0.438  0.00  0.00    +0.045 C 
ATOM      9  C   UNL     1      -9.347  -7.589  -0.496  0.00  0.00    +0.121 C 
ATOM     10  O   UNL     1      -8.482  -6.554  -0.429  0.00  0.00    -0.444 OA
ATOM     11  C   UNL     1     -10.846  -7.480  -0.611  0.00  0.00    +0.088 C 
ATOM     12  C   UNL     1      -9.213 -10.118  -0.476  0.00  0.00    +0.064 C 
ATOM     13  C   UNL     1      -4.767  -6.890  -0.157  0.00  0.00    +0.015 C 
ATOM     14  C   UNL     1      -3.625  -6.152  -0.078  0.00  0.00    +0.026 C 
ATOM     15  H   UNL     1      -6.568  -8.998  -0.279  0.00  0.00    +0.155 HD
ENDROOT
BRANCH   1  17
ATOM     16  N   UNL     1      -0.266  -3.894   0.356  0.00  0.00    -0.298 N 
ATOM     17  C   UNL     1      -1.420  -4.589   0.394  0.00  0.00    +0.324 C 
ATOM     18  O   UNL     1      -1.424  -5.745   0.786  0.00  0.00    -0.251 OA
ATOM     19  H   UNL     1      -0.263  -2.975   0.045  0.00  0.00    +0.150 HD
BRANCH  16  20
ATOM     20  C   UNL     1       0.984  -4.526   0.786  0.00  0.00    +0.105 C 
BRANCH  20  22
ATOM     21  C   UNL     1       3.440  -4.188   1.093  0.00  0.00    +0.005 C 
ATOM     22  C   UNL     1       2.135  -3.528   0.645  0.00  0.00    +0.015 C 
ENDBRANCH  20  22
ENDBRANCH  16  20
ENDBRANCH   1  17
TORSDOF 3
