REMARK  Name = ZINC63399214
REMARK  11 active torsions:
REMARK  status: ('A' for Active; 'I' for Inactive)
REMARK    1  A    between atoms: C_1  and  C_2
REMARK    2  A    between atoms: C_2  and  C_3
REMARK    3  A    between atoms: C_3  and  C_4
REMARK    4  A    between atoms: C_4  and  N_5
REMARK    5  A    between atoms: C_6  and  N_36
REMARK    6  A    between atoms: C_8  and  N_15
REMARK    7  A    between atoms: N_15  and  C_16
REMARK    8  A    between atoms: C_16  and  C_17
REMARK    9  A    between atoms: C_23  and  C_25
REMARK   10  A    between atoms: C_25  and  C_26
REMARK   11  A    between atoms: C_26  and  C_27
REMARK                            x       y       z     vdW  Elec       q    Type
REMARK                         _______ _______ _______ _____ _____    ______ ____
ROOT
ATOM      1  N   UNL     1       3.325  -0.986   3.575  0.00  0.00    -0.286 N 
ATOM      2  C   UNL     1       2.273  -0.149   3.662  0.00  0.00    +0.217 C 
ATOM      3  O   UNL     1       1.151  -0.595   3.781  0.00  0.00    -0.276 OA
ENDROOT
BRANCH   1   6
ATOM      4  N   UNL     1       3.509  -2.895   5.883  0.00  0.00    -0.296 N 
ATOM      5  C   UNL     1       2.486  -2.908   4.834  0.00  0.00    +0.047 C 
ATOM      6  C   UNL     1       3.108  -2.433   3.519  0.00  0.00    +0.167 C 
ATOM      7  C   UNL     1       4.426  -3.134   3.311  0.00  0.00    +0.261 C 
ATOM      8  O   UNL     1       4.835  -3.427   2.066  0.00  0.00    -0.272 OA
ATOM      9  N   UNL     1       5.172  -3.456   4.329  0.00  0.00    -0.126 NA
ATOM     10  C   UNL     1       4.783  -3.208   5.591  0.00  0.00    +0.327 C 
ATOM     11  O   UNL     1       5.602  -3.273   6.490  0.00  0.00    -0.250 OA
BRANCH   5  12
ATOM     12  N   UNL     1       1.969  -4.274   4.670  0.00  0.00    +0.392 N 
ATOM     13  H   UNL     1       1.563  -4.587   5.539  0.00  0.00    -0.087 HD
ATOM     14  H   UNL     1       1.264  -4.282   3.947  0.00  0.00    -0.087 HD
ATOM     15  H   UNL     1       2.724  -4.890   4.410  0.00  0.00    -0.087 HD
ENDBRANCH   5  12
BRANCH   4  16
ATOM     16  C   UNL     1       3.143  -2.533   7.255  0.00  0.00    +0.107 C 
BRANCH  16  17
ATOM     17  C   UNL     1       3.405  -1.042   7.476  0.00  0.00    +0.019 C 
BRANCH  17  19
ATOM     18  C   UNL     1       3.284   0.822   9.136  0.00  0.00    +0.004 C 
ATOM     19  C   UNL     1       3.141  -0.689   8.941  0.00  0.00    -0.002 C 
ENDBRANCH  17  19
ENDBRANCH  16  17
ENDBRANCH   4  16
ENDBRANCH   1   6
BRANCH   1  20
ATOM     20  C   UNL     1       4.688  -0.448   3.538  0.00  0.00    +0.143 C 
BRANCH  20  21
ATOM     21  C   UNL     1       5.019  -0.018   2.132  0.00  0.00    -0.030 A 
ATOM     22  C   UNL     1       5.577  -0.922   1.247  0.00  0.00    +0.005 A 
ATOM     23  C   UNL     1       5.882  -0.528  -0.043  0.00  0.00    +0.000 A 
ATOM     24  C   UNL     1       5.628   0.769  -0.448  0.00  0.00    +0.000 A 
ATOM     25  C   UNL     1       5.069   1.672   0.437  0.00  0.00    +0.000 A 
ATOM     26  C   UNL     1       4.761   1.277   1.726  0.00  0.00    +0.005 A 
ENDBRANCH  20  21
ENDBRANCH   1  20
BRANCH   2  27
ATOM     27  C   UNL     1       2.489   1.342   3.611  0.00  0.00    +0.100 C 
BRANCH  27  28
ATOM     28  C   UNL     1       1.176   2.059   3.932  0.00  0.00    +0.042 C 
BRANCH  28  29
ATOM     29  C   UNL     1       1.362   3.545   3.766  0.00  0.00    -0.041 C 
ATOM     30  C   UNL     1       1.095   4.280   2.662  0.00  0.00    -0.001 A 
ATOM     31  C   UNL     1       0.574   3.928   1.335  0.00  0.00    +0.010 A 
ATOM     32  C   UNL     1       0.412   4.904   0.414  0.00  0.00    +0.001 A 
ATOM     33  C   UNL     1       0.729   6.241   0.693  0.00  0.00    +0.002 A 
ATOM     34  C   UNL     1       1.213   6.641   1.888  0.00  0.00    +0.026 A 
ATOM     35  C   UNL     1       1.422   5.698   2.931  0.00  0.00    +0.043 A 
ATOM     36  N   UNL     1       1.873   5.835   4.155  0.00  0.00    -0.380 N 
ATOM     37  C   UNL     1       1.877   4.519   4.802  0.00  0.00    +0.144 C 
ATOM     38  H   UNL     1       2.153   6.668   4.565  0.00  0.00    +0.160 HD
ENDBRANCH  28  29
ENDBRANCH  27  28
ENDBRANCH   2  27
TORSDOF 10
