REMARK  Name = ZINC19910309
REMARK  5 active torsions:
REMARK  status: ('A' for Active; 'I' for Inactive)
REMARK    1  A    between atoms: C_1  and  C_2
REMARK    2  A    between atoms: C_3  and  C_17
REMARK    3  A    between atoms: C_4  and  C_11
REMARK    4  A    between atoms: C_5  and  C_9
REMARK    5  A    between atoms: C_6  and  C_8
REMARK                            x       y       z     vdW  Elec       q    Type
REMARK                         _______ _______ _______ _____ _____    ______ ____
ROOT
ATOM      1  C   UNL     1      -0.310   5.613   0.801  0.00  0.00    +0.061 C 
ATOM      2  C   UNL     1      -0.149   4.169   0.401  0.00  0.00    +0.019 C 
ATOM      3  C   UNL     1       1.073   3.613   0.401  0.00  0.00    +0.060 C 
ATOM      4  C   UNL     1       1.283   2.180   0.002  0.00  0.00    +0.121 C 
ATOM      5  C   UNL     1      -0.017   1.428   0.010  0.00  0.00    +0.060 C 
ATOM      6  C   UNL     1      -1.197   2.068   0.019  0.00  0.00    +0.019 C 
ATOM      7  N   UNL     1      -1.252   3.438   0.040  0.00  0.00    -0.320 N 
ATOM      8  C   UNL     1      -2.477   1.272   0.011  0.00  0.00    +0.061 C 
ATOM      9  H   UNL     1      -2.186   3.951  -0.233  0.00  0.00    +0.152 HD
ENDROOT
BRANCH   4  10
ATOM     10  C   UNL     1       1.874   2.133  -1.384  0.00  0.00    +0.049 A 
ATOM     11  C   UNL     1       1.196   2.151  -2.547  0.00  0.00    +0.134 A 
ATOM     12  N   UNL     1       2.087   2.095  -3.548  0.00  0.00    -0.244 NA
ATOM     13  C   UNL     1       3.291   2.044  -3.050  0.00  0.00    +0.196 A 
ATOM     14  N   UNL     1       3.204   2.071  -1.702  0.00  0.00    -0.347 N 
ATOM     15  H   UNL     1       3.960   2.052  -0.904  0.00  0.00    +0.167 HD
ENDBRANCH   4  10
BRANCH   5  16
ATOM     16  C   UNL     1       0.002  -0.004   0.002  0.00  0.00    +0.097 C 
ATOM     17  N   UNL     1       0.018  -1.140  -0.004  0.00  0.00    -0.191 NA
ENDBRANCH   5  16
BRANCH   3  18
ATOM     18  C   UNL     1       2.202   4.403   0.792  0.00  0.00    +0.097 C 
ATOM     19  N   UNL     1       3.097   5.030   1.101  0.00  0.00    -0.191 NA
ENDBRANCH   3  18
TORSDOF 3
