REMARK  Name = ZINC11251540
REMARK  3 active torsions:
REMARK  status: ('A' for Active; 'I' for Inactive)
REMARK    1  A    between atoms: C_7  and  S_9
REMARK    2  A    between atoms: S_9  and  C_10
REMARK    3  A    between atoms: C_10  and  C_11
REMARK                            x       y       z     vdW  Elec       q    Type
REMARK                         _______ _______ _______ _____ _____    ______ ____
ROOT
ATOM      1  C   UNL     1       4.751  -4.505   1.235  0.00  0.00    +0.121 A 
ATOM      2  N   UNL     1       5.940  -5.157   1.156  0.00  0.00    -0.310 N 
ATOM      3  H   UNL     1       6.763  -4.644   1.141  0.00  0.00    +0.170 HD
ATOM      4  C   UNL     1       5.999  -6.501   1.099  0.00  0.00    +0.260 A 
ATOM      5  O   UNL     1       7.073  -7.072   1.028  0.00  0.00    -0.267 OA
ATOM      6  C   UNL     1       4.776  -7.246   1.123  0.00  0.00    +0.075 A 
ATOM      7  C   UNL     1       4.602  -8.706   1.071  0.00  0.00    -0.023 A 
ATOM      8  C   UNL     1       3.341  -9.169   1.107  0.00  0.00    -0.004 A 
ATOM      9  S   UNL     1       2.321  -7.716   1.213  0.00  0.00    -0.073 S 
ATOM     10  C   UNL     1       3.600  -6.488   1.206  0.00  0.00    +0.116 A 
ATOM     11  N   UNL     1       3.621  -5.159   1.264  0.00  0.00    -0.226 NA
ATOM     12  C   UNL     1       3.285 -10.671   1.043  0.00  0.00    +0.043 C 
ATOM     13  C   UNL     1       4.679 -11.089   0.527  0.00  0.00    +0.010 C 
ATOM     14  C   UNL     1       5.551  -9.904   0.985  0.00  0.00    +0.037 C 
ENDROOT
BRANCH   1  15
ATOM     15  C   UNL     1       4.736  -2.999   1.297  0.00  0.00    +0.151 C 
BRANCH  15  16
ATOM     16  S   UNL     1       3.022  -2.416   1.405  0.00  0.00    -0.085 S 
BRANCH  16  23
ATOM     17  C   UNL     1      -0.239   1.301   2.737  0.00  0.00    +0.003 C 
ATOM     18  C   UNL     1      -0.230  -0.187   2.380  0.00  0.00    +0.019 C 
ATOM     19  C   UNL     1       0.726  -0.421   1.206  0.00  0.00    +0.107 C 
ATOM     20  N   UNL     1       2.045   0.123   1.556  0.00  0.00    -0.312 N 
ATOM     21  C   UNL     1       2.138   1.520   2.001  0.00  0.00    +0.107 C 
ATOM     22  C   UNL     1       1.166   1.733   3.165  0.00  0.00    +0.019 C 
ATOM     23  C   UNL     1       3.172  -0.661   1.469  0.00  0.00    +0.128 C 
ATOM     24  N   UNL     1       4.352  -0.106   1.433  0.00  0.00    -0.382 N 
ATOM     25  H   UNL     1       5.149  -0.659   1.456  0.00  0.00    +0.158 HD
ATOM     26  H   UNL     1       4.432   0.859   1.385  0.00  0.00    +0.158 HD
ENDBRANCH  16  23
ENDBRANCH  15  16
ENDBRANCH   1  15
TORSDOF 3
