REMARK  Name = ZINC57943430
REMARK  8 active torsions:
REMARK  status: ('A' for Active; 'I' for Inactive)
REMARK    1  A    between atoms: C_1  and  C_2
REMARK    2  A    between atoms: C_7  and  N_12
REMARK    3  A    between atoms: C_9  and  C_11
REMARK    4  A    between atoms: N_12  and  C_13
REMARK    5  A    between atoms: C_13  and  C_15
REMARK    6  A    between atoms: C_13  and  C_16
REMARK    7  A    between atoms: N_18  and  C_19
REMARK    8  A    between atoms: C_19  and  C_25
REMARK                            x       y       z     vdW  Elec       q    Type
REMARK                         _______ _______ _______ _____ _____    ______ ____
ROOT
ATOM      1  C   UNL     1       1.487  -3.991   2.550  0.00  0.00    +0.013 C 
ATOM      2  C   UNL     1       2.339  -4.592   1.431  0.00  0.00    -0.004 C 
ENDROOT
BRANCH   1   3
ATOM      3  C   UNL     1       2.069  -4.373   3.887  0.00  0.00    +0.200 C 
ATOM      4  O   UNL     1       2.437  -3.512   4.657  0.00  0.00    -0.278 OA
ATOM      5  N   UNL     1       2.182  -5.673   4.226  0.00  0.00    -0.299 N 
ATOM      6  H   UNL     1       1.888  -6.362   3.609  0.00  0.00    +0.150 HD
BRANCH   5   7
ATOM      7  C   UNL     1       2.748  -6.045   5.524  0.00  0.00    +0.121 C 
ATOM      8  C   UNL     1       4.178  -5.511   5.629  0.00  0.00    +0.041 C 
ATOM      9  C   UNL     1       4.769  -5.899   6.986  0.00  0.00    +0.003 C 
ATOM     10  C   UNL     1       4.784  -7.423   7.118  0.00  0.00    +0.000 C 
ATOM     11  C   UNL     1       3.354  -7.958   7.013  0.00  0.00    +0.003 C 
ATOM     12  C   UNL     1       2.762  -7.569   5.657  0.00  0.00    +0.041 C 
BRANCH   7  13
ATOM     13  C   UNL     1       1.928  -5.466   6.601  0.00  0.00    +0.088 C 
ATOM     14  N   UNL     1       1.295  -5.020   7.432  0.00  0.00    -0.194 NA
ENDBRANCH   7  13
ENDBRANCH   5   7
ENDBRANCH   1   3
BRANCH   1  15
ATOM     15  N   UNL     1       1.473  -2.527   2.423  0.00  0.00    +0.388 N 
ATOM     16  H   UNL     1       1.192  -2.274   1.488  0.00  0.00    -0.084 HD
ATOM     17  H   UNL     1       2.397  -2.165   2.606  0.00  0.00    -0.084 HD
BRANCH  15  23
ATOM     18  C   UNL     1      -0.280   1.684   4.338  0.00  0.00    +0.008 C 
ATOM     19  C   UNL     1      -0.372   0.157   4.368  0.00  0.00    -0.013 C 
ATOM     20  C   UNL     1      -1.793  -0.276   4.002  0.00  0.00    +0.003 C 
ATOM     21  C   UNL     1      -1.885  -1.803   4.033  0.00  0.00    -0.001 C 
ATOM     22  C   UNL     1      -0.897  -2.393   3.025  0.00  0.00    -0.015 C 
ATOM     23  C   UNL     1       0.524  -1.960   3.391  0.00  0.00    -0.068 C 
ATOM     24  C   UNL     1       0.616  -0.433   3.360  0.00  0.00    -0.025 C 
ATOM     25  C   UNL     1       2.037  -0.001   3.726  0.00  0.00    +0.006 C 
ENDBRANCH  15  23
ENDBRANCH   1  15
TORSDOF 5
