REMARK  Name = ZINC67010351
REMARK  11 active torsions:
REMARK  status: ('A' for Active; 'I' for Inactive)
REMARK    1  A    between atoms: C_1  and  C_2
REMARK    2  A    between atoms: C_2  and  C_4
REMARK    3  A    between atoms: C_2  and  N_15
REMARK    4  A    between atoms: C_8  and  S_10
REMARK    5  A    between atoms: S_10  and  N_13
REMARK    6  A    between atoms: N_13  and  C_14
REMARK    7  A    between atoms: N_15  and  C_16
REMARK    8  A    between atoms: C_16  and  C_17
REMARK    9  A    between atoms: C_20  and  N_26
REMARK   10  A    between atoms: C_21  and  N_23
REMARK   11  A    between atoms: N_26  and  C_27
REMARK                            x       y       z     vdW  Elec       q    Type
REMARK                         _______ _______ _______ _____ _____    ______ ____
ROOT
ATOM      1  N   UNL     1      -1.312  -0.134  -0.539  0.00  0.00    +0.386 N 
ATOM      2  H   UNL     1      -1.219  -1.107  -0.289  0.00  0.00    -0.085 HD
ATOM      3  H   UNL     1      -1.744   0.369   0.221  0.00  0.00    -0.085 HD
ENDROOT
BRANCH   1   5
ATOM      4  C   UNL     1      -0.110   1.933  -1.065  0.00  0.00    -0.009 C 
ATOM      5  C   UNL     1       0.018   0.430  -0.808  0.00  0.00    -0.044 C 
BRANCH   5   6
ATOM      6  C   UNL     1       0.912   0.199   0.383  0.00  0.00    -0.060 A 
ATOM      7  C   UNL     1       0.408   0.335   1.663  0.00  0.00    +0.002 A 
ATOM      8  C   UNL     1       1.228   0.123   2.755  0.00  0.00    +0.002 A 
ATOM      9  C   UNL     1       2.553  -0.227   2.567  0.00  0.00    +0.028 A 
ATOM     10  C   UNL     1       3.056  -0.364   1.287  0.00  0.00    +0.105 A 
ATOM     11  C   UNL     1       2.235  -0.156   0.195  0.00  0.00    +0.030 A 
BRANCH  10  12
ATOM     12  S   UNL     1       4.744  -0.809   1.048  0.00  0.00    +0.058 S 
ATOM     13  O   UNL     1       5.109  -0.340  -0.243  0.00  0.00    -0.153 OA
ATOM     14  O   UNL     1       5.438  -0.417   2.224  0.00  0.00    -0.153 OA
BRANCH  12  15
ATOM     15  N   UNL     1       4.811  -2.462   0.987  0.00  0.00    -0.193 NA
ATOM     16  C   UNL     1       4.157  -3.182  -0.109  0.00  0.00    +0.127 C 
ATOM     17  H   UNL     1       5.283  -2.954   1.677  0.00  0.00    +0.148 HD
ENDBRANCH  12  15
ENDBRANCH  10  12
ENDBRANCH   5   6
ENDBRANCH   1   5
BRANCH   1  18
ATOM     18  C   UNL     1      -2.146  -0.015  -1.742  0.00  0.00    -0.046 C 
BRANCH  18  19
ATOM     19  C   UNL     1      -3.510  -0.595  -1.466  0.00  0.00    -0.062 A 
ATOM     20  C   UNL     1      -3.751  -1.936  -1.706  0.00  0.00    +0.003 A 
ATOM     21  C   UNL     1      -4.999  -2.470  -1.454  0.00  0.00    +0.025 A 
ATOM     22  C   UNL     1      -6.013  -1.659  -0.959  0.00  0.00    +0.057 A 
ATOM     23  C   UNL     1      -5.768  -0.313  -0.720  0.00  0.00    +0.147 A 
ATOM     24  C   UNL     1      -4.515   0.214  -0.969  0.00  0.00    +0.036 A 
BRANCH  23  25
ATOM     25  N   UNL     1      -6.845   0.554  -0.194  0.00  0.00    +0.058 N 
ATOM     26  O   UNL     1      -7.984   0.401  -0.571  0.00  0.00    -0.126 OA
ATOM     27  O   UNL     1      -6.587   1.417   0.613  0.00  0.00    -0.126 OA
ENDBRANCH  23  25
BRANCH  22  28
ATOM     28  N   UNL     1      -7.277  -2.196  -0.704  0.00  0.00    -0.345 N 
ATOM     29  C   UNL     1      -7.573  -3.582  -1.077  0.00  0.00    +0.125 C 
ATOM     30  H   UNL     1      -7.959  -1.652  -0.280  0.00  0.00    +0.146 HD
ENDBRANCH  22  28
ENDBRANCH  18  19
ENDBRANCH   1  18
TORSDOF 8
