REMARK  Name = ZINC40067565
REMARK  2 active torsions:
REMARK  status: ('A' for Active; 'I' for Inactive)
REMARK    1  A    between atoms: N_12  and  C_15
REMARK    2  A    between atoms: C_15  and  C_16
REMARK                            x       y       z     vdW  Elec       q    Type
REMARK                         _______ _______ _______ _____ _____    ______ ____
ROOT
ATOM      1  C   UNL     1      -0.017   1.379   0.010  0.00  0.00    +0.084 A 
ATOM      2  C   UNL     1       1.201   2.061   0.002  0.00  0.00    +0.128 A 
ATOM      3  N   UNL     1       2.332   1.362  -0.013  0.00  0.00    -0.200 NA
ATOM      4  C   UNL     1       2.308   0.038  -0.020  0.00  0.00    +0.216 A 
ATOM      5  N   UNL     1       1.168  -0.636  -0.013  0.00  0.00    -0.203 NA
ATOM      6  C   UNL     1       0.002  -0.004   0.002  0.00  0.00    +0.136 A 
ATOM      7 CL   UNL     1      -1.484  -0.902   0.012  0.00  0.00    -0.062 Cl
ATOM      8  N   UNL     1       3.504  -0.658  -0.035  0.00  0.00    -0.327 N 
ATOM      9  N   UNL     1       1.231   3.446   0.008  0.00  0.00    -0.319 N 
ATOM     10  C   UNL     1       2.502   4.176  -0.116  0.00  0.00    +0.088 C 
ATOM     11  C   UNL     1       2.578   5.214   1.009  0.00  0.00    -0.059 C 
ATOM     12  N   UNL     1       1.383   6.066   0.969  0.00  0.00    +0.386 N 
ATOM     13  C   UNL     1       0.186   5.263   1.252  0.00  0.00    -0.059 C 
ATOM     14  C   UNL     1      -0.009   4.228   0.134  0.00  0.00    +0.088 C 
ATOM     15  H   UNL     1       4.345  -0.177  -0.041  0.00  0.00    +0.145 HD
ATOM     16  H   UNL     1       3.500  -1.629  -0.041  0.00  0.00    +0.145 HD
ATOM     17  H   UNL     1       1.298   6.482   0.054  0.00  0.00    -0.081 HD
ENDROOT
BRANCH  12  18
ATOM     18  C   UNL     1       1.508   7.128   1.976  0.00  0.00    -0.003 C 
BRANCH  18  19
ATOM     19  C   UNL     1       0.342   8.075   1.855  0.00  0.00    +0.095 A 
ATOM     20  N   UNL     1      -0.566   7.849   0.945  0.00  0.00    -0.197 NA
ATOM     21  C   UNL     1      -1.631   8.648   0.777  0.00  0.00    +0.282 A 
ATOM     22  O   UNL     1      -2.459   8.402  -0.085  0.00  0.00    -0.265 OA
ATOM     23  C   UNL     1      -1.785   9.830   1.654  0.00  0.00    +0.075 A 
ATOM     24  C   UNL     1      -2.847  10.836   1.660  0.00  0.00    -0.023 A 
ATOM     25  C   UNL     1      -2.748  11.824   2.573  0.00  0.00    -0.004 A 
ATOM     26  S   UNL     1      -1.255  11.474   3.464  0.00  0.00    -0.075 S 
ATOM     27  C   UNL     1      -0.772  10.002   2.602  0.00  0.00    +0.092 A 
ATOM     28  N   UNL     1       0.263   9.129   2.692  0.00  0.00    -0.339 N 
ATOM     29  C   UNL     1      -3.695  12.965   2.784  0.00  0.00    +0.043 C 
ATOM     30  C   UNL     1      -4.616  13.062   1.559  0.00  0.00    +0.005 C 
ATOM     31  C   UNL     1      -5.151  11.664   1.236  0.00  0.00    +0.005 C 
ATOM     32  C   UNL     1      -4.023  10.789   0.688  0.00  0.00    +0.037 C 
ATOM     33  H   UNL     1       0.953   9.266   3.361  0.00  0.00    +0.167 HD
ENDBRANCH  18  19
ENDBRANCH  12  18
TORSDOF 2
