REMARK  Name = ZINC04042590
REMARK  9 active torsions:
REMARK  status: ('A' for Active; 'I' for Inactive)
REMARK    1  A    between atoms: C_1  and  C_2
REMARK    2  A    between atoms: C_2  and  C_3
REMARK    3  A    between atoms: C_2  and  C_4
REMARK    4  A    between atoms: C_7  and  C_18
REMARK    5  A    between atoms: C_13  and  N_17
REMARK    6  A    between atoms: C_14  and  C_15
REMARK    7  A    between atoms: C_18  and  C_19
REMARK    8  A    between atoms: C_18  and  C_20
REMARK    9  A    between atoms: C_18  and  C_21
REMARK                            x       y       z     vdW  Elec       q    Type
REMARK                         _______ _______ _______ _____ _____    ______ ____
ROOT
ATOM      1  C   UNL     1      -0.865   1.019   1.702  0.00  0.00    +0.074 C 
ATOM      2  C   UNL     1      -0.734   0.781   0.220  0.00  0.00    +0.046 A 
ATOM      3  C   UNL     1      -1.441   1.353  -0.829  0.00  0.00    +0.076 A 
ATOM      4  N   UNL     1      -0.987   0.847  -1.951  0.00  0.00    -0.175 NA
ATOM      5  N   UNL     1       0.031  -0.070  -1.644  0.00  0.00    -0.246 N 
ATOM      6  H   UNL     1       0.542  -0.591  -2.283  0.00  0.00    +0.192 HD
ATOM      7  C   UNL     1       0.171  -0.097  -0.309  0.00  0.00    +0.222 A 
ATOM      8  O   UNL     1       1.019  -0.826   0.459  0.00  0.00    -0.423 OA
ATOM      9  C   UNL     1       0.775  -0.876   1.784  0.00  0.00    +0.200 C 
ATOM     10  C   UNL     1      -0.087  -0.053   2.423  0.00  0.00    +0.094 C 
ENDROOT
BRANCH   3  11
ATOM     11  C   UNL     1      -2.539   2.377  -0.701  0.00  0.00    +0.007 C 
ATOM     12  C   UNL     1      -1.985   3.764  -1.033  0.00  0.00    +0.017 C 
ATOM     13  C   UNL     1      -3.671   2.035  -1.671  0.00  0.00    +0.017 C 
ATOM     14  C   UNL     1      -3.076   2.372   0.732  0.00  0.00    +0.017 C 
ENDBRANCH   3  11
BRANCH   1  16
ATOM     15  C   UNL     1      -1.105   3.480   1.339  0.00  0.00    +0.008 C 
ATOM     16  C   UNL     1      -0.297   2.396   2.055  0.00  0.00    -0.004 C 
ATOM     17  C   UNL     1      -0.385   2.610   3.568  0.00  0.00    +0.008 C 
ENDBRANCH   1  16
BRANCH   9  18
ATOM     18  N   UNL     1       1.440  -1.819   2.528  0.00  0.00    -0.328 N 
ATOM     19  H   UNL     1       2.065  -2.423   2.099  0.00  0.00    +0.145 HD
ATOM     20  H   UNL     1       1.285  -1.879   3.484  0.00  0.00    +0.145 HD
ENDBRANCH   9  18
BRANCH  10  21
ATOM     21  C   UNL     1      -0.268  -0.204   3.835  0.00  0.00    +0.100 C 
ATOM     22  N   UNL     1      -0.412  -0.324   4.956  0.00  0.00    -0.191 NA
ENDBRANCH  10  21
TORSDOF 4
