REMARK  Name = ZINC50371024
REMARK  5 active torsions:
REMARK  status: ('A' for Active; 'I' for Inactive)
REMARK    1  A    between atoms: C_1  and  O_2
REMARK    2  A    between atoms: O_2  and  C_3
REMARK    3  A    between atoms: C_8  and  N_10
REMARK    4  A    between atoms: N_10  and  C_11
REMARK    5  A    between atoms: C_13  and  C_15
REMARK                            x       y       z     vdW  Elec       q    Type
REMARK                         _______ _______ _______ _____ _____    ______ ____
ROOT
ATOM      1  C   UNL     1       0.149  -3.503   1.929  0.00  0.00    -0.070 C 
ATOM      2  C   UNL     1      -0.143  -3.310   3.426  0.00  0.00    -0.008 C 
ATOM      3  C   UNL     1       1.370  -3.110   3.615  0.00  0.00    +0.016 C 
ATOM      4  C   UNL     1       1.561  -3.952   2.343  0.00  0.00    -0.008 C 
ENDROOT
BRANCH   3   5
ATOM      5  C   UNL     1       1.915  -3.763   4.859  0.00  0.00    -0.044 A 
ATOM      6  C   UNL     1       1.803  -5.131   5.026  0.00  0.00    +0.005 A 
ATOM      7  C   UNL     1       2.303  -5.731   6.167  0.00  0.00    +0.015 A 
ATOM      8  C   UNL     1       2.915  -4.963   7.141  0.00  0.00    +0.018 A 
ATOM      9  C   UNL     1       3.026  -3.594   6.973  0.00  0.00    +0.015 A 
ATOM     10  C   UNL     1       2.531  -2.996   5.830  0.00  0.00    +0.005 A 
ATOM     11 BR   UNL     1       3.598  -5.783   8.702  0.00  0.00    -0.050 Br
ENDBRANCH   3   5
BRANCH   1  12
ATOM     12  N   UNL     1       0.132  -2.252   1.159  0.00  0.00    +0.384 N 
ATOM     13  H   UNL     1       0.736  -2.342   0.357  0.00  0.00    -0.085 HD
ATOM     14  H   UNL     1       0.457  -1.495   1.741  0.00  0.00    -0.085 HD
BRANCH  12  19
ATOM     15  C   UNL     1      -1.295  -0.603   0.011  0.00  0.00    +0.104 C 
ATOM     16  C   UNL     1      -1.767  -0.865  -1.434  0.00  0.00    +0.030 C 
ATOM     17  C   UNL     1      -2.527  -2.212  -1.348  0.00  0.00    +0.001 C 
ATOM     18  C   UNL     1      -1.677  -3.019  -0.335  0.00  0.00    -0.013 C 
ATOM     19  C   UNL     1      -1.239  -1.972   0.711  0.00  0.00    -0.042 C 
BRANCH  15  21
ATOM     20  C   UNL     1      -0.017   1.425   0.010  0.00  0.00    +0.194 C 
ATOM     21  O   UNL     1       0.002  -0.004   0.002  0.00  0.00    -0.381 OA
ENDBRANCH  15  21
ENDBRANCH  12  19
ENDBRANCH   1  12
TORSDOF 4
