REMARK  Name = ZINC51208805
REMARK  8 active torsions:
REMARK  status: ('A' for Active; 'I' for Inactive)
REMARK    1  A    between atoms: C_1  and  C_2
REMARK    2  A    between atoms: N_8  and  C_9
REMARK    3  A    between atoms: C_9  and  C_10
REMARK    4  A    between atoms: C_10  and  C_15
REMARK    5  A    between atoms: C_15  and  N_16
REMARK    6  A    between atoms: N_16  and  C_17
REMARK    7  A    between atoms: C_17  and  C_18
REMARK    8  A    between atoms: C_17  and  C_19
REMARK                            x       y       z     vdW  Elec       q    Type
REMARK                         _______ _______ _______ _____ _____    ______ ____
ROOT
ATOM      1  C   UNL     1       0.980  -0.352   3.558  0.00  0.00    -0.059 C 
ATOM      2  C   UNL     1       2.382   0.260   3.364  0.00  0.00    +0.003 C 
ATOM      3  C   UNL     1       3.349  -0.834   3.880  0.00  0.00    +0.000 C 
ATOM      4  C   UNL     1       2.675  -2.142   3.396  0.00  0.00    +0.000 C 
ATOM      5  C   UNL     1       1.166  -1.879   3.579  0.00  0.00    +0.003 C 
ENDROOT
BRANCH   1   6
ATOM      6  C   UNL     1       0.067   0.050   2.397  0.00  0.00    -0.073 C 
BRANCH   6  13
ATOM      7  C   UNL     1      -2.547   0.922   1.861  0.00  0.00    -0.013 C 
ATOM      8  C   UNL     1      -1.334   1.805   1.562  0.00  0.00    -0.072 C 
ATOM      9  C   UNL     1      -1.725   3.276   1.720  0.00  0.00    -0.016 C 
ATOM     10  C   UNL     1      -0.508   4.157   1.419  0.00  0.00    -0.003 C 
ATOM     11  C   UNL     1       0.641   3.758   2.350  0.00  0.00    -0.019 C 
ATOM     12  C   UNL     1       0.943   2.269   2.169  0.00  0.00    -0.078 C 
ATOM     13  N   UNL     1      -0.251   1.480   2.497  0.00  0.00    +0.382 N 
ATOM     14  H   UNL     1      -0.545   1.693   3.438  0.00  0.00    -0.081 HD
ENDBRANCH   6  13
ENDBRANCH   1   6
BRANCH   1  15
ATOM     15  C   UNL     1       0.379   0.121   4.884  0.00  0.00    -0.077 C 
BRANCH  15  16
ATOM     16  N   UNL     1       1.264  -0.271   5.989  0.00  0.00    +0.381 N 
ATOM     17  H   UNL     1       1.361  -1.275   6.003  0.00  0.00    -0.086 HD
ATOM     18  H   UNL     1       2.171   0.153   5.861  0.00  0.00    -0.086 HD
BRANCH  16  19
ATOM     19  C   UNL     1       0.688   0.183   7.262  0.00  0.00    -0.078 C 
ATOM     20  C   UNL     1      -0.629  -0.554   7.517  0.00  0.00    -0.014 C 
ATOM     21  C   UNL     1       1.667  -0.114   8.400  0.00  0.00    -0.014 C 
ENDBRANCH  16  19
ENDBRANCH  15  16
ENDBRANCH   1  15
TORSDOF 5
