REMARK  Name = ZINC06443943
REMARK  5 active torsions:
REMARK  status: ('A' for Active; 'I' for Inactive)
REMARK    1  A    between atoms: C_1  and  C_2
REMARK    2  A    between atoms: C_12  and  C_14
REMARK    3  A    between atoms: C_14  and  C_16
REMARK    4  A    between atoms: C_14  and  N_70
REMARK    5  A    between atoms: N_20  and  C_21
REMARK                            x       y       z     vdW  Elec       q    Type
REMARK                         _______ _______ _______ _____ _____    ______ ____
ROOT
ATOM      1  C   UNL     1       0.088  -2.864   4.922  0.00  0.00    +0.039 C 
ENDROOT
BRANCH   1  13
ATOM      2  C   UNL     1      -0.073   1.720   0.214  0.00  0.00    +0.046 C 
ATOM      3  C   UNL     1      -0.142   0.217   0.142  0.00  0.00    -0.026 A 
ATOM      4  C   UNL     1      -0.267  -0.412  -1.078  0.00  0.00    +0.005 A 
ATOM      5  C   UNL     1      -0.326  -1.797  -1.159  0.00  0.00    +0.001 A 
ATOM      6  C   UNL     1      -0.274  -2.562  -0.028  0.00  0.00    +0.010 A 
ATOM      7  C   UNL     1      -0.153  -1.945   1.221  0.00  0.00    -0.001 A 
ATOM      8  C   UNL     1      -0.087  -0.541   1.306  0.00  0.00    +0.052 A 
ATOM      9  N   UNL     1       0.033   0.061   2.541  0.00  0.00    -0.322 N 
ATOM     10  H   UNL     1       0.079   1.029   2.598  0.00  0.00    +0.169 HD
ATOM     11  C   UNL     1       0.086  -0.672   3.666  0.00  0.00    +0.251 A 
ATOM     12  O   UNL     1       0.192  -0.105   4.740  0.00  0.00    -0.268 OA
ATOM     13  C   UNL     1       0.024  -2.082   3.635  0.00  0.00    +0.011 A 
ATOM     14  C   UNL     1      -0.094  -2.735   2.453  0.00  0.00    +0.017 A 
ENDBRANCH   1  13
BRANCH   1  25
ATOM     15  C   UNL     1       1.296  -3.084   7.008  0.00  0.00    -0.077 C 
ATOM     16  C   UNL     1       2.482  -2.545   7.811  0.00  0.00    -0.018 C 
ATOM     17  C   UNL     1       3.783  -2.874   7.074  0.00  0.00    +0.003 C 
ATOM     18  C   UNL     1       3.731  -2.270   5.668  0.00  0.00    -0.044 C 
ATOM     19  C   UNL     1       2.509  -2.817   4.927  0.00  0.00    -0.071 C 
ATOM     20  C   UNL     1       3.626  -0.748   5.772  0.00  0.00    +0.005 C 
ATOM     21  C   UNL     1       3.576  -0.142   4.368  0.00  0.00    +0.000 C 
ATOM     22  C   UNL     1       4.849  -0.515   3.606  0.00  0.00    +0.000 C 
ATOM     23  C   UNL     1       4.952  -2.038   3.500  0.00  0.00    +0.000 C 
ATOM     24  C   UNL     1       5.002  -2.644   4.904  0.00  0.00    +0.005 C 
ATOM     25  N   UNL     1       1.288  -2.446   5.675  0.00  0.00    +0.390 N 
ATOM     26  H   UNL     1       1.268  -1.426   5.794  0.00  0.00    -0.080 HD
ENDBRANCH   1  25
BRANCH   1  27
ATOM     27  C   UNL     1      -1.137  -2.572   5.749  0.00  0.00    +0.143 A 
ATOM     28  N   UNL     1      -1.376  -1.482   6.436  0.00  0.00    -0.115 NA
ATOM     29  N   UNL     1      -2.525  -1.612   7.004  0.00  0.00    -0.023 NA
ATOM     30  N   UNL     1      -3.022  -2.761   6.703  0.00  0.00    -0.044 NA
ATOM     31  N   UNL     1      -2.196  -3.383   5.932  0.00  0.00    -0.227 N 
BRANCH  31  32
ATOM     32  C   UNL     1      -2.376  -4.720   5.360  0.00  0.00    +0.111 C 
ATOM     33  C   UNL     1      -3.671  -4.766   4.523  0.00  0.00    +0.027 C 
ATOM     34  C   UNL     1      -4.247  -6.180   4.794  0.00  0.00    +0.002 C 
ATOM     35  C   UNL     1      -3.932  -6.396   6.295  0.00  0.00    +0.002 C 
ATOM     36  C   UNL     1      -2.542  -5.756   6.486  0.00  0.00    +0.027 C 
ENDBRANCH  31  32
ENDBRANCH   1  27
TORSDOF 4
