REMARK  Name = ZINC40747989
REMARK  6 active torsions:
REMARK  status: ('A' for Active; 'I' for Inactive)
REMARK    1  A    between atoms: C_1  and  C_2
REMARK    2  A    between atoms: C_2  and  N_3
REMARK    3  A    between atoms: N_3  and  C_4
REMARK    4  A    between atoms: N_3  and  S_14
REMARK    5  A    between atoms: S_14  and  C_17
REMARK    6  A    between atoms: N_20  and  C_22
REMARK                            x       y       z     vdW  Elec       q    Type
REMARK                         _______ _______ _______ _____ _____    ______ ____
ROOT
ATOM      1  N   UNL     1      -1.377  -0.488  -0.106  0.00  0.00    -0.174 NA
ENDROOT
BRANCH   1   2
ATOM      2  C   UNL     1      -1.994  -0.653  -1.424  0.00  0.00    +0.077 C 
ATOM      3  C   UNL     1      -1.262  -1.755  -2.195  0.00  0.00    +0.005 C 
ATOM      4  C   UNL     1      -1.820  -1.817  -3.625  0.00  0.00    -0.070 C 
ATOM      5  C   UNL     1      -3.364  -1.834  -3.530  0.00  0.00    -0.017 C 
ATOM      6  C   UNL     1      -3.775  -0.347  -3.525  0.00  0.00    -0.017 C 
ATOM      7  C   UNL     1      -2.443   0.433  -3.618  0.00  0.00    -0.070 C 
ATOM      8  C   UNL     1      -1.904   0.666  -2.197  0.00  0.00    +0.005 C 
ATOM      9  N   UNL     1      -1.494  -0.524  -4.282  0.00  0.00    +0.383 N 
ATOM     10  H   UNL     1      -0.534  -0.269  -4.108  0.00  0.00    -0.085 HD
ATOM     11  H   UNL     1      -1.676  -0.573  -5.274  0.00  0.00    -0.085 HD
ENDBRANCH   1   2
BRANCH   1  12
ATOM     12  S   UNL     1      -2.307  -0.577   1.261  0.00  0.00    +0.063 S 
ATOM     13  O   UNL     1      -3.455  -1.343   0.922  0.00  0.00    -0.153 OA
ATOM     14  O   UNL     1      -1.435  -0.941   2.323  0.00  0.00    -0.153 OA
BRANCH  12  15
ATOM     15  C   UNL     1      -2.875   1.053   1.613  0.00  0.00    +0.123 A 
ATOM     16  C   UNL     1      -2.221   2.010   2.412  0.00  0.00    +0.047 A 
ATOM     17  C   UNL     1      -2.987   3.120   2.423  0.00  0.00    +0.087 A 
ATOM     18  N   UNL     1      -4.091   2.883   1.658  0.00  0.00    -0.354 N 
ATOM     19  C   UNL     1      -4.014   1.616   1.160  0.00  0.00    +0.114 A 
ATOM     20  C   UNL     1      -5.177   3.834   1.409  0.00  0.00    +0.148 C 
ENDBRANCH  12  15
ENDBRANCH   1  12
BRANCH   1  22
ATOM     21  C   UNL     1       0.806  -1.580   0.057  0.00  0.00    +0.022 C 
ATOM     22  C   UNL     1       0.064  -0.243   0.003  0.00  0.00    +0.106 C 
ENDBRANCH   1  22
TORSDOF 4
