REMARK  Name = ZINC20124359
REMARK  6 active torsions:
REMARK  status: ('A' for Active; 'I' for Inactive)
REMARK    1  A    between atoms: C_1  and  C_2
REMARK    2  A    between atoms: C_5  and  C_8
REMARK    3  A    between atoms: C_8  and  C_10
REMARK    4  A    between atoms: C_8  and  N_11
REMARK    5  A    between atoms: N_11  and  C_12
REMARK    6  A    between atoms: C_12  and  C_13
REMARK                            x       y       z     vdW  Elec       q    Type
REMARK                         _______ _______ _______ _____ _____    ______ ____
ROOT
ATOM      1  N   UNL     1       5.057  -0.308   3.692  0.00  0.00    +0.386 N 
ATOM      2  H   UNL     1       4.371  -1.002   4.200  0.00  0.00    -0.085 HD
ATOM      3  H   UNL     1       4.680   0.720   3.791  0.00  0.00    -0.085 HD
ENDROOT
BRANCH   1   4
ATOM      4  C   UNL     1       6.389  -0.402   4.303  0.00  0.00    -0.044 C 
ATOM      5  C   UNL     1       6.653  -1.847   4.731  0.00  0.00    -0.009 C 
BRANCH   4  10
ATOM      6  C   UNL     1       6.635   3.053   8.928  0.00  0.00    +0.044 C 
ATOM      7  C   UNL     1       6.571   2.152   7.722  0.00  0.00    -0.050 A 
ATOM      8  C   UNL     1       7.655   2.061   6.869  0.00  0.00    +0.003 A 
ATOM      9  C   UNL     1       7.596   1.234   5.763  0.00  0.00    +0.002 A 
ATOM     10  C   UNL     1       6.453   0.499   5.509  0.00  0.00    -0.062 A 
ATOM     11  C   UNL     1       5.367   0.594   6.359  0.00  0.00    +0.002 A 
ATOM     12  C   UNL     1       5.428   1.417   7.468  0.00  0.00    +0.003 A 
ENDBRANCH   4  10
ENDBRANCH   1   4
BRANCH   1  13
ATOM     13  C   UNL     1       5.107  -0.655   2.265  0.00  0.00    -0.046 C 
BRANCH  13  14
ATOM     14  C   UNL     1       3.725  -0.548   1.673  0.00  0.00    -0.061 A 
ATOM     15  C   UNL     1       2.886  -1.647   1.675  0.00  0.00    +0.005 A 
ATOM     16  C   UNL     1       1.617  -1.553   1.135  0.00  0.00    +0.050 A 
ATOM     17  C   UNL     1       1.183  -0.356   0.589  0.00  0.00    +0.166 A 
ATOM     18  C   UNL     1       2.028   0.751   0.586  0.00  0.00    +0.166 A 
ATOM     19  C   UNL     1       3.299   0.650   1.130  0.00  0.00    +0.051 A 
ATOM     20  O   UNL     1       1.376   1.797  -0.001  0.00  0.00    -0.453 OA
ATOM     21  C   UNL     1      -0.018   1.436   0.010  0.00  0.00    +0.466 C 
ATOM     22  O   UNL     1       0.002  -0.004   0.002  0.00  0.00    -0.453 OA
ENDBRANCH  13  14
ENDBRANCH   1  13
TORSDOF 4
