REMARK  Name = ZINC66195521
REMARK  10 active torsions:
REMARK  status: ('A' for Active; 'I' for Inactive)
REMARK    1  A    between atoms: C_1  and  C_2
REMARK    2  A    between atoms: C_2  and  C_3
REMARK    3  A    between atoms: C_3  and  C_5
REMARK    4  A    between atoms: C_3  and  N_6
REMARK    5  A    between atoms: N_6  and  C_7
REMARK    6  A    between atoms: N_6  and  C_8
REMARK    7  A    between atoms: C_8  and  C_9
REMARK    8  A    between atoms: C_9  and  N_10
REMARK    9  A    between atoms: N_13  and  C_14
REMARK   10  A    between atoms: C_14  and  C_15
REMARK                            x       y       z     vdW  Elec       q    Type
REMARK                         _______ _______ _______ _____ _____    ______ ____
ROOT
ATOM      1  N   UNL     1       4.190   2.995   1.250  0.00  0.00    -0.301 N 
ATOM      2  C   UNL     1       5.433   3.508   1.159  0.00  0.00    +0.300 C 
ATOM      3  O   UNL     1       6.383   2.771   0.982  0.00  0.00    -0.253 OA
ATOM      4  N   UNL     1       5.621   4.839   1.263  0.00  0.00    -0.294 N 
ATOM      5  H   UNL     1       3.431   3.583   1.391  0.00  0.00    +0.150 HD
ATOM      6  H   UNL     1       4.863   5.426   1.404  0.00  0.00    +0.151 HD
ENDROOT
BRANCH   1   7
ATOM      7  C   UNL     1       3.985   1.549   1.136  0.00  0.00    +0.087 C 
BRANCH   7   8
ATOM      8  C   UNL     1       2.494   1.233   1.274  0.00  0.00    -0.060 C 
BRANCH   8   9
ATOM      9  N   UNL     1       2.288  -0.217   1.160  0.00  0.00    +0.381 N 
ATOM     10  C   UNL     1       2.948  -0.895   2.284  0.00  0.00    -0.096 C 
ATOM     11  H   UNL     1       2.682  -0.546   0.291  0.00  0.00    -0.082 HD
BRANCH   9  12
ATOM     12  C   UNL     1       0.849  -0.511   1.188  0.00  0.00    -0.072 C 
ATOM     13  C   UNL     1       0.279  -0.142   2.559  0.00  0.00    -0.013 C 
BRANCH  12  15
ATOM     14  C   UNL     1       1.126  -2.356  -0.474  0.00  0.00    +0.002 C 
ATOM     15  C   UNL     1       0.628  -2.003   0.928  0.00  0.00    -0.019 C 
ENDBRANCH  12  15
ENDBRANCH   9  12
ENDBRANCH   8   9
ENDBRANCH   7   8
ENDBRANCH   1   7
BRANCH   4  16
ATOM     16  C   UNL     1       6.972   5.397   1.164  0.00  0.00    +0.160 C 
BRANCH  16  17
ATOM     17  C   UNL     1       6.909   6.895   1.313  0.00  0.00    +0.051 A 
ATOM     18  C   UNL     1       6.843   7.789   0.305  0.00  0.00    +0.110 A 
ATOM     19  N   UNL     1       6.802   9.024   0.880  0.00  0.00    -0.336 N 
ATOM     20  C   UNL     1       6.845   8.848   2.222  0.00  0.00    +0.087 A 
ATOM     21  N   UNL     1       6.902   7.573   2.472  0.00  0.00    -0.346 N 
ATOM     22  C   UNL     1       6.822   9.979   3.223  0.00  0.00    +0.072 C 
ATOM     23  C   UNL     1       7.145  11.283   2.481  0.00  0.00    +0.009 C 
ATOM     24  C   UNL     1       6.274  11.378   1.225  0.00  0.00    +0.022 C 
ATOM     25  C   UNL     1       6.724  10.324   0.209  0.00  0.00    +0.123 C 
ATOM     26  H   UNL     1       6.936   7.175   3.356  0.00  0.00    +0.167 HD
ENDBRANCH  16  17
ENDBRANCH   4  16
TORSDOF 7
