REMARK  Name = ZINC13639602
REMARK  8 active torsions:
REMARK  status: ('A' for Active; 'I' for Inactive)
REMARK    1  A    between atoms: C_1  and  C_2
REMARK    2  A    between atoms: C_2  and  N_3
REMARK    3  A    between atoms: N_3  and  C_4
REMARK    4  A    between atoms: N_3  and  C_6
REMARK    5  A    between atoms: C_4  and  C_5
REMARK    6  A    between atoms: C_19  and  C_22
REMARK    7  A    between atoms: C_25  and  O_29
REMARK    8  A    between atoms: C_27  and  O_28
REMARK                            x       y       z     vdW  Elec       q    Type
REMARK                         _______ _______ _______ _____ _____    ______ ____
ROOT
ATOM      1  C   UNL     1      -3.129   1.818   0.685  0.00  0.00    +0.030 A 
ATOM      2  C   UNL     1      -2.847   3.042   0.092  0.00  0.00    +0.025 A 
ATOM      3  C   UNL     1      -3.856   3.772  -0.501  0.00  0.00    +0.025 A 
ATOM      4  C   UNL     1      -5.161   3.295  -0.504  0.00  0.00    +0.031 A 
ATOM      5  C   UNL     1      -5.444   2.069   0.107  0.00  0.00    -0.018 A 
ATOM      6  C   UNL     1      -4.432   1.339   0.694  0.00  0.00    +0.029 A 
ATOM      7  C   UNL     1      -6.851   1.614   0.106  0.00  0.00    +0.049 C 
ATOM      8  C   UNL     1      -7.210   0.174   0.182  0.00  0.00    -0.023 C 
ATOM      9  C   UNL     1      -8.345  -0.016  -0.481  0.00  0.00    -0.030 C 
ATOM     10  C   UNL     1      -8.821   1.304  -1.091  0.00  0.00    +0.033 C 
ATOM     11  C   UNL     1      -7.501   2.073  -1.234  0.00  0.00    +0.029 C 
ATOM     12  C   UNL     1      -7.570   3.587  -1.152  0.00  0.00    +0.108 C 
ATOM     13  N   UNL     1      -6.165   4.050  -1.131  0.00  0.00    -0.336 N 
ATOM     14  H   UNL     1      -5.933   4.889  -1.559  0.00  0.00    +0.147 HD
ENDROOT
BRANCH  12  15
ATOM     15  C   UNL     1      -8.283   4.142  -2.358  0.00  0.00    +0.015 A 
ATOM     16  C   UNL     1      -7.557   4.572  -3.453  0.00  0.00    +0.012 A 
ATOM     17  C   UNL     1      -8.207   5.080  -4.560  0.00  0.00    +0.046 A 
ATOM     18  C   UNL     1      -9.593   5.161  -4.576  0.00  0.00    +0.120 A 
ATOM     19  C   UNL     1     -10.324   4.731  -3.479  0.00  0.00    +0.091 A 
ATOM     20  C   UNL     1      -9.668   4.216  -2.371  0.00  0.00    +0.125 A 
BRANCH  20  21
ATOM     21  O   UNL     1     -10.382   3.788  -1.297  0.00  0.00    -0.506 OA
ATOM     22  H   UNL     1     -10.549   4.475  -0.637  0.00  0.00    +0.292 HD
ENDBRANCH  20  21
BRANCH  18  23
ATOM     23  O   UNL     1     -10.233   5.662  -5.665  0.00  0.00    -0.507 OA
ATOM     24  H   UNL     1     -10.461   4.996  -6.328  0.00  0.00    +0.292 HD
ENDBRANCH  18  23
ENDBRANCH  12  15
BRANCH   1  25
ATOM     25  N   UNL     1      -2.103   1.072   1.277  0.00  0.00    -0.330 N 
BRANCH  25  27
ATOM     26  C   UNL     1      -0.013   1.086   0.008  0.00  0.00    +0.024 C 
ATOM     27  C   UNL     1      -0.729   1.579   1.267  0.00  0.00    +0.102 C 
ENDBRANCH  25  27
BRANCH  25  28
ATOM     28  C   UNL     1      -2.404  -0.216   1.908  0.00  0.00    +0.102 C 
ATOM     29  C   UNL     1      -2.747   0.006   3.382  0.00  0.00    +0.024 C 
ENDBRANCH  25  28
ENDBRANCH   1  25
TORSDOF 6
