REMARK  Name = ZINC62702027
REMARK  10 active torsions:
REMARK  status: ('A' for Active; 'I' for Inactive)
REMARK    1  A    between atoms: C_1  and  C_2
REMARK    2  A    between atoms: C_2  and  C_4
REMARK    3  A    between atoms: C_2  and  C_18
REMARK    4  A    between atoms: C_4  and  O_5
REMARK    5  A    between atoms: O_5  and  C_6
REMARK    6  A    between atoms: C_9  and  C_13
REMARK    7  A    between atoms: C_13  and  N_14
REMARK    8  A    between atoms: N_14  and  C_15
REMARK    9  A    between atoms: C_15  and  C_16
REMARK   10  A    between atoms: C_15  and  C_17
REMARK                            x       y       z     vdW  Elec       q    Type
REMARK                         _______ _______ _______ _____ _____    ______ ____
ROOT
ATOM      1  C   UNL     1       2.873  -0.463  -2.261  0.00  0.00    +0.134 A 
ATOM      2  C   UNL     1       2.330  -1.180  -3.317  0.00  0.00    +0.047 A 
ATOM      3  C   UNL     1       3.127  -1.546  -4.384  0.00  0.00    +0.005 A 
ATOM      4  C   UNL     1       4.466  -1.200  -4.400  0.00  0.00    -0.063 A 
ATOM      5  C   UNL     1       5.010  -0.485  -3.349  0.00  0.00    +0.020 A 
ATOM      6  C   UNL     1       4.215  -0.111  -2.282  0.00  0.00    +0.060 A 
ATOM      7 BR   UNL     1       4.958   0.873  -0.848  0.00  0.00    -0.047 Br
ENDROOT
BRANCH   1   8
ATOM      8  O   UNL     1       2.090  -0.101  -1.210  0.00  0.00    -0.490 OA
BRANCH   8   9
ATOM      9  C   UNL     1       0.718  -0.497  -1.257  0.00  0.00    +0.241 C 
BRANCH   9  11
ATOM     10  C   UNL     1      -0.019   1.526   0.010  0.00  0.00    +0.020 C 
ATOM     11  C   UNL     1       0.002  -0.004   0.002  0.00  0.00    +0.109 C 
BRANCH  11  12
ATOM     12  C   UNL     1      -1.412  -0.526   0.013  0.00  0.00    +0.217 C 
ATOM     13  O   UNL     1      -1.808  -1.223  -0.897  0.00  0.00    -0.276 OA
ATOM     14  N   UNL     1      -2.236  -0.217   1.033  0.00  0.00    -0.329 N 
ATOM     15  H   UNL     1      -1.920   0.341   1.761  0.00  0.00    +0.145 HD
ATOM     16  H   UNL     1      -3.146  -0.553   1.040  0.00  0.00    +0.145 HD
ENDBRANCH  11  12
ENDBRANCH   9  11
ENDBRANCH   8   9
ENDBRANCH   1   8
BRANCH   4  17
ATOM     17  C   UNL     1       5.333  -1.602  -5.565  0.00  0.00    -0.046 C 
BRANCH  17  18
ATOM     18  N   UNL     1       5.301  -0.547  -6.587  0.00  0.00    +0.383 N 
ATOM     19  H   UNL     1       4.352  -0.415  -6.904  0.00  0.00    -0.085 HD
ATOM     20  H   UNL     1       5.646   0.315  -6.192  0.00  0.00    -0.085 HD
BRANCH  18  21
ATOM     21  C   UNL     1       6.146  -0.939  -7.723  0.00  0.00    -0.078 C 
ATOM     22  C   UNL     1       5.551  -2.176  -8.399  0.00  0.00    -0.014 C 
ATOM     23  C   UNL     1       6.212   0.211  -8.730  0.00  0.00    -0.014 C 
ENDBRANCH  18  21
ENDBRANCH  17  18
ENDBRANCH   4  17
TORSDOF 7
