REMARK  Name = ZINC06879398
REMARK  5 active torsions:
REMARK  status: ('A' for Active; 'I' for Inactive)
REMARK    1  A    between atoms: C_1  and  C_2
REMARK    2  A    between atoms: C_3  and  C_21
REMARK    3  A    between atoms: C_8  and  C_10
REMARK    4  A    between atoms: C_10  and  N_11
REMARK    5  A    between atoms: C_21  and  C_23
REMARK                            x       y       z     vdW  Elec       q    Type
REMARK                         _______ _______ _______ _____ _____    ______ ____
ROOT
ATOM      1  C   UNL     1      -3.574   0.188   6.557  0.00  0.00    +0.067 C 
ATOM      2  C   UNL     1      -4.263  -0.233   5.284  0.00  0.00    +0.058 A 
ATOM      3  C   UNL     1      -5.444  -0.972   5.314  0.00  0.00    +0.078 A 
ATOM      4  S   UNL     1      -5.760  -1.154   3.564  0.00  0.00    -0.049 S 
ATOM      5  C   UNL     1      -4.372  -0.281   2.991  0.00  0.00    +0.165 A 
ATOM      6  N   UNL     1      -3.772   0.078   4.116  0.00  0.00    -0.229 NA
ATOM      7  N   UNL     1      -3.988  -0.029   1.687  0.00  0.00    -0.263 N 
ATOM      8  C   UNL     1      -2.865   0.675   1.440  0.00  0.00    +0.239 C 
ATOM      9  O   UNL     1      -2.193   1.087   2.361  0.00  0.00    -0.273 OA
ATOM     10  H   UNL     1      -4.526  -0.359   0.950  0.00  0.00    +0.157 HD
ENDROOT
BRANCH   3  11
ATOM     11  C   UNL     1      -6.183  -1.445   6.416  0.00  0.00    +0.168 C 
ATOM     12  O   UNL     1      -5.802  -1.216   7.547  0.00  0.00    -0.292 OA
ATOM     13  C   UNL     1      -7.448  -2.234   6.193  0.00  0.00    +0.092 C 
ENDBRANCH   3  11
BRANCH   8  14
ATOM     14  C   UNL     1      -2.446   0.950   0.018  0.00  0.00    +0.222 C 
BRANCH  14  15
ATOM     15  N   UNL     1      -1.204   1.726   0.017  0.00  0.00    -0.290 N 
ATOM     16  C   UNL     1      -0.013   1.076   0.008  0.00  0.00    +0.203 A 
ATOM     17  N   UNL     1       1.116   1.733   0.001  0.00  0.00    -0.230 NA
ATOM     18  C   UNL     1       1.135   3.062   0.008  0.00  0.00    +0.115 A 
ATOM     19  C   UNL     1      -0.048   3.823   0.023  0.00  0.00    +0.072 A 
ATOM     20  C   UNL     1      -1.268   3.071   0.030  0.00  0.00    +0.263 A 
ATOM     21  O   UNL     1      -2.346   3.640   0.043  0.00  0.00    -0.267 OA
ATOM     22  C   UNL     1       0.147   5.261   0.029  0.00  0.00    +0.023 A 
ATOM     23  C   UNL     1       1.396   5.753   0.020  0.00  0.00    +0.048 A 
ATOM     24  S   UNL     1       2.416   4.290   0.002  0.00  0.00    -0.077 S 
ENDBRANCH  14  15
ENDBRANCH   8  14
TORSDOF 3
