REMARK  Name = ZINC37320271
REMARK  7 active torsions:
REMARK  status: ('A' for Active; 'I' for Inactive)
REMARK    1  A    between atoms: C_1  and  C_2
REMARK    2  A    between atoms: C_2  and  C_4
REMARK    3  A    between atoms: C_2  and  N_10
REMARK    4  A    between atoms: C_4  and  N_5
REMARK    5  A    between atoms: N_10  and  C_11
REMARK    6  A    between atoms: C_11  and  C_13
REMARK    7  A    between atoms: C_11  and  C_14
REMARK                            x       y       z     vdW  Elec       q    Type
REMARK                         _______ _______ _______ _____ _____    ______ ____
ROOT
ATOM      1  N   UNL     1       0.690  -0.478  -1.207  0.00  0.00    +0.386 N 
ATOM      2  H   UNL     1       1.608  -0.063  -1.256  0.00  0.00    -0.085 HD
ATOM      3  H   UNL     1       0.776  -1.482  -1.172  0.00  0.00    -0.085 HD
ENDROOT
BRANCH   1   5
ATOM      4  C   UNL     1      -0.019   1.526   0.010  0.00  0.00    -0.012 C 
ATOM      5  C   UNL     1       0.002  -0.004   0.002  0.00  0.00    -0.054 C 
BRANCH   5   6
ATOM      6  C   UNL     1       0.742  -0.511   1.242  0.00  0.00    +0.107 C 
BRANCH   6   7
ATOM      7  N   UNL     1       0.659  -1.972   1.296  0.00  0.00    -0.338 N 
ATOM      8  C   UNL     1      -0.320  -2.708   1.908  0.00  0.00    +0.106 A 
ATOM      9  C   UNL     1      -0.010  -4.005   1.716  0.00  0.00    +0.130 A 
ATOM     10  N   UNL     1       1.127  -4.059   1.007  0.00  0.00    -0.244 NA
ATOM     11  C   UNL     1       1.531  -2.846   0.748  0.00  0.00    +0.199 A 
ENDBRANCH   6   7
ENDBRANCH   5   6
ENDBRANCH   1   5
BRANCH   1  12
ATOM     12  C   UNL     1      -0.086  -0.093  -2.394  0.00  0.00    -0.042 C 
ATOM     13  C   UNL     1      -1.431  -0.821  -2.382  0.00  0.00    -0.009 C 
BRANCH  12  14
ATOM     14  C   UNL     1       0.679  -0.470  -3.637  0.00  0.00    -0.042 A 
ATOM     15  C   UNL     1       1.603  -1.498  -3.595  0.00  0.00    +0.005 A 
ATOM     16  C   UNL     1       2.304  -1.844  -4.734  0.00  0.00    +0.022 A 
ATOM     17  C   UNL     1       2.083  -1.163  -5.918  0.00  0.00    +0.061 A 
ATOM     18  C   UNL     1       1.158  -0.134  -5.961  0.00  0.00    +0.078 A 
ATOM     19  C   UNL     1       0.451   0.208  -4.820  0.00  0.00    +0.062 A 
ATOM     20 CL   UNL     1      -0.715   1.494  -4.874  0.00  0.00    -0.082 Cl
ATOM     21 CL   UNL     1       0.879   0.722  -7.445  0.00  0.00    -0.081 Cl
ATOM     22 CL   UNL     1       2.965  -1.598  -7.348  0.00  0.00    -0.082 Cl
ENDBRANCH  12  14
ENDBRANCH   1  12
TORSDOF 5
