REMARK  Name = ZINC54999797
REMARK  10 active torsions:
REMARK  status: ('A' for Active; 'I' for Inactive)
REMARK    1  A    between atoms: C_1  and  C_2
REMARK    2  A    between atoms: C_2  and  C_3
REMARK    3  A    between atoms: C_2  and  C_4
REMARK    4  A    between atoms: C_2  and  C_5
REMARK    5  A    between atoms: C_6  and  C_20
REMARK    6  A    between atoms: N_10  and  C_11
REMARK    7  A    between atoms: N_10  and  C_12
REMARK    8  A    between atoms: C_17  and  O_18
REMARK    9  A    between atoms: O_18  and  C_19
REMARK   10  A    between atoms: C_20  and  N_21
REMARK                            x       y       z     vdW  Elec       q    Type
REMARK                         _______ _______ _______ _____ _____    ______ ____
ROOT
ATOM      1  C   UNL     1       1.037  -0.656  -1.111  0.00  0.00    +0.057 A 
ATOM      2  C   UNL     1       0.861  -1.890  -1.644  0.00  0.00    -0.003 A 
ATOM      3  S   UNL     1       1.675  -1.692  -3.220  0.00  0.00    -0.059 S 
ATOM      4  C   UNL     1       2.147  -0.086  -3.038  0.00  0.00    +0.165 A 
ATOM      5  N   UNL     1       1.687   0.228  -1.846  0.00  0.00    -0.229 NA
ATOM      6  N   UNL     1       2.847   0.712  -3.930  0.00  0.00    -0.280 N 
ATOM      7  C   UNL     1       3.164   2.099  -3.579  0.00  0.00    +0.137 C 
ENDROOT
BRANCH   6   8
ATOM      8  C   UNL     1       3.251   0.193  -5.166  0.00  0.00    +0.077 A 
ATOM      9  C   UNL     1       2.420   0.301  -6.271  0.00  0.00    +0.027 A 
ATOM     10  C   UNL     1       2.821  -0.212  -7.490  0.00  0.00    +0.002 A 
ATOM     11  C   UNL     1       4.051  -0.832  -7.612  0.00  0.00    +0.004 A 
ATOM     12  C   UNL     1       4.885  -0.944  -6.515  0.00  0.00    +0.047 A 
ATOM     13  C   UNL     1       4.492  -0.427  -5.291  0.00  0.00    +0.141 A 
BRANCH  13  14
ATOM     14  O   UNL     1       5.314  -0.531  -4.212  0.00  0.00    -0.493 OA
ATOM     15  C   UNL     1       6.572  -1.180  -4.414  0.00  0.00    +0.277 C 
ENDBRANCH  13  14
ENDBRANCH   6   8
BRANCH   1  17
ATOM     16  C   UNL     1       0.717   1.186   0.518  0.00  0.00    +0.017 C 
ATOM     17  C   UNL     1       0.510  -0.308   0.257  0.00  0.00    +0.005 C 
ATOM     18  C   UNL     1       1.262  -1.119   1.315  0.00  0.00    +0.017 C 
ATOM     19  C   UNL     1      -0.982  -0.636   0.328  0.00  0.00    +0.017 C 
ENDBRANCH   1  17
BRANCH   2  20
ATOM     20  C   UNL     1       0.167  -3.096  -1.065  0.00  0.00    -0.041 C 
BRANCH  20  21
ATOM     21  N   UNL     1      -1.208  -3.163  -1.578  0.00  0.00    +0.381 N 
ATOM     22  H   UNL     1      -1.188  -3.343  -2.571  0.00  0.00    -0.090 HD
ATOM     23  H   UNL     1      -1.705  -3.907  -1.111  0.00  0.00    -0.090 HD
ATOM     24  H   UNL     1      -1.675  -2.286  -1.404  0.00  0.00    -0.090 HD
ENDBRANCH  20  21
ENDBRANCH   2  20
TORSDOF 5
