REMARK  Name = ZINC04729731
REMARK  6 active torsions:
REMARK  status: ('A' for Active; 'I' for Inactive)
REMARK    1  A    between atoms: C_1  and  C_2
REMARK    2  A    between atoms: C_2  and  C_3
REMARK    3  A    between atoms: C_3  and  C_26
REMARK    4  A    between atoms: C_5  and  C_19
REMARK    5  A    between atoms: C_8  and  C_10
REMARK    6  A    between atoms: C_24  and  O_25
REMARK                            x       y       z     vdW  Elec       q    Type
REMARK                         _______ _______ _______ _____ _____    ______ ____
ROOT
ATOM      1  C   UNL     1       0.718  -0.497  -1.257  0.00  0.00    +0.026 C 
ATOM      2  N   UNL     1       0.763  -1.964  -1.243  0.00  0.00    +0.400 N 
ATOM      3  C   UNL     1      -0.605  -2.485  -1.400  0.00  0.00    -0.028 C 
ATOM      4  C   UNL     1      -1.079  -2.170  -2.822  0.00  0.00    +0.044 C 
ATOM      5  C   UNL     1      -0.790  -0.727  -3.135  0.00  0.00    +0.040 C 
ATOM      6  N   UNL     1       0.009  -0.012  -2.433  0.00  0.00    -0.300 NA
ATOM      7  C   UNL     1       2.147   0.049  -1.270  0.00  0.00    +0.014 C 
ATOM      8  H   UNL     1       1.339  -2.291  -2.004  0.00  0.00    -0.081 HD
ATOM      9  H   UNL     1       1.147  -2.282  -0.366  0.00  0.00    -0.081 HD
ENDROOT
BRANCH   5  10
ATOM     10  C   UNL     1      -1.453  -0.111  -4.299  0.00  0.00    -0.001 A 
ATOM     11  C   UNL     1      -2.334  -0.861  -5.082  0.00  0.00    +0.013 A 
ATOM     12  C   UNL     1      -2.953  -0.283  -6.169  0.00  0.00    +0.050 A 
ATOM     13  C   UNL     1      -2.704   1.045  -6.490  0.00  0.00    +0.166 A 
ATOM     14  C   UNL     1      -1.826   1.799  -5.713  0.00  0.00    +0.167 A 
ATOM     15  C   UNL     1      -1.206   1.227  -4.618  0.00  0.00    +0.059 A 
ATOM     16  O   UNL     1      -1.755   3.059  -6.234  0.00  0.00    -0.453 OA
ATOM     17  C   UNL     1      -2.279   2.952  -7.570  0.00  0.00    +0.466 C 
ATOM     18  O   UNL     1      -3.183   1.833  -7.495  0.00  0.00    -0.453 OA
ENDBRANCH   5  10
BRANCH   3  19
ATOM     19  C   UNL     1      -0.608  -3.976  -1.181  0.00  0.00    -0.019 A 
ATOM     20  C   UNL     1       0.568  -4.694  -1.289  0.00  0.00    +0.005 A 
ATOM     21  C   UNL     1       0.565  -6.061  -1.089  0.00  0.00    +0.000 A 
ATOM     22  C   UNL     1      -0.614  -6.715  -0.780  0.00  0.00    +0.004 A 
ATOM     23  C   UNL     1      -1.792  -6.002  -0.671  0.00  0.00    +0.045 A 
ATOM     24  C   UNL     1      -1.791  -4.629  -0.866  0.00  0.00    +0.118 A 
BRANCH  24  25
ATOM     25  O   UNL     1      -2.948  -3.924  -0.753  0.00  0.00    -0.507 OA
ATOM     26  H   UNL     1      -3.443  -3.846  -1.581  0.00  0.00    +0.292 HD
ENDBRANCH  24  25
ENDBRANCH   3  19
BRANCH   1  28
ATOM     27  C   UNL     1      -0.019   1.526   0.010  0.00  0.00    +0.004 C 
ATOM     28  C   UNL     1       0.002  -0.004   0.002  0.00  0.00    +0.007 C 
ENDBRANCH   1  28
TORSDOF 4
