REMARK  Name = ZINC55300219
REMARK  5 active torsions:
REMARK  status: ('A' for Active; 'I' for Inactive)
REMARK    1  A    between atoms: C_1  and  C_2
REMARK    2  A    between atoms: C_2  and  N_3
REMARK    3  A    between atoms: N_3  and  C_4
REMARK    4  A    between atoms: C_4  and  C_6
REMARK    5  A    between atoms: C_4  and  C_17
REMARK                            x       y       z     vdW  Elec       q    Type
REMARK                         _______ _______ _______ _____ _____    ______ ____
ROOT
ATOM      1  C   UNL     1      -1.356  -1.981   0.004  0.00  0.00    -0.008 C 
ENDROOT
BRANCH   1   2
ATOM      2  C   UNL     1      -2.697  -2.610  -0.273  0.00  0.00    -0.037 A 
ATOM      3  C   UNL     1      -3.697  -2.552   0.679  0.00  0.00    +0.053 A 
ATOM      4  C   UNL     1      -4.933  -3.128   0.426  0.00  0.00    +0.162 A 
ATOM      5  C   UNL     1      -5.164  -3.764  -0.788  0.00  0.00    +0.163 A 
ATOM      6  C   UNL     1      -4.157  -3.821  -1.740  0.00  0.00    +0.069 A 
ATOM      7  C   UNL     1      -2.928  -3.239  -1.483  0.00  0.00    +0.046 A 
ATOM      8 CL   UNL     1      -1.671  -3.305  -2.679  0.00  0.00    -0.083 Cl
ATOM      9  O   UNL     1      -6.372  -4.329  -1.060  0.00  0.00    -0.485 OA
ATOM     10  C   UNL     1      -7.232  -4.578   0.058  0.00  0.00    +0.270 C 
ATOM     11  C   UNL     1      -7.246  -3.324   0.942  0.00  0.00    +0.270 C 
ATOM     12  O   UNL     1      -5.906  -3.066   1.376  0.00  0.00    -0.485 OA
ENDBRANCH   1   2
BRANCH   1  13
ATOM     13  C   UNL     1      -0.443  -3.005   0.682  0.00  0.00    +0.134 C 
ATOM     14  C   UNL     1      -0.225  -4.196  -0.256  0.00  0.00    +0.190 C 
ATOM     15  O   UNL     1       0.536  -5.197   0.427  0.00  0.00    -0.375 OA
ATOM     16  C   UNL     1      -0.076  -5.658   1.635  0.00  0.00    +0.188 C 
ATOM     17  C   UNL     1      -0.295  -4.467   2.573  0.00  0.00    +0.188 C 
ATOM     18  O   UNL     1      -1.055  -3.465   1.891  0.00  0.00    -0.373 OA
ENDBRANCH   1  13
BRANCH   1  19
ATOM     19  N   UNL     1      -1.533  -0.822   0.888  0.00  0.00    +0.385 N 
ATOM     20  H   UNL     1      -1.873  -1.132   1.786  0.00  0.00    -0.085 HD
ATOM     21  H   UNL     1      -2.199  -0.184   0.478  0.00  0.00    -0.085 HD
BRANCH  19  23
ATOM     22  C   UNL     1      -0.428   1.070   1.984  0.00  0.00    -0.017 C 
ATOM     23  C   UNL     1      -0.244  -0.138   1.063  0.00  0.00    -0.085 C 
ENDBRANCH  19  23
ENDBRANCH   1  19
TORSDOF 4
