REMARK  Name = ZINC09713179
REMARK  10 active torsions:
REMARK  status: ('A' for Active; 'I' for Inactive)
REMARK    1  A    between atoms: C_1  and  C_2
REMARK    2  A    between atoms: C_2  and  C_3
REMARK    3  A    between atoms: C_3  and  C_4
REMARK    4  A    between atoms: C_4  and  N_5
REMARK    5  A    between atoms: C_6  and  N_33
REMARK    6  A    between atoms: C_7  and  N_14
REMARK    7  A    between atoms: N_14  and  C_15
REMARK    8  A    between atoms: C_20  and  C_22
REMARK    9  A    between atoms: C_22  and  N_65
REMARK   10  A    between atoms: C_26  and  C_28
REMARK                            x       y       z     vdW  Elec       q    Type
REMARK                         _______ _______ _______ _____ _____    ______ ____
ROOT
ATOM      1  N   UNL     1       5.203   0.456   1.333  0.00  0.00    -0.263 N 
ATOM      2  C   UNL     1       4.024   0.117   0.771  0.00  0.00    +0.204 C 
ATOM      3  O   UNL     1       3.916   0.077  -0.436  0.00  0.00    -0.277 OA
ENDROOT
BRANCH   1   6
ATOM      4  N   UNL     1       6.269  -0.569   4.697  0.00  0.00    -0.280 N 
ATOM      5  C   UNL     1       6.140  -0.554   3.327  0.00  0.00    +0.127 A 
ATOM      6  C   UNL     1       5.355   0.414   2.735  0.00  0.00    +0.140 A 
ATOM      7  C   UNL     1       4.713   1.362   3.553  0.00  0.00    +0.277 A 
ATOM      8  O   UNL     1       4.017   2.231   3.056  0.00  0.00    -0.266 OA
ATOM      9  N   UNL     1       4.868   1.300   4.890  0.00  0.00    -0.273 N 
ATOM     10  H   UNL     1       4.406   1.969   5.473  0.00  0.00    +0.173 HD
ATOM     11  C   UNL     1       5.637   0.349   5.450  0.00  0.00    +0.331 A 
ATOM     12  O   UNL     1       5.764   0.320   6.659  0.00  0.00    -0.246 OA
BRANCH   5  13
ATOM     13  N   UNL     1       6.786  -1.492   2.558  0.00  0.00    -0.343 N 
ATOM     14  H   UNL     1       6.692  -1.475   1.593  0.00  0.00    +0.144 HD
ATOM     15  H   UNL     1       7.336  -2.170   2.980  0.00  0.00    +0.144 HD
ENDBRANCH   5  13
BRANCH   4  16
ATOM     16  C   UNL     1       7.099  -1.591   5.339  0.00  0.00    +0.128 C 
BRANCH  16  17
ATOM     17  C   UNL     1       8.535  -1.078   5.464  0.00  0.00    +0.021 C 
BRANCH  17  19
ATOM     18  C   UNL     1      10.838  -1.632   6.259  0.00  0.00    +0.004 C 
ATOM     19  C   UNL     1       9.402  -2.145   6.134  0.00  0.00    -0.002 C 
ENDBRANCH  17  19
ENDBRANCH  16  17
ENDBRANCH   4  16
ENDBRANCH   1   6
BRANCH   1  20
ATOM     20  C   UNL     1       6.326   0.868   0.487  0.00  0.00    +0.082 C 
ATOM     21  C   UNL     1       5.965   2.157  -0.280  0.00  0.00    +0.023 C 
ATOM     22  C   UNL     1       6.624   1.970  -1.669  0.00  0.00    +0.002 C 
ATOM     23  C   UNL     1       6.410   0.462  -1.949  0.00  0.00    +0.002 C 
ATOM     24  C   UNL     1       6.609  -0.210  -0.575  0.00  0.00    +0.023 C 
ENDBRANCH   1  20
BRANCH   2  25
ATOM     25  C   UNL     1       2.841  -0.213   1.645  0.00  0.00    +0.020 C 
BRANCH  25  30
ATOM     26  C   UNL     1       1.292   0.348  -0.141  0.00  0.00    -0.077 C 
ATOM     27  C   UNL     1       0.857  -0.369  -1.432  0.00  0.00    -0.020 C 
ATOM     28  C   UNL     1       1.110  -1.871  -1.165  0.00  0.00    -0.012 C 
ATOM     29  C   UNL     1       2.163  -1.847  -0.028  0.00  0.00    -0.030 C 
ATOM     30  N   UNL     1       1.722  -0.701   0.784  0.00  0.00    +0.390 N 
ATOM     31  H   UNL     1       0.935  -0.981   1.381  0.00  0.00    -0.080 HD
BRANCH  29  32
ATOM     32  C   UNL     1       2.116  -3.127   0.766  0.00  0.00    -0.024 A 
ATOM     33  C   UNL     1       2.941  -4.201   0.703  0.00  0.00    +0.009 A 
ATOM     34  C   UNL     1       2.705  -5.277   1.538  0.00  0.00    +0.008 A 
ATOM     35  C   UNL     1       1.657  -5.227   2.395  0.00  0.00    +0.045 A 
ATOM     36  S   UNL     1       0.967  -3.619   2.040  0.00  0.00    -0.103 S 
ENDBRANCH  29  32
ENDBRANCH  25  30
ENDBRANCH   2  25
TORSDOF 9
