REMARK  Name = ZINC35356010
REMARK  3 active torsions:
REMARK  status: ('A' for Active; 'I' for Inactive)
REMARK    1  A    between atoms: C_3  and  N_9
REMARK    2  A    between atoms: N_9  and  C_10
REMARK    3  A    between atoms: C_15  and  N_16
REMARK                            x       y       z     vdW  Elec       q    Type
REMARK                         _______ _______ _______ _____ _____    ______ ____
ROOT
ATOM      1  C   UNL     1       3.513   3.522  -0.106  0.00  0.00    +0.054 A 
ATOM      2  C   UNL     1       2.281   4.158  -0.077  0.00  0.00    +0.048 A 
ATOM      3  C   UNL     1       2.215   5.542  -0.161  0.00  0.00    +0.038 A 
ATOM      4  C   UNL     1       3.380   6.289  -0.274  0.00  0.00    -0.024 A 
ATOM      5  C   UNL     1       4.609   5.657  -0.303  0.00  0.00    +0.030 A 
ATOM      6  C   UNL     1       4.682   4.275  -0.214  0.00  0.00    +0.046 A 
ATOM      7  C   UNL     1       3.302   7.791  -0.363  0.00  0.00    +0.046 C 
ATOM      8  C   UNL     1       2.039   8.193  -1.126  0.00  0.00    +0.101 C 
ATOM      9  C   UNL     1       0.850   7.452  -0.575  0.00  0.00    +0.218 C 
ATOM     10  O   UNL     1      -0.230   8.002  -0.531  0.00  0.00    -0.275 OA
ATOM     11  N   UNL     1       0.972   6.188  -0.132  0.00  0.00    -0.285 N 
ATOM     12  H   UNL     1       0.194   5.720   0.210  0.00  0.00    +0.155 HD
ENDROOT
BRANCH   6  13
ATOM     13  N   UNL     1       5.929   3.635  -0.237  0.00  0.00    -0.357 N 
ATOM     14  H   UNL     1       5.979   2.669  -0.179  0.00  0.00    +0.142 HD
ATOM     15  H   UNL     1       6.742   4.160  -0.312  0.00  0.00    +0.142 HD
ENDBRANCH   6  13
BRANCH   1  16
ATOM     16  N   UNL     1       3.583   2.126  -0.021  0.00  0.00    -0.312 N 
ATOM     17  H   UNL     1       4.437   1.677  -0.124  0.00  0.00    +0.152 HD
BRANCH  16  20
ATOM     18  C   UNL     1       0.359   1.065   1.392  0.00  0.00    +0.040 A 
ATOM     19  C   UNL     1       1.505   1.803   1.163  0.00  0.00    +0.027 A 
ATOM     20  C   UNL     1       2.423   1.381   0.212  0.00  0.00    +0.046 A 
ATOM     21  C   UNL     1       2.188   0.215  -0.508  0.00  0.00    +0.042 A 
ATOM     22  C   UNL     1       1.042  -0.519  -0.276  0.00  0.00    +0.055 A 
ATOM     23  C   UNL     1       0.127  -0.095   0.674  0.00  0.00    +0.125 A 
ATOM     24  F   UNL     1      -0.994  -0.815   0.899  0.00  0.00    -0.205 F 
ATOM     25 BR   UNL     1       3.437  -0.364  -1.805  0.00  0.00    -0.048 Br
ENDBRANCH  16  20
ENDBRANCH   1  16
TORSDOF 3
