REMARK  Name = ZINC02525367
REMARK  13 active torsions:
REMARK  status: ('A' for Active; 'I' for Inactive)
REMARK    1  A    between atoms: C_1  and  C_2
REMARK    2  A    between atoms: C_2  and  C_3
REMARK    3  A    between atoms: C_2  and  C_4
REMARK    4  A    between atoms: C_2  and  O_5
REMARK    5  A    between atoms: O_5  and  C_6
REMARK    6  A    between atoms: N_8  and  C_9
REMARK    7  A    between atoms: C_9  and  C_10
REMARK    8  A    between atoms: C_13  and  C_16
REMARK    9  A    between atoms: C_18  and  O_20
REMARK   10  A    between atoms: O_20  and  C_21
REMARK   11  A    between atoms: C_21  and  C_22
REMARK   12  A    between atoms: C_21  and  C_23
REMARK   13  A    between atoms: C_21  and  C_24
REMARK                            x       y       z     vdW  Elec       q    Type
REMARK                         _______ _______ _______ _____ _____    ______ ____
ROOT
ATOM      1  C   UNL     1      -1.500   0.757  -2.036  0.00  0.00    +0.413 C 
ATOM      2  O   UNL     1      -0.449   1.326  -1.818  0.00  0.00    -0.226 OA
ATOM      3  N   UNL     1      -1.926  -0.213  -1.204  0.00  0.00    -0.168 N 
ATOM      4  C   UNL     1      -3.093  -0.844  -1.446  0.00  0.00    +0.413 C 
ATOM      5  O   UNL     1      -3.477  -1.719  -0.696  0.00  0.00    -0.226 OA
ENDROOT
BRANCH   1   6
ATOM      6  O   UNL     1      -2.239   1.097  -3.108  0.00  0.00    -0.444 OA
BRANCH   6   8
ATOM      7  C   UNL     1      -0.356   1.731  -4.516  0.00  0.00    +0.055 C 
ATOM      8  C   UNL     1      -1.718   2.151  -3.961  0.00  0.00    +0.107 C 
ATOM      9  C   UNL     1      -2.687   2.397  -5.118  0.00  0.00    +0.055 C 
ATOM     10  C   UNL     1      -1.562   3.436  -3.145  0.00  0.00    +0.055 C 
ENDBRANCH   6   8
ENDBRANCH   1   6
BRANCH   3  11
ATOM     11  C   UNL     1      -1.122  -0.583  -0.036  0.00  0.00    +0.158 C 
BRANCH  11  12
ATOM     12  C   UNL     1      -1.532   0.260   1.144  0.00  0.00    -0.029 A 
ATOM     13  C   UNL     1      -0.897   1.465   1.383  0.00  0.00    +0.006 A 
ATOM     14  C   UNL     1      -1.271   2.244   2.459  0.00  0.00    +0.011 A 
ATOM     15  C   UNL     1      -2.285   1.808   3.312  0.00  0.00    +0.012 A 
ATOM     16  C   UNL     1      -2.918   0.590   3.068  0.00  0.00    +0.011 A 
ATOM     17  C   UNL     1      -2.538  -0.178   1.986  0.00  0.00    +0.006 A 
BRANCH  15  18
ATOM     18  C   UNL     1      -2.688   2.636   4.471  0.00  0.00    +0.094 C 
ATOM     19  N   UNL     1      -2.061   3.840   4.709  0.00  0.00    -0.345 N 
ATOM     20  H   UNL     1      -3.970   2.699   6.051  0.00  0.00    +0.157 HD
ATOM     21  H   UNL     1      -1.356   4.145   4.117  0.00  0.00    +0.144 HD
ATOM     22  H   UNL     1      -2.325   4.383   5.469  0.00  0.00    +0.144 HD
ATOM     23  N   UNL     1      -3.657   2.165   5.240  0.00  0.00    -0.387 N 
ATOM     24  H   UNL     1      -4.094   1.262   5.021  0.00  0.00    +0.157 HD
ENDBRANCH  15  18
ENDBRANCH  11  12
ENDBRANCH   3  11
BRANCH   4  25
ATOM     25  O   UNL     1      -3.832  -0.504  -2.518  0.00  0.00    -0.444 OA
BRANCH  25  26
ATOM     26  C   UNL     1      -5.076  -1.225  -2.716  0.00  0.00    +0.107 C 
ATOM     27  C   UNL     1      -5.987  -1.012  -1.505  0.00  0.00    +0.055 C 
ATOM     28  C   UNL     1      -5.772  -0.704  -3.975  0.00  0.00    +0.055 C 
ATOM     29  C   UNL     1      -4.781  -2.718  -2.877  0.00  0.00    +0.055 C 
ENDBRANCH  25  26
ENDBRANCH   4  25
TORSDOF 7
