REMARK  Name = ZINC03947158
REMARK  3 active torsions:
REMARK  status: ('A' for Active; 'I' for Inactive)
REMARK    1  A    between atoms: C_1  and  C_2
REMARK    2  A    between atoms: C_7  and  N_8
REMARK    3  A    between atoms: C_10  and  C_17
REMARK                            x       y       z     vdW  Elec       q    Type
REMARK                         _______ _______ _______ _____ _____    ______ ____
ROOT
ATOM      1  N   UNL     1       2.268   3.954   0.001  0.00  0.00    -0.298 N 
ATOM      2  C   UNL     1       1.169   3.362  -0.578  0.00  0.00    +0.151 A 
ATOM      3  C   UNL     1      -0.092   4.004  -0.554  0.00  0.00    +0.098 A 
ATOM      4  N   UNL     1      -1.119   3.421  -1.110  0.00  0.00    -0.172 NA
ATOM      5  N   UNL     1      -0.998   2.276  -1.684  0.00  0.00    -0.226 N 
ATOM      6  H   UNL     1      -1.798   1.855  -2.110  0.00  0.00    +0.194 HD
ATOM      7  C   UNL     1       0.183   1.633  -1.722  0.00  0.00    +0.364 A 
ATOM      8  O   UNL     1       0.262   0.545  -2.269  0.00  0.00    -0.243 OA
ATOM      9  N   UNL     1       1.270   2.178  -1.170  0.00  0.00    -0.175 NA
ATOM     10  C   UNL     1      -0.249   5.348   0.109  0.00  0.00    +0.071 C 
ATOM     11  H   UNL     1       2.204   4.854   0.356  0.00  0.00    +0.154 HD
ENDROOT
BRANCH   1  18
ATOM     12  C   UNL     1       4.676   5.459   0.187  0.00  0.00    +0.045 C 
ATOM     13  C   UNL     1       4.677   3.952   0.170  0.00  0.00    -0.029 A 
ATOM     14  C   UNL     1       5.870   3.260   0.246  0.00  0.00    +0.005 A 
ATOM     15  C   UNL     1       5.871   1.877   0.232  0.00  0.00    +0.000 A 
ATOM     16  C   UNL     1       4.679   1.182   0.141  0.00  0.00    +0.002 A 
ATOM     17  C   UNL     1       3.482   1.868   0.069  0.00  0.00    +0.023 A 
ATOM     18  C   UNL     1       3.478   3.257   0.078  0.00  0.00    +0.035 A 
ENDBRANCH   1  18
TORSDOF 1
