REMARK  Name = ZINC03719666
REMARK  9 active torsions:
REMARK  status: ('A' for Active; 'I' for Inactive)
REMARK    1  A    between atoms: C_1  and  O_2
REMARK    2  A    between atoms: O_2  and  C_3
REMARK    3  A    between atoms: C_5  and  C_13
REMARK    4  A    between atoms: C_6  and  O_11
REMARK    5  A    between atoms: C_8  and  O_9
REMARK    6  A    between atoms: O_9  and  C_10
REMARK    7  A    between atoms: O_11  and  C_12
REMARK    8  A    between atoms: C_17  and  O_24
REMARK    9  A    between atoms: C_18  and  O_23
REMARK                            x       y       z     vdW  Elec       q    Type
REMARK                         _______ _______ _______ _____ _____    ______ ____
ROOT
ATOM      1  C   UNL     1       0.009  -2.781  -2.545  0.00  0.00    -0.006 C 
ATOM      2  C   UNL     1       0.018  -2.080  -1.212  0.00  0.00    -0.050 A 
ATOM      3  C   UNL     1      -0.006  -0.692  -1.198  0.00  0.00    +0.051 A 
ATOM      4  C   UNL     1       0.002  -0.004   0.002  0.00  0.00    +0.158 A 
ATOM      5  C   UNL     1       0.023  -0.710   1.202  0.00  0.00    +0.158 A 
ATOM      6  C   UNL     1       0.043  -2.092   1.183  0.00  0.00    +0.053 A 
ATOM      7  C   UNL     1       0.042  -2.778  -0.023  0.00  0.00    -0.044 A 
ATOM      8  C   UNL     1       0.075  -4.285   0.008  0.00  0.00    +0.016 C 
ATOM      9  C   UNL     1      -0.343  -4.845  -1.351  0.00  0.00    -0.077 C 
ATOM     10  N   UNL     1       0.449  -4.175  -2.399  0.00  0.00    +0.387 N 
ATOM     11  H   UNL     1       1.442  -4.193  -2.138  0.00  0.00    -0.085 HD
ATOM     12  H   UNL     1       0.321  -4.668  -3.291  0.00  0.00    -0.085 HD
ENDROOT
BRANCH   1  15
ATOM     13  C   UNL     1       3.068  -1.907  -4.583  0.00  0.00    +0.162 A 
ATOM     14  C   UNL     1       2.212  -2.561  -3.712  0.00  0.00    +0.055 A 
ATOM     15  C   UNL     1       0.940  -2.066  -3.490  0.00  0.00    -0.012 A 
ATOM     16  C   UNL     1       0.522  -0.909  -4.131  0.00  0.00    +0.126 A 
ATOM     17  C   UNL     1       1.378  -0.250  -5.000  0.00  0.00    +0.095 A 
ATOM     18  C   UNL     1       2.651  -0.747  -5.228  0.00  0.00    +0.165 A 
BRANCH  13  20
ATOM     19  C   UNL     1       4.679  -3.593  -4.109  0.00  0.00    +0.277 C 
ATOM     20  O   UNL     1       4.318  -2.398  -4.805  0.00  0.00    -0.491 OA
ENDBRANCH  13  20
BRANCH  18  21
ATOM     21  O   UNL     1       3.492  -0.102  -6.080  0.00  0.00    -0.491 OA
ATOM     22  C   UNL     1       2.997   1.083  -6.707  0.00  0.00    +0.277 C 
ENDBRANCH  18  21
BRANCH  16  23
ATOM     23  O   UNL     1      -0.727  -0.422  -3.907  0.00  0.00    -0.495 OA
ATOM     24  C   UNL     1      -1.091   0.773  -4.601  0.00  0.00    +0.277 C 
ENDBRANCH  16  23
ENDBRANCH   1  15
BRANCH   5  25
ATOM     25  O   UNL     1       0.024  -0.042   2.387  0.00  0.00    -0.503 OA
ATOM     26  H   UNL     1      -0.860   0.138   2.737  0.00  0.00    +0.292 HD
ENDBRANCH   5  25
BRANCH   4  27
ATOM     27  O   UNL     1      -0.016   1.356   0.009  0.00  0.00    -0.503 OA
ATOM     28  H   UNL     1       0.862   1.761   0.003  0.00  0.00    +0.292 HD
ENDBRANCH   4  27
TORSDOF 6
