REMARK  Name = ZINC36328202
REMARK  6 active torsions:
REMARK  status: ('A' for Active; 'I' for Inactive)
REMARK    1  A    between atoms: C_1  and  N_2
REMARK    2  A    between atoms: N_2  and  C_3
REMARK    3  A    between atoms: N_2  and  C_10
REMARK    4  A    between atoms: C_10  and  C_12
REMARK    5  A    between atoms: C_10  and  C_14
REMARK    6  A    between atoms: C_12  and  N_13
REMARK                            x       y       z     vdW  Elec       q    Type
REMARK                         _______ _______ _______ _____ _____    ______ ____
ROOT
ATOM      1  C   UNL     1       0.442  -0.638   1.024  0.00  0.00    -0.056 C 
ENDROOT
BRANCH   1   2
ATOM      2  C   UNL     1       1.907  -0.292   1.101  0.00  0.00    -0.063 A 
ATOM      3  C   UNL     1       2.321   1.011   0.896  0.00  0.00    +0.003 A 
ATOM      4  C   UNL     1       3.664   1.329   0.968  0.00  0.00    +0.015 A 
ATOM      5  C   UNL     1       4.594   0.343   1.245  0.00  0.00    +0.018 A 
ATOM      6  C   UNL     1       4.179  -0.961   1.450  0.00  0.00    +0.015 A 
ATOM      7  C   UNL     1       2.836  -1.276   1.383  0.00  0.00    +0.003 A 
ATOM      8 BR   UNL     1       6.432   0.777   1.342  0.00  0.00    -0.050 Br
ENDBRANCH   1   2
BRANCH   1  10
ATOM      9  C   UNL     1       0.273   0.620  -1.012  0.00  0.00    -0.095 C 
ATOM     10  N   UNL     1       0.024  -0.684  -0.384  0.00  0.00    +0.383 N 
ATOM     11  H   UNL     1      -0.960  -0.900  -0.435  0.00  0.00    -0.081 HD
BRANCH  10  12
ATOM     12  C   UNL     1       0.790  -1.721  -1.088  0.00  0.00    -0.068 C 
ATOM     13  C   UNL     1       0.419  -1.686  -2.585  0.00  0.00    -0.015 C 
ATOM     14  C   UNL     1       1.521  -2.349  -3.366  0.00  0.00    -0.002 C 
ATOM     15  C   UNL     1       1.243  -3.842  -3.627  0.00  0.00    -0.000 C 
ATOM     16  C   UNL     1       0.654  -4.563  -2.399  0.00  0.00    -0.000 C 
ATOM     17  C   UNL     1       1.325  -4.155  -1.115  0.00  0.00    -0.002 C 
ATOM     18  C   UNL     1       0.508  -3.012  -0.477  0.00  0.00    -0.015 C 
ENDBRANCH  10  12
ENDBRANCH   1  10
BRANCH   1  19
ATOM     19  C   UNL     1      -0.373   0.425   1.763  0.00  0.00    -0.098 C 
BRANCH  19  20
ATOM     20  N   UNL     1      -1.805   0.124   1.631  0.00  0.00    +0.377 N 
ATOM     21  H   UNL     1      -2.059   0.120   0.654  0.00  0.00    -0.090 HD
ATOM     22  H   UNL     1      -1.996  -0.782   2.032  0.00  0.00    -0.090 HD
ATOM     23  H   UNL     1      -2.342   0.827   2.115  0.00  0.00    -0.090 HD
ENDBRANCH  19  20
ENDBRANCH   1  19
TORSDOF 5
