REMARK  Name = ZINC63432136
REMARK  7 active torsions:
REMARK  status: ('A' for Active; 'I' for Inactive)
REMARK    1  A    between atoms: CG_7  and  CB_10
REMARK    2  A    between atoms: CB_10  and  CA_11
REMARK    3  A    between atoms: CA_11  and  C_13
REMARK    4  A    between atoms: CA_11  and  N_16
REMARK    5  A    between atoms: C_13  and  OXT_15
REMARK    6  A    between atoms: N_16  and  C_17
REMARK    7  A    between atoms: N_23  and  C_26
REMARK                            x       y       z     vdW  Elec       q    Type
REMARK                         _______ _______ _______ _____ _____    ______ ____
ROOT
ATOM      1  CA  TRP A   1       0.618  -3.330  -1.411  0.00  0.00    +0.183 C 
ENDROOT
BRANCH   1   2
ATOM      2  C   TRP A   1      -0.504  -4.337  -1.404  0.00  0.00    +0.325 C 
ATOM      3  O   TRP A   1      -0.318  -5.450  -1.835  0.00  0.00    -0.249 OA
BRANCH   2   4
ATOM      4  OXT TRP A   1      -1.708  -3.997  -0.919  0.00  0.00    -0.479 OA
ATOM      5  HXT TRP A   1      -2.362  -4.708  -0.957  0.00  0.00    +0.295 HD
ENDBRANCH   2   4
ENDBRANCH   1   2
BRANCH   1   6
ATOM      6  N   TRP A   1       1.819  -3.941  -1.986  0.00  0.00    -0.336 N 
ATOM      7  H   TRP A   1       2.487  -4.336  -1.405  0.00  0.00    +0.146 HD
BRANCH   6   8
ATOM      8  C   UNK A   0       1.995  -3.953  -3.322  0.00  0.00    +0.086 C 
ATOM      9  C   UNK A   0       3.172  -4.438  -3.860  0.00  0.00    +0.113 C 
ATOM     10  C   UNK A   0       4.195  -5.082  -3.016  0.00  0.00    +0.256 C 
ATOM     11  O   UNK A   0       4.030  -5.204  -1.817  0.00  0.00    -0.270 OA
ATOM     12  N   UNK A   0       5.320  -5.532  -3.610  0.00  0.00    -0.263 N 
ATOM     13  C   UNK A   0       5.516  -5.403  -4.929  0.00  0.00    +0.146 C 
ATOM     14  N   UNK A   0       4.630  -4.829  -5.756  0.00  0.00    -0.246 N 
ATOM     15  C   UNK A   0       3.458  -4.339  -5.303  0.00  0.00    +0.259 C 
ATOM     16  O   UNK A   0       2.659  -3.824  -6.063  0.00  0.00    -0.269 OA
ATOM     17  S   UNK A   0       6.974  -6.003  -5.595  0.00  0.00    -0.018 S 
ATOM     18  H   UNK A   0       6.003  -5.958  -3.069  0.00  0.00    +0.157 HD
BRANCH  14  19
ATOM     19  C   UNK A   0       4.940  -4.736  -7.184  0.00  0.00    +0.084 C 
ATOM     20  C   UNK A   0       3.847  -5.150  -8.172  0.00  0.00    +0.025 C 
ATOM     21  C   UNK A   0       5.070  -6.045  -7.965  0.00  0.00    +0.025 C 
ENDBRANCH  14  19
ENDBRANCH   6   8
ENDBRANCH   1   6
BRANCH   1  22
ATOM     22  CB  TRP A   1       0.909  -2.882   0.023  0.00  0.00    +0.066 C 
BRANCH  22  29
ATOM     23  CZ3 TRP A   1       0.580   1.694   0.059  0.00  0.00    +0.001 A 
ATOM     24  CH2 TRP A   1       1.820   2.347   0.034  0.00  0.00    +0.002 A 
ATOM     25  CZ2 TRP A   1       2.994   1.682   0.003  0.00  0.00    +0.026 A 
ATOM     26  CE2 TRP A   1       3.014   0.260  -0.005  0.00  0.00    +0.043 A 
ATOM     27  NE1 TRP A   1       4.004  -0.599  -0.034  0.00  0.00    -0.380 N 
ATOM     28  CD1 TRP A   1       3.447  -1.956  -0.029  0.00  0.00    +0.144 C 
ATOM     29  CG  TRP A   1       1.944  -1.787   0.007  0.00  0.00    -0.039 C 
ATOM     30  CD2 TRP A   1       1.717  -0.454   0.020  0.00  0.00    -0.001 A 
ATOM     31  CE3 TRP A   1       0.486   0.345   0.053  0.00  0.00    +0.010 A 
ATOM     32  HE1 TRP A   1       4.948  -0.375  -0.055  0.00  0.00    +0.160 HD
ENDBRANCH  22  29
ENDBRANCH   1  22
TORSDOF 7
