REMARK  Name = ZINC00164292
REMARK  5 active torsions:
REMARK  status: ('A' for Active; 'I' for Inactive)
REMARK    1  A    between atoms: C_4  and  C_7
REMARK    2  A    between atoms: C_8  and  C_18
REMARK    3  A    between atoms: C_9  and  N_17
REMARK    4  A    between atoms: N_10  and  N_16
REMARK    5  A    between atoms: C_13  and  C_14
REMARK                            x       y       z     vdW  Elec       q    Type
REMARK                         _______ _______ _______ _____ _____    ______ ____
ROOT
ATOM      1  C   UNL     1       1.185   2.155   0.002  0.00  0.00    +0.025 A 
ATOM      2  C   UNL     1       1.124   3.568   0.011  0.00  0.00    +0.100 A 
ATOM      3  C   UNL     1      -0.124   4.200   0.026  0.00  0.00    +0.135 A 
ATOM      4  N   UNL     1      -1.271   3.471   0.033  0.00  0.00    -0.217 N 
ATOM      5  C   UNL     1      -1.248   2.127   0.019  0.00  0.00    +0.287 A 
ATOM      6  O   UNL     1      -2.296   1.505   0.021  0.00  0.00    -0.265 OA
ATOM      7  C   UNL     1      -0.017   1.428   0.010  0.00  0.00    +0.127 A 
ENDROOT
BRANCH   1  11
ATOM      8  C   UNL     1       4.930   0.151  -0.044  0.00  0.00    +0.000 A 
ATOM      9  C   UNL     1       4.073   0.034  -1.123  0.00  0.00    +0.001 A 
ATOM     10  C   UNL     1       2.855   0.682  -1.115  0.00  0.00    +0.008 A 
ATOM     11  C   UNL     1       2.488   1.457  -0.013  0.00  0.00    -0.015 A 
ATOM     12  C   UNL     1       3.360   1.575   1.071  0.00  0.00    +0.008 A 
ATOM     13  C   UNL     1       4.572   0.917   1.052  0.00  0.00    +0.001 A 
ENDBRANCH   1  11
BRANCH   4  14
ATOM     14  N   UNL     1      -2.474   4.119   0.048  0.00  0.00    -0.294 N 
ATOM     15  H   UNL     1      -3.239   3.461   0.052  0.00  0.00    +0.163 HD
ATOM     16  H   UNL     1      -2.535   4.749   0.833  0.00  0.00    +0.163 HD
ENDBRANCH   4  14
BRANCH   3  17
ATOM     17  N   UNL     1      -0.190   5.564   0.033  0.00  0.00    -0.342 N 
ATOM     18  H   UNL     1       0.625   6.090   0.028  0.00  0.00    +0.144 HD
ATOM     19  H   UNL     1      -1.053   6.008   0.044  0.00  0.00    +0.144 HD
ENDBRANCH   3  17
BRANCH   7  20
ATOM     20  C   UNL     1       0.002  -0.004   0.002  0.00  0.00    +0.105 C 
ATOM     21  N   UNL     1       0.018  -1.140  -0.004  0.00  0.00    -0.191 NA
ENDBRANCH   7  20
BRANCH   2  22
ATOM     22  C   UNL     1       2.327   4.345   0.003  0.00  0.00    +0.103 C 
ATOM     23  N   UNL     1       3.281   4.960  -0.003  0.00  0.00    -0.191 NA
ENDBRANCH   2  22
TORSDOF 5
