REMARK  Name = ZINC67412001
REMARK  8 active torsions:
REMARK  status: ('A' for Active; 'I' for Inactive)
REMARK    1  A    between atoms: C_1  and  C_2
REMARK    2  A    between atoms: C_2  and  C_3
REMARK    3  A    between atoms: C_2  and  C_4
REMARK    4  A    between atoms: C_2  and  N_18
REMARK    5  A    between atoms: C_4  and  N_5
REMARK    6  A    between atoms: C_6  and  C_8
REMARK    7  A    between atoms: C_8  and  N_9
REMARK    8  A    between atoms: N_12  and  C_15
REMARK                            x       y       z     vdW  Elec       q    Type
REMARK                         _______ _______ _______ _____ _____    ______ ____
ROOT
ATOM      1  N   UNL     1      -1.413  -1.998   0.005  0.00  0.00    -0.313 N 
ATOM      2  C   UNL     1      -2.571  -2.688   0.012  0.00  0.00    +0.227 C 
ATOM      3  O   UNL     1      -3.630  -2.096   0.025  0.00  0.00    -0.274 OA
ATOM      4  H   UNL     1      -0.567  -2.472  -0.006  0.00  0.00    +0.149 HD
ENDROOT
BRANCH   1   5
ATOM      5  C   UNL     1      -1.433  -0.534   0.013  0.00  0.00    +0.126 C 
BRANCH   5   7
ATOM      6  C   UNL     1      -0.019   1.526   0.010  0.00  0.00    +0.029 C 
ATOM      7  C   UNL     1       0.002  -0.004   0.002  0.00  0.00    +0.032 C 
ATOM      8  C   UNL     1       0.742  -0.511   1.242  0.00  0.00    +0.029 C 
BRANCH   7   9
ATOM      9  N   UNL     1       0.690  -0.478  -1.207  0.00  0.00    -0.291 NA
ATOM     10  C   UNL     1      -0.042  -0.082  -2.418  0.00  0.00    +0.113 C 
ATOM     11  C   UNL     1       0.675  -0.645  -3.648  0.00  0.00    +0.175 C 
ATOM     12  O   UNL     1       2.028  -0.183  -3.658  0.00  0.00    -0.377 OA
ATOM     13  C   UNL     1       2.771  -0.552  -2.493  0.00  0.00    +0.175 C 
ATOM     14  C   UNL     1       2.075   0.013  -1.251  0.00  0.00    +0.113 C 
ENDBRANCH   7   9
ENDBRANCH   5   7
ENDBRANCH   1   5
BRANCH   2  15
ATOM     15  C   UNL     1      -2.551  -4.195   0.004  0.00  0.00    +0.180 C 
BRANCH  15  16
ATOM     16  N   UNL     1      -3.929  -4.704   0.014  0.00  0.00    -0.298 NA
ATOM     17  C   UNL     1      -4.602  -4.375   1.279  0.00  0.00    +0.066 C 
ATOM     18  C   UNL     1      -6.050  -4.869   1.226  0.00  0.00    -0.063 C 
ATOM     19  N   UNL     1      -6.064  -6.321   1.006  0.00  0.00    +0.383 N 
ATOM     20  C   UNL     1      -5.411  -6.631  -0.272  0.00  0.00    -0.063 C 
ATOM     21  C   UNL     1      -3.958  -6.152  -0.232  0.00  0.00    +0.066 C 
ATOM     22  H   UNL     1      -5.570  -6.779   1.757  0.00  0.00    -0.081 HD
BRANCH  19  23
ATOM     23  C   UNL     1      -7.454  -6.797   0.974  0.00  0.00    -0.069 C 
ATOM     24  C   UNL     1      -7.926  -7.677   2.132  0.00  0.00    -0.017 C 
ATOM     25  C   UNL     1      -7.683  -8.293   0.753  0.00  0.00    -0.017 C 
ENDBRANCH  19  23
ENDBRANCH  15  16
ENDBRANCH   2  15
TORSDOF 6
