REMARK  Name = ZINC43734932
REMARK  8 active torsions:
REMARK  status: ('A' for Active; 'I' for Inactive)
REMARK    1  A    between atoms: C_1  and  C_2
REMARK    2  A    between atoms: C_2  and  C_3
REMARK    3  A    between atoms: C_2  and  C_4
REMARK    4  A    between atoms: C_7  and  C_10
REMARK    5  A    between atoms: C_12  and  C_15
REMARK    6  A    between atoms: C_15  and  S_16
REMARK    7  A    between atoms: S_16  and  C_17
REMARK    8  A    between atoms: C_21  and  N_23
REMARK                            x       y       z     vdW  Elec       q    Type
REMARK                         _______ _______ _______ _____ _____    ______ ____
ROOT
ATOM      1  C   UNL     1      -5.397  -1.995   0.042  0.00  0.00    +0.109 A 
ATOM      2  N   UNL     1      -6.015  -2.770  -0.838  0.00  0.00    -0.243 NA
ATOM      3  C   UNL     1      -7.264  -3.132  -0.669  0.00  0.00    +0.059 A 
ATOM      4  C   UNL     1      -7.949  -2.711   0.427  0.00  0.00    +0.071 A 
ATOM      5  S   UNL     1      -6.691  -1.742   1.250  0.00  0.00    -0.075 S 
ENDROOT
BRANCH   1   9
ATOM      6  C   UNL     1      -1.412  -0.526   0.013  0.00  0.00    -0.045 A 
ATOM      7  C   UNL     1      -2.257  -0.202   1.059  0.00  0.00    +0.004 A 
ATOM      8  C   UNL     1      -3.553  -0.676   1.074  0.00  0.00    +0.011 A 
ATOM      9  C   UNL     1      -4.010  -1.483   0.032  0.00  0.00    +0.007 A 
ATOM     10  C   UNL     1      -3.152  -1.806  -1.020  0.00  0.00    +0.011 A 
ATOM     11  C   UNL     1      -1.860  -1.321  -1.026  0.00  0.00    +0.004 A 
BRANCH   6  13
ATOM     12  C   UNL     1      -0.019   1.526   0.010  0.00  0.00    +0.012 C 
ATOM     13  C   UNL     1       0.002  -0.004   0.002  0.00  0.00    +0.013 C 
ATOM     14  C   UNL     1       0.742  -0.511   1.242  0.00  0.00    +0.012 C 
ENDBRANCH   6  13
ENDBRANCH   1   9
BRANCH   3  15
ATOM     15  C   UNL     1      -7.940  -4.014  -1.687  0.00  0.00    +0.133 C 
BRANCH  15  16
ATOM     16  S   UNL     1      -7.693  -5.754  -1.239  0.00  0.00    -0.080 S 
BRANCH  16  17
ATOM     17  C   UNL     1      -8.530  -6.644  -2.509  0.00  0.00    +0.192 A 
ATOM     18  N   UNL     1      -9.131  -5.972  -3.480  0.00  0.00    -0.207 NA
ATOM     19  C   UNL     1      -9.772  -6.610  -4.456  0.00  0.00    +0.122 A 
ATOM     20  C   UNL     1      -9.805  -8.002  -4.447  0.00  0.00    +0.086 A 
ATOM     21  C   UNL     1      -9.163  -8.674  -3.411  0.00  0.00    +0.122 A 
ATOM     22  N   UNL     1      -8.537  -7.969  -2.472  0.00  0.00    -0.207 NA
ATOM     23  N   UNL     1     -10.398  -5.899  -5.468  0.00  0.00    -0.343 N 
ATOM     24  H   UNL     1     -10.371  -4.929  -5.467  0.00  0.00    +0.144 HD
ATOM     25  H   UNL     1     -10.864  -6.371  -6.176  0.00  0.00    +0.144 HD
BRANCH  21  26
ATOM     26  N   UNL     1      -9.171 -10.059  -3.362  0.00  0.00    -0.343 N 
ATOM     27  H   UNL     1      -9.626 -10.567  -4.052  0.00  0.00    +0.144 HD
ATOM     28  H   UNL     1      -8.721 -10.521  -2.637  0.00  0.00    +0.144 HD
ENDBRANCH  21  26
ENDBRANCH  16  17
ENDBRANCH  15  16
ENDBRANCH   3  15
TORSDOF 6
