REMARK  Name = ZINC65476834
REMARK  8 active torsions:
REMARK  status: ('A' for Active; 'I' for Inactive)
REMARK    1  A    between atoms: C_1  and  C_2
REMARK    2  A    between atoms: C_5  and  C_8
REMARK    3  A    between atoms: C_8  and  C_9
REMARK    4  A    between atoms: C_8  and  N_22
REMARK    5  A    between atoms: C_9  and  N_10
REMARK    6  A    between atoms: N_13  and  N_14
REMARK    7  A    between atoms: N_22  and  C_23
REMARK    8  A    between atoms: N_22  and  C_24
REMARK                            x       y       z     vdW  Elec       q    Type
REMARK                         _______ _______ _______ _____ _____    ______ ____
ROOT
ATOM      1  N   UNL     1      -2.128  -4.352  -1.064  0.00  0.00    -0.299 N 
ATOM      2  C   UNL     1      -3.437  -4.662  -1.141  0.00  0.00    +0.316 C 
ATOM      3  O   UNL     1      -3.945  -5.372  -0.294  0.00  0.00    -0.251 OA
ATOM      4  N   UNL     1      -4.184  -4.186  -2.157  0.00  0.00    -0.219 N 
ATOM      5  H   UNL     1      -1.723  -3.786  -1.739  0.00  0.00    +0.150 HD
ATOM      6  H   UNL     1      -5.126  -4.410  -2.213  0.00  0.00    +0.174 HD
ENDROOT
BRANCH   4   7
ATOM      7  N   UNL     1      -3.599  -3.369  -3.133  0.00  0.00    -0.246 N 
ATOM      8  C   UNL     1      -4.369  -2.878  -4.182  0.00  0.00    +0.157 A 
ATOM      9  C   UNL     1      -3.788  -2.068  -5.159  0.00  0.00    +0.050 A 
ATOM     10  C   UNL     1      -4.598  -1.604  -6.182  0.00  0.00    +0.045 A 
ATOM     11  C   UNL     1      -5.938  -1.974  -6.173  0.00  0.00    +0.152 A 
ATOM     12  N   UNL     1      -6.403  -2.744  -5.209  0.00  0.00    -0.136 NA
ATOM     13  N   UNL     1      -5.656  -3.181  -4.261  0.00  0.00    -0.132 NA
ATOM     14 CL   UNL     1      -6.999  -1.421  -7.431  0.00  0.00    -0.060 Cl
ATOM     15  H   UNL     1      -2.656  -3.146  -3.078  0.00  0.00    +0.172 HD
ENDBRANCH   4   7
BRANCH   1  16
ATOM     16  C   UNL     1      -1.317  -4.870   0.041  0.00  0.00    +0.095 C 
BRANCH  16  17
ATOM     17  C   UNL     1       0.088  -4.267  -0.032  0.00  0.00    -0.021 C 
BRANCH  17  22
ATOM     18  C   UNL     1      -0.218   1.437   0.841  0.00  0.00    +0.044 C 
ATOM     19  C   UNL     1      -0.138  -0.051   0.613  0.00  0.00    -0.050 A 
ATOM     20  C   UNL     1      -0.028  -0.548  -0.672  0.00  0.00    +0.003 A 
ATOM     21  C   UNL     1       0.046  -1.913  -0.881  0.00  0.00    +0.002 A 
ATOM     22  C   UNL     1       0.009  -2.780   0.196  0.00  0.00    -0.059 A 
ATOM     23  C   UNL     1      -0.101  -2.282   1.480  0.00  0.00    +0.002 A 
ATOM     24  C   UNL     1      -0.170  -0.917   1.690  0.00  0.00    +0.003 A 
ENDBRANCH  17  22
BRANCH  17  25
ATOM     25  N   UNL     1       0.936  -4.876   1.001  0.00  0.00    +0.382 N 
ATOM     26  C   UNL     1       1.028  -6.324   0.769  0.00  0.00    -0.096 C 
ATOM     27  C   UNL     1       2.280  -4.285   0.942  0.00  0.00    -0.096 C 
ATOM     28  H   UNL     1       0.533  -4.706   1.910  0.00  0.00    -0.082 HD
ENDBRANCH  17  25
ENDBRANCH  16  17
ENDBRANCH   1  16
TORSDOF 5
