REMARK  Name = ZINC44993392
REMARK  6 active torsions:
REMARK  status: ('A' for Active; 'I' for Inactive)
REMARK    1  A    between atoms: C_1  and  C_2
REMARK    2  A    between atoms: C_2  and  C_4
REMARK    3  A    between atoms: C_2  and  N_18
REMARK    4  A    between atoms: C_4  and  N_5
REMARK    5  A    between atoms: N_5  and  C_6
REMARK    6  A    between atoms: C_6  and  C_7
REMARK                            x       y       z     vdW  Elec       q    Type
REMARK                         _______ _______ _______ _____ _____    ______ ____
ROOT
ATOM      1  N   UNL     1       0.719  -2.191  -0.836  0.00  0.00    -0.311 NA
ATOM      2  H   UNL     1       1.123  -2.385   0.068  0.00  0.00    +0.122 HD
ENDROOT
BRANCH   1   3
ATOM      3  C   UNL     1       0.729  -0.749  -1.119  0.00  0.00    +0.066 C 
BRANCH   3   5
ATOM      4  C   UNL     1      -0.075   1.485  -0.342  0.00  0.00    -0.012 C 
ATOM      5  C   UNL     1       0.002  -0.004   0.002  0.00  0.00    -0.058 C 
BRANCH   5   6
ATOM      6  N   UNL     1      -1.356  -0.544   0.148  0.00  0.00    +0.382 N 
ATOM      7  C   UNL     1      -2.128  -0.260  -1.067  0.00  0.00    -0.078 C 
ATOM      8  C   UNL     1      -3.517  -0.890  -0.953  0.00  0.00    -0.019 C 
ATOM      9  C   UNL     1      -4.241  -0.302   0.262  0.00  0.00    -0.004 C 
ATOM     10  C   UNL     1      -3.391  -0.539   1.513  0.00  0.00    -0.019 C 
ATOM     11  C   UNL     1      -2.006   0.079   1.308  0.00  0.00    -0.078 C 
ATOM     12  H   UNL     1      -1.307  -1.542   0.287  0.00  0.00    -0.081 HD
ENDBRANCH   5   6
ENDBRANCH   3   5
ENDBRANCH   1   3
BRANCH   1  13
ATOM     13  C   UNL     1       1.409  -2.940  -1.894  0.00  0.00    +0.155 C 
BRANCH  13  14
ATOM     14  C   UNL     1       1.378  -4.412  -1.569  0.00  0.00    +0.124 A 
ATOM     15  N   UNL     1       1.975  -5.276  -2.431  0.00  0.00    -0.309 N 
ATOM     16  H   UNL     1       2.408  -4.946  -3.234  0.00  0.00    +0.170 HD
ATOM     17  C   UNL     1       1.958  -6.603  -2.159  0.00  0.00    +0.266 A 
ATOM     18  O   UNL     1       2.485  -7.405  -2.912  0.00  0.00    -0.267 OA
ATOM     19  C   UNL     1       1.323  -7.027  -0.992  0.00  0.00    +0.102 A 
ATOM     20  C   UNL     1       0.713  -6.111  -0.116  0.00  0.00    +0.085 A 
ATOM     21  N   UNL     1       0.789  -4.789  -0.480  0.00  0.00    -0.232 NA
ATOM     22  C   UNL     1       0.110  -6.671   1.019  0.00  0.00    +0.036 A 
ATOM     23  C   UNL     1       0.140  -8.007   1.215  0.00  0.00    +0.048 A 
ATOM     24  S   UNL     1       1.037  -8.594  -0.213  0.00  0.00    -0.090 S 
ENDBRANCH  13  14
ENDBRANCH   1  13
TORSDOF 5
