REMARK  Name = ZINC55332635
REMARK  4 active torsions:
REMARK  status: ('A' for Active; 'I' for Inactive)
REMARK    1  A    between atoms: C_1  and  C_2
REMARK    2  A    between atoms: C_5  and  C_8
REMARK    3  A    between atoms: C_9  and  C_15
REMARK    4  A    between atoms: C_13  and  N_14
REMARK                            x       y       z     vdW  Elec       q    Type
REMARK                         _______ _______ _______ _____ _____    ______ ____
ROOT
ATOM      1  C   UNL     1       0.060  -4.254  -0.021  0.00  0.00    +0.052 A 
ATOM      2  C   UNL     1      -0.991  -5.147   0.470  0.00  0.00    +0.137 A 
ATOM      3  N   UNL     1      -0.577  -6.381   0.277  0.00  0.00    -0.169 NA
ATOM      4  N   UNL     1       0.690  -6.353  -0.314  0.00  0.00    -0.263 N 
ATOM      5  H   UNL     1       1.212  -7.134  -0.557  0.00  0.00    +0.190 HD
ATOM      6  C   UNL     1       1.072  -5.066  -0.500  0.00  0.00    +0.120 A 
ENDROOT
BRANCH   1  11
ATOM      7  C   UNL     1      -0.018   1.503   0.010  0.00  0.00    +0.044 C 
ATOM      8  C   UNL     1       0.002  -0.004   0.002  0.00  0.00    -0.050 A 
ATOM      9  C   UNL     1       0.006  -0.686  -1.202  0.00  0.00    +0.004 A 
ATOM     10  C   UNL     1       0.024  -2.066  -1.216  0.00  0.00    +0.009 A 
ATOM     11  C   UNL     1       0.040  -2.773  -0.013  0.00  0.00    -0.012 A 
ATOM     12  C   UNL     1       0.037  -2.079   1.197  0.00  0.00    +0.009 A 
ATOM     13  C   UNL     1       0.023  -0.699   1.198  0.00  0.00    +0.004 A 
ENDBRANCH   1  11
BRANCH   2  14
ATOM     14  C   UNL     1      -2.278  -4.738   1.070  0.00  0.00    +0.157 A 
ATOM     15  C   UNL     1      -3.464  -5.388   0.932  0.00  0.00    +0.053 A 
ATOM     16  C   UNL     1      -4.417  -4.654   1.667  0.00  0.00    +0.057 A 
ATOM     17  C   UNL     1      -3.771  -3.603   2.212  0.00  0.00    +0.171 A 
ATOM     18  O   UNL     1      -2.478  -3.661   1.853  0.00  0.00    -0.447 OA
ATOM     19 BR   UNL     1      -4.555  -2.274   3.305  0.00  0.00    -0.008 Br
ENDBRANCH   2  14
BRANCH   6  20
ATOM     20  N   UNL     1       2.266  -4.639  -1.065  0.00  0.00    -0.343 N 
ATOM     21  H   UNL     1       2.449  -3.690  -1.153  0.00  0.00    +0.144 HD
ATOM     22  H   UNL     1       2.917  -5.289  -1.373  0.00  0.00    +0.144 HD
ENDBRANCH   6  20
TORSDOF 3
