REMARK  Name = ZINC37219362
REMARK  5 active torsions:
REMARK  status: ('A' for Active; 'I' for Inactive)
REMARK    1  A    between atoms: C_1  and  C_2
REMARK    2  A    between atoms: C_2  and  C_4
REMARK    3  A    between atoms: C_2  and  N_12
REMARK    4  A    between atoms: N_12  and  C_13
REMARK    5  A    between atoms: C_13  and  C_14
REMARK                            x       y       z     vdW  Elec       q    Type
REMARK                         _______ _______ _______ _____ _____    ______ ____
ROOT
ATOM      1  N   UNL     1       0.690  -0.478  -1.207  0.00  0.00    +0.386 N 
ATOM      2  H   UNL     1       1.608  -0.063  -1.256  0.00  0.00    -0.085 HD
ATOM      3  H   UNL     1       0.776  -1.482  -1.172  0.00  0.00    -0.085 HD
ENDROOT
BRANCH   1   5
ATOM      4  C   UNL     1      -0.019   1.526   0.010  0.00  0.00    -0.009 C 
ATOM      5  C   UNL     1       0.002  -0.004   0.002  0.00  0.00    -0.042 C 
BRANCH   5   6
ATOM      6  C   UNL     1       0.731  -0.503   1.223  0.00  0.00    -0.043 A 
ATOM      7  C   UNL     1       2.077  -0.808   1.147  0.00  0.00    +0.006 A 
ATOM      8  C   UNL     1       2.747  -1.266   2.266  0.00  0.00    +0.038 A 
ATOM      9  C   UNL     1       2.069  -1.420   3.464  0.00  0.00    +0.125 A 
ATOM     10  C   UNL     1       0.721  -1.114   3.540  0.00  0.00    +0.058 A 
ATOM     11  C   UNL     1       0.054  -0.651   2.420  0.00  0.00    +0.045 A 
ATOM     12 CL   UNL     1      -1.635  -0.262   2.516  0.00  0.00    -0.083 Cl
ATOM     13  F   UNL     1       2.723  -1.868   4.558  0.00  0.00    -0.205 F 
ENDBRANCH   5   6
ENDBRANCH   1   5
BRANCH   1  14
ATOM     14  C   UNL     1      -0.086  -0.093  -2.394  0.00  0.00    -0.046 C 
BRANCH  14  15
ATOM     15  C   UNL     1       0.620  -0.579  -3.634  0.00  0.00    -0.061 A 
ATOM     16  C   UNL     1       1.552   0.229  -4.258  0.00  0.00    +0.005 A 
ATOM     17  C   UNL     1       2.202  -0.213  -5.396  0.00  0.00    +0.050 A 
ATOM     18  C   UNL     1       1.920  -1.467  -5.912  0.00  0.00    +0.166 A 
ATOM     19  C   UNL     1       0.981  -2.281  -5.283  0.00  0.00    +0.166 A 
ATOM     20  C   UNL     1       0.338  -1.834  -4.140  0.00  0.00    +0.051 A 
ATOM     21  O   UNL     1       0.883  -3.452  -5.978  0.00  0.00    -0.453 OA
ATOM     22  C   UNL     1       1.469  -3.185  -7.266  0.00  0.00    +0.466 C 
ATOM     23  O   UNL     1       2.411  -2.128  -7.001  0.00  0.00    -0.453 OA
ENDBRANCH  14  15
ENDBRANCH   1  14
TORSDOF 4
