REMARK  Name = ZINC49554590
REMARK  12 active torsions:
REMARK  status: ('A' for Active; 'I' for Inactive)
REMARK    1  A    between atoms: C_1  and  C_2
REMARK    2  A    between atoms: C_2  and  C_3
REMARK    3  A    between atoms: C_2  and  C_4
REMARK    4  A    between atoms: C_4  and  C_5
REMARK    5  A    between atoms: C_5  and  C_7
REMARK    6  A    between atoms: C_5  and  N_11
REMARK    7  A    between atoms: C_7  and  N_8
REMARK    8  A    between atoms: N_8  and  C_9
REMARK    9  A    between atoms: N_8  and  C_10
REMARK   10  A    between atoms: N_11  and  S_12
REMARK   11  A    between atoms: S_12  and  C_15
REMARK   12  A    between atoms: C_20  and  N_21
REMARK                            x       y       z     vdW  Elec       q    Type
REMARK                         _______ _______ _______ _____ _____    ______ ____
ROOT
ATOM      1  S   UNL     1       0.208   2.048  -2.013  0.00  0.00    +0.060 S 
ATOM      2  O   UNL     1       0.137   1.593  -3.358  0.00  0.00    -0.153 OA
ATOM      3  O   UNL     1       0.343   3.423  -1.680  0.00  0.00    -0.153 OA
ENDROOT
BRANCH   1   4
ATOM      4  C   UNL     1       1.571   1.214  -1.271  0.00  0.00    +0.126 A 
ATOM      5  C   UNL     1       2.340   0.344  -2.019  0.00  0.00    +0.031 A 
ATOM      6  C   UNL     1       3.410  -0.311  -1.438  0.00  0.00    +0.017 A 
ATOM      7  C   UNL     1       3.715  -0.097  -0.105  0.00  0.00    +0.020 A 
ATOM      8  C   UNL     1       2.950   0.773   0.649  0.00  0.00    +0.040 A 
ATOM      9  C   UNL     1       1.877   1.436   0.066  0.00  0.00    +0.052 A 
ATOM     10 BR   UNL     1       5.179  -0.995   0.686  0.00  0.00    -0.050 Br
BRANCH   9  11
ATOM     11  N   UNL     1       1.105   2.320   0.823  0.00  0.00    -0.356 N 
ATOM     12  H   UNL     1       0.306   2.716   0.441  0.00  0.00    +0.142 HD
ATOM     13  H   UNL     1       1.369   2.538   1.731  0.00  0.00    +0.142 HD
ENDBRANCH   9  11
ENDBRANCH   1   4
BRANCH   1  14
ATOM     14  N   UNL     1      -1.165   1.511  -1.259  0.00  0.00    -0.189 NA
ATOM     15  H   UNL     1      -1.701   2.124  -0.733  0.00  0.00    +0.148 HD
BRANCH  14  16
ATOM     16  C   UNL     1      -1.569   0.108  -1.386  0.00  0.00    +0.060 C 
BRANCH  16  17
ATOM     17  C   UNL     1      -1.058  -0.681  -0.179  0.00  0.00    +0.021 C 
BRANCH  17  19
ATOM     18  C   UNL     1      -0.541  -2.696  -1.562  0.00  0.00    +0.007 C 
ATOM     19  C   UNL     1      -1.355  -2.169  -0.379  0.00  0.00    -0.016 C 
ATOM     20  C   UNL     1      -0.975  -2.940   0.886  0.00  0.00    +0.007 C 
ENDBRANCH  17  19
ENDBRANCH  16  17
BRANCH  16  21
ATOM     21  C   UNL     1      -3.095   0.021  -1.443  0.00  0.00    -0.059 C 
BRANCH  21  22
ATOM     22  N   UNL     1      -3.594   0.869  -2.534  0.00  0.00    +0.377 N 
ATOM     23  C   UNL     1      -3.141   0.326  -3.822  0.00  0.00    -0.097 C 
ATOM     24  C   UNL     1      -5.062   0.894  -2.503  0.00  0.00    -0.097 C 
ATOM     25  H   UNL     1      -3.239   1.806  -2.421  0.00  0.00    -0.083 HD
ENDBRANCH  21  22
ENDBRANCH  16  21
ENDBRANCH  14  16
ENDBRANCH   1  14
TORSDOF 8
