REMARK  Name = ZINC13581156
REMARK  2 active torsions:
REMARK  status: ('A' for Active; 'I' for Inactive)
REMARK    1  A    between atoms: N_10  and  C_13
REMARK    2  A    between atoms: C_13  and  C_14
REMARK                            x       y       z     vdW  Elec       q    Type
REMARK                         _______ _______ _______ _____ _____    ______ ____
ROOT
ATOM      1  C   UNL     1       2.370   1.437   0.009  0.00  0.00    +0.005 A 
ATOM      2  C   UNL     1       1.127   2.057   0.003  0.00  0.00    +0.018 A 
ATOM      3  C   UNL     1      -0.015   1.282  -0.012  0.00  0.00    +0.084 A 
ATOM      4  N   UNL     1       0.061  -0.036  -0.020  0.00  0.00    -0.350 N 
ATOM      5  C   UNL     1       1.227  -0.664  -0.014  0.00  0.00    +0.099 A 
ATOM      6  C   UNL     1       2.418   0.054   0.001  0.00  0.00    +0.042 A 
ATOM      7  N   UNL     1       1.260  -2.054  -0.022  0.00  0.00    -0.314 N 
ATOM      8  C   UNL     1       2.535  -2.777  -0.142  0.00  0.00    +0.122 C 
ATOM      9  C   UNL     1       2.615  -3.814   0.984  0.00  0.00    +0.104 C 
ATOM     10  N   UNL     1       1.414  -4.660   0.951  0.00  0.00    -0.292 NA
ATOM     11  C   UNL     1       0.200  -3.874   1.206  0.00  0.00    +0.104 C 
ATOM     12  C   UNL     1       0.023  -2.839   0.095  0.00  0.00    +0.122 C 
ATOM     13  H   UNL     1      -0.757  -0.557  -0.031  0.00  0.00    +0.166 HD
ENDROOT
BRANCH  10  14
ATOM     14  C   UNL     1       1.529  -5.774   1.902  0.00  0.00    +0.158 C 
BRANCH  14  15
ATOM     15  C   UNL     1       0.405  -6.750   1.671  0.00  0.00    +0.122 A 
ATOM     16  N   UNL     1      -0.789  -6.646   2.177  0.00  0.00    -0.230 NA
ATOM     17  C   UNL     1      -1.551  -7.693   1.767  0.00  0.00    +0.103 A 
ATOM     18  C   UNL     1      -0.741  -8.492   0.943  0.00  0.00    +0.068 A 
ATOM     19  N   UNL     1       0.489  -7.867   0.897  0.00  0.00    -0.341 N 
ATOM     20  C   UNL     1      -1.259  -9.646   0.372  0.00  0.00    +0.043 A 
ATOM     21  C   UNL     1      -2.568 -10.004   0.615  0.00  0.00    +0.021 A 
ATOM     22  C   UNL     1      -3.373  -9.218   1.429  0.00  0.00    +0.032 A 
ATOM     23  C   UNL     1      -2.876  -8.070   2.004  0.00  0.00    +0.046 A 
ATOM     24 BR   UNL     1      -3.982  -7.008   3.110  0.00  0.00    -0.048 Br
ATOM     25 BR   UNL     1      -3.272 -11.577  -0.164  0.00  0.00    -0.050 Br
ATOM     26  H   UNL     1       1.270  -8.168   0.406  0.00  0.00    +0.167 HD
ENDBRANCH  14  15
ENDBRANCH  10  14
TORSDOF 2
