REMARK  Name = ZINC36618844
REMARK  10 active torsions:
REMARK  status: ('A' for Active; 'I' for Inactive)
REMARK    1  A    between atoms: C_1  and  O_2
REMARK    2  A    between atoms: O_2  and  C_3
REMARK    3  A    between atoms: C_5  and  C_13
REMARK    4  A    between atoms: C_7  and  O_11
REMARK    5  A    between atoms: C_8  and  O_9
REMARK    6  A    between atoms: O_9  and  C_10
REMARK    7  A    between atoms: O_11  and  C_12
REMARK    8  A    between atoms: C_16  and  C_27
REMARK    9  A    between atoms: C_22  and  N_26
REMARK   10  A    between atoms: C_23  and  C_24
REMARK                            x       y       z     vdW  Elec       q    Type
REMARK                         _______ _______ _______ _____ _____    ______ ____
ROOT
ATOM      1  C   UNL     1      -4.922   0.344   0.032  0.00  0.00    +0.102 C 
ATOM      2  C   UNL     1      -5.756  -0.128   1.195  0.00  0.00    +0.054 A 
ATOM      3  C   UNL     1      -5.560   0.074   2.564  0.00  0.00    +0.102 A 
ATOM      4  N   UNL     1      -6.544  -0.526   3.208  0.00  0.00    -0.171 NA
ATOM      5  N   UNL     1      -7.391  -1.125   2.262  0.00  0.00    -0.246 N 
ATOM      6  H   UNL     1      -8.194  -1.633   2.457  0.00  0.00    +0.192 HD
ATOM      7  C   UNL     1      -6.892  -0.869   1.035  0.00  0.00    +0.223 A 
ATOM      8  O   UNL     1      -7.361  -1.236  -0.183  0.00  0.00    -0.423 OA
ATOM      9  C   UNL     1      -6.837  -0.625  -1.265  0.00  0.00    +0.200 C 
ATOM     10  C   UNL     1      -5.711   0.123  -1.235  0.00  0.00    +0.098 C 
ENDROOT
BRANCH   3  11
ATOM     11  C   UNL     1      -4.444   0.829   3.184  0.00  0.00    +0.021 A 
ATOM     12  C   UNL     1      -4.103   2.092   2.706  0.00  0.00    +0.011 A 
ATOM     13  C   UNL     1      -3.064   2.791   3.286  0.00  0.00    +0.001 A 
ATOM     14  C   UNL     1      -2.360   2.239   4.342  0.00  0.00    +0.001 A 
ATOM     15  C   UNL     1      -2.693   0.986   4.821  0.00  0.00    +0.020 A 
ATOM     16  C   UNL     1      -3.735   0.280   4.252  0.00  0.00    +0.050 A 
ATOM     17 CL   UNL     1      -4.156  -1.291   4.859  0.00  0.00    -0.083 Cl
ENDBRANCH   3  11
BRANCH   1  20
ATOM     18  C   UNL     1      -1.240  -0.500  -0.046  0.00  0.00    +0.165 A 
ATOM     19  C   UNL     1      -2.424   0.219   0.006  0.00  0.00    +0.054 A 
ATOM     20  C   UNL     1      -3.638  -0.442  -0.025  0.00  0.00    -0.027 A 
ATOM     21  C   UNL     1      -3.676  -1.821  -0.107  0.00  0.00    +0.054 A 
ATOM     22  C   UNL     1      -2.497  -2.548  -0.159  0.00  0.00    +0.165 A 
ATOM     23  C   UNL     1      -1.274  -1.887  -0.134  0.00  0.00    +0.204 A 
BRANCH  18  25
ATOM     24  C   UNL     1      -0.086   1.576   0.076  0.00  0.00    +0.277 C 
ATOM     25  O   UNL     1      -0.046   0.150  -0.016  0.00  0.00    -0.491 OA
ENDBRANCH  18  25
BRANCH  23  26
ATOM     26  O   UNL     1      -0.114  -2.596  -0.191  0.00  0.00    -0.488 OA
ATOM     27  C   UNL     1       0.451  -3.016   1.053  0.00  0.00    +0.277 C 
ENDBRANCH  23  26
BRANCH  22  28
ATOM     28  O   UNL     1      -2.536  -3.905  -0.239  0.00  0.00    -0.491 OA
ATOM     29  C   UNL     1      -3.827  -4.516  -0.266  0.00  0.00    +0.277 C 
ENDBRANCH  22  28
ENDBRANCH   1  20
BRANCH   9  30
ATOM     30  N   UNL     1      -7.483  -0.772  -2.467  0.00  0.00    -0.328 N 
ATOM     31  H   UNL     1      -8.293  -1.303  -2.521  0.00  0.00    +0.145 HD
ATOM     32  H   UNL     1      -7.129  -0.344  -3.263  0.00  0.00    +0.145 HD
ENDBRANCH   9  30
BRANCH  10  33
ATOM     33  C   UNL     1      -5.250   0.729  -2.448  0.00  0.00    +0.101 C 
ATOM     34  N   UNL     1      -4.885   1.209  -3.410  0.00  0.00    -0.191 NA
ENDBRANCH  10  33
TORSDOF 7
