REMARK  Name = ZINC36191335
REMARK  5 active torsions:
REMARK  status: ('A' for Active; 'I' for Inactive)
REMARK    1  A    between atoms: C_1  and  N_2
REMARK    2  A    between atoms: N_2  and  C_3
REMARK    3  A    between atoms: N_2  and  C_4
REMARK    4  A    between atoms: C_10  and  C_12
REMARK    5  A    between atoms: C_18  and  C_20
REMARK                            x       y       z     vdW  Elec       q    Type
REMARK                         _______ _______ _______ _____ _____    ______ ____
ROOT
ATOM      1  C   UNL     1      -0.458  -1.281  -1.194  0.00  0.00    -0.066 C 
ATOM      2  C   UNL     1      -0.897  -2.677  -0.748  0.00  0.00    +0.004 C 
ATOM      3  C   UNL     1      -2.370  -2.636  -0.331  0.00  0.00    +0.106 C 
ATOM      4  N   UNL     1      -3.160  -2.081  -1.439  0.00  0.00    -0.301 N 
ATOM      5  C   UNL     1      -2.768  -0.783  -2.005  0.00  0.00    +0.106 C 
ATOM      6  C   UNL     1      -1.289  -0.845  -2.403  0.00  0.00    +0.004 C 
ATOM      7  C   UNL     1      -4.223  -2.750  -1.927  0.00  0.00    +0.219 C 
ATOM      8  O   UNL     1      -4.484  -3.859  -1.512  0.00  0.00    -0.275 OA
ENDROOT
BRANCH   7   9
ATOM      9  C   UNL     1      -5.087  -2.120  -2.989  0.00  0.00    +0.089 C 
ATOM     10  C   UNL     1      -6.101  -1.182  -2.332  0.00  0.00    +0.013 C 
ATOM     11  C   UNL     1      -6.978  -0.542  -3.410  0.00  0.00    +0.001 C 
ATOM     12  C   UNL     1      -7.720  -1.637  -4.179  0.00  0.00    +0.001 C 
ATOM     13  C   UNL     1      -6.706  -2.575  -4.837  0.00  0.00    +0.015 C 
ATOM     14  C   UNL     1      -5.829  -3.215  -3.758  0.00  0.00    +0.114 C 
BRANCH  14  15
ATOM     15  C   UNL     1      -4.830  -4.139  -4.406  0.00  0.00    +0.360 C 
ATOM     16  O   UNL     1      -5.033  -5.341  -4.421  0.00  0.00    -0.246 OA
ATOM     17  O   UNL     1      -3.820  -3.684  -4.915  0.00  0.00    -0.246 OA
ENDBRANCH  14  15
ENDBRANCH   7   9
BRANCH   1  19
ATOM     18  C   UNL     1       1.386   0.032  -1.991  0.00  0.00    -0.096 C 
ATOM     19  N   UNL     1       0.964  -1.309  -1.563  0.00  0.00    +0.378 N 
ATOM     20  C   UNL     1       1.762  -1.727  -0.403  0.00  0.00    -0.096 C 
ATOM     21  H   UNL     1       1.102  -1.962  -2.320  0.00  0.00    -0.082 HD
ENDBRANCH   1  19
TORSDOF 3
