REMARK  Name = ZINC67515385
REMARK  7 active torsions:
REMARK  status: ('A' for Active; 'I' for Inactive)
REMARK    1  A    between atoms: C_1  and  C_2
REMARK    2  A    between atoms: C_2  and  C_3
REMARK    3  A    between atoms: C_2  and  C_4
REMARK    4  A    between atoms: C_4  and  N_5
REMARK    5  A    between atoms: C_8  and  C_12
REMARK    6  A    between atoms: C_8  and  C_20
REMARK    7  A    between atoms: C_12  and  C_13
REMARK                            x       y       z     vdW  Elec       q    Type
REMARK                         _______ _______ _______ _____ _____    ______ ____
ROOT
ATOM      1  N   UNL     1      -1.416  -1.993  -0.116  0.00  0.00    -0.224 N 
ATOM      2  C   UNL     1      -1.447  -2.650  -1.292  0.00  0.00    +0.247 C 
ATOM      3  O   UNL     1      -1.491  -2.163  -2.401  0.00  0.00    -0.273 OA
ATOM      4  C   UNL     1      -1.412  -4.124  -0.939  0.00  0.00    +0.119 C 
ATOM      5  N   UNL     1      -1.362  -4.126   0.533  0.00  0.00    -0.284 N 
ATOM      6  C   UNL     1      -1.363  -2.838   0.920  0.00  0.00    +0.309 C 
ATOM      7  O   UNL     1      -1.324  -2.482   2.082  0.00  0.00    -0.252 OA
ATOM      8  H   UNL     1      -1.331  -4.905   1.111  0.00  0.00    +0.151 HD
ENDROOT
BRANCH   4   9
ATOM      9  C   UNL     1      -2.678  -4.826  -1.436  0.00  0.00    +0.018 C 
ATOM     10  C   UNL     1      -2.712  -4.797  -2.967  0.00  0.00    -0.013 C 
ATOM     11  C   UNL     1      -4.017  -5.430  -3.454  0.00  0.00    -0.082 C 
ATOM     12  N   UNL     1      -5.159  -4.675  -2.924  0.00  0.00    +0.379 N 
ATOM     13  C   UNL     1      -5.173  -4.758  -1.459  0.00  0.00    -0.082 C 
ATOM     14  C   UNL     1      -3.912  -4.099  -0.894  0.00  0.00    -0.013 C 
ATOM     15  H   UNL     1      -5.081  -3.709  -3.205  0.00  0.00    -0.086 HD
ATOM     16  H   UNL     1      -6.016  -5.062  -3.290  0.00  0.00    -0.086 HD
ENDBRANCH   4   9
BRANCH   1  17
ATOM     17  C   UNL     1      -1.433  -0.534   0.013  0.00  0.00    +0.121 C 
BRANCH  17  19
ATOM     18  C   UNL     1      -0.019   1.526   0.010  0.00  0.00    +0.009 C 
ATOM     19  C   UNL     1       0.002  -0.004   0.002  0.00  0.00    +0.001 C 
ATOM     20  C   UNL     1       0.742  -0.511   1.242  0.00  0.00    +0.009 C 
ENDBRANCH  17  19
ENDBRANCH   1  17
BRANCH   4  21
ATOM     21  C   UNL     1      -0.163  -4.788  -1.522  0.00  0.00    +0.073 C 
BRANCH  21  22
ATOM     22  C   UNL     1       1.066  -4.194  -0.882  0.00  0.00    -0.010 A 
ATOM     23  C   UNL     1       1.730  -3.150  -1.497  0.00  0.00    +0.006 A 
ATOM     24  C   UNL     1       2.857  -2.606  -0.910  0.00  0.00    +0.000 A 
ATOM     25  C   UNL     1       3.321  -3.105   0.293  0.00  0.00    +0.003 A 
ATOM     26  C   UNL     1       2.659  -4.149   0.910  0.00  0.00    +0.038 A 
ATOM     27  C   UNL     1       1.526  -4.692   0.326  0.00  0.00    +0.127 A 
ATOM     28  F   UNL     1       0.875  -5.709   0.930  0.00  0.00    -0.205 F 
ENDBRANCH  21  22
ENDBRANCH   4  21
TORSDOF 5
