REMARK  Name = ZINC44050451
REMARK  7 active torsions:
REMARK  status: ('A' for Active; 'I' for Inactive)
REMARK    1  A    between atoms: C_1  and  C_2
REMARK    2  A    between atoms: C_2  and  O_3
REMARK    3  A    between atoms: O_3  and  C_4
REMARK    4  A    between atoms: C_9  and  O_10
REMARK    5  A    between atoms: O_10  and  C_11
REMARK    6  A    between atoms: C_19  and  N_21
REMARK    7  A    between atoms: N_21  and  C_22
REMARK                            x       y       z     vdW  Elec       q    Type
REMARK                         _______ _______ _______ _____ _____    ______ ____
ROOT
ATOM      1  C   UNL     1       2.566  -2.141   4.505  0.00  0.00    +0.160 C 
ATOM      2  C   UNL     1       4.072  -2.324   4.302  0.00  0.00    +0.043 C 
ATOM      3  C   UNL     1       4.609  -3.316   5.336  0.00  0.00    +0.004 C 
ATOM      4  C   UNL     1       4.714  -2.625   6.697  0.00  0.00    +0.000 C 
ATOM      5  C   UNL     1       5.325  -1.234   6.518  0.00  0.00    -0.000 C 
ATOM      6  C   UNL     1       4.276  -0.170   6.846  0.00  0.00    -0.001 C 
ATOM      7  C   UNL     1       3.283  -0.059   5.687  0.00  0.00    -0.012 C 
ATOM      8  C   UNL     1       2.322  -1.249   5.724  0.00  0.00    -0.031 C 
ENDROOT
BRANCH   8   9
ATOM      9  N   UNL     1       0.937  -0.760   5.702  0.00  0.00    +0.381 N 
ATOM     10  C   UNL     1       0.666  -0.002   6.932  0.00  0.00    -0.100 C 
ATOM     11  H   UNL     1       0.804  -0.160   4.902  0.00  0.00    -0.086 HD
ATOM     12  H   UNL     1       0.304  -1.544   5.644  0.00  0.00    -0.086 HD
ENDBRANCH   8   9
BRANCH   1  13
ATOM     13  O   UNL     1       2.000  -1.528   3.345  0.00  0.00    -0.487 OA
BRANCH  13  19
ATOM     14  C   UNL     1       0.980  -1.839   1.213  0.00  0.00    +0.162 A 
ATOM     15  C   UNL     1       0.623  -2.681   0.173  0.00  0.00    +0.049 A 
ATOM     16  C   UNL     1       0.920  -4.030   0.242  0.00  0.00    +0.004 A 
ATOM     17  C   UNL     1       1.573  -4.540   1.348  0.00  0.00    +0.004 A 
ATOM     18  C   UNL     1       1.932  -3.705   2.390  0.00  0.00    +0.049 A 
ATOM     19  C   UNL     1       1.643  -2.352   2.324  0.00  0.00    +0.162 A 
BRANCH  14  20
ATOM     20  O   UNL     1       0.689  -0.512   1.146  0.00  0.00    -0.489 OA
BRANCH  20  22
ATOM     21  C   UNL     1      -0.233   1.452   0.081  0.00  0.00    +0.048 C 
ATOM     22  C   UNL     1       0.007  -0.056  -0.024  0.00  0.00    +0.226 C 
ENDBRANCH  20  22
ENDBRANCH  14  20
ENDBRANCH  13  19
ENDBRANCH   1  13
TORSDOF 5
