REMARK  Name = ZINC31935302
REMARK  9 active torsions:
REMARK  status: ('A' for Active; 'I' for Inactive)
REMARK    1  A    between atoms: C_1  and  C_2
REMARK    2  A    between atoms: C_2  and  O_3
REMARK    3  A    between atoms: O_3  and  C_4
REMARK    4  A    between atoms: C_9  and  C_10
REMARK    5  A    between atoms: C_11  and  C_20
REMARK    6  A    between atoms: C_14  and  C_19
REMARK    7  A    between atoms: C_20  and  C_22
REMARK    8  A    between atoms: C_20  and  C_23
REMARK    9  A    between atoms: C_23  and  N_24
REMARK                            x       y       z     vdW  Elec       q    Type
REMARK                         _______ _______ _______ _____ _____    ______ ____
ROOT
ATOM      1  C   UNL     1      -1.031   1.414   4.193  0.00  0.00    +0.097 A 
ATOM      2  C   UNL     1      -1.985   2.283   4.630  0.00  0.00    +0.052 A 
ATOM      3  N   UNL     1      -2.463   2.941   3.531  0.00  0.00    -0.303 N 
ATOM      4  C   UNL     1      -3.415   3.908   3.380  0.00  0.00    +0.096 A 
ATOM      5  C   UNL     1      -3.706   4.400   2.157  0.00  0.00    -0.034 A 
ATOM      6  C   UNL     1      -3.031   3.923   1.022  0.00  0.00    +0.008 A 
ATOM      7  C   UNL     1      -2.080   2.959   1.158  0.00  0.00    +0.047 A 
ATOM      8  C   UNL     1      -1.787   2.455   2.442  0.00  0.00    +0.138 A 
ATOM      9  N   UNL     1      -0.925   1.540   2.861  0.00  0.00    -0.227 NA
ATOM     10  C   UNL     1      -4.760   5.467   2.010  0.00  0.00    +0.045 C 
ENDROOT
BRANCH   1  16
ATOM     11  C   UNL     1       0.800  -0.259   4.488  0.00  0.00    +0.130 A 
ATOM     12  C   UNL     1       1.530  -1.122   5.290  0.00  0.00    +0.046 A 
ATOM     13  C   UNL     1       1.236  -1.233   6.635  0.00  0.00    +0.004 A 
ATOM     14  C   UNL     1       0.206  -0.492   7.188  0.00  0.00    +0.001 A 
ATOM     15  C   UNL     1      -0.532   0.368   6.401  0.00  0.00    +0.014 A 
ATOM     16  C   UNL     1      -0.241   0.491   5.044  0.00  0.00    +0.044 A 
BRANCH  11  17
ATOM     17  O   UNL     1       1.091  -0.146   3.166  0.00  0.00    -0.492 OA
BRANCH  17  19
ATOM     18  C   UNL     1       2.345  -0.682   1.171  0.00  0.00    +0.048 C 
ATOM     19  C   UNL     1       2.167  -0.943   2.668  0.00  0.00    +0.226 C 
ENDBRANCH  17  19
ENDBRANCH  11  17
ENDBRANCH   1  16
BRANCH   2  20
ATOM     20  C   UNL     1      -2.428   2.483   6.057  0.00  0.00    +0.018 C 
ATOM     21  C   UNL     1      -1.203   2.713   6.944  0.00  0.00    +0.012 C 
BRANCH  20  22
ATOM     22  C   UNL     1      -3.179   1.240   6.537  0.00  0.00    -0.077 C 
BRANCH  22  23
ATOM     23  N   UNL     1      -4.461   1.137   5.827  0.00  0.00    +0.379 N 
ATOM     24  H   UNL     1      -5.001   0.243   6.172  0.00  0.00    -0.090 HD
ATOM     25  H   UNL     1      -4.276   1.060   4.745  0.00  0.00    -0.090 HD
ATOM     26  H   UNL     1      -5.066   2.033   6.032  0.00  0.00    -0.090 HD
ENDBRANCH  22  23
ENDBRANCH  20  22
ENDBRANCH   2  20
TORSDOF 6
