REMARK  Name = ZINC38609856
REMARK  7 active torsions:
REMARK  status: ('A' for Active; 'I' for Inactive)
REMARK    1  A    between atoms: C_1  and  C_2
REMARK    2  A    between atoms: C_5  and  C_8
REMARK    3  A    between atoms: C_8  and  N_9
REMARK    4  A    between atoms: C_10  and  C_27
REMARK    5  A    between atoms: C_13  and  C_20
REMARK    6  A    between atoms: C_25  and  O_26
REMARK    7  A    between atoms: C_30  and  O_33
REMARK                            x       y       z     vdW  Elec       q    Type
REMARK                         _______ _______ _______ _____ _____    ______ ____
ROOT
ATOM      1  N   UNL     1       1.242  -4.526  -0.255  0.00  0.00    -0.281 N 
ATOM      2  C   UNL     1       2.340  -4.722  -1.211  0.00  0.00    +0.142 C 
ATOM      3  C   UNL     1       3.536  -5.126  -0.394  0.00  0.00    +0.035 A 
ATOM      4  C   UNL     1       4.887  -5.489  -0.381  0.00  0.00    +0.102 A 
ATOM      5  N   UNL     1       5.225  -5.709   0.875  0.00  0.00    -0.173 NA
ATOM      6  N   UNL     1       4.221  -5.520   1.655  0.00  0.00    -0.272 N 
ATOM      7  H   UNL     1       4.239  -5.623   2.620  0.00  0.00    +0.189 HD
ATOM      8  C   UNL     1       3.127  -5.152   0.925  0.00  0.00    +0.126 A 
ATOM      9  C   UNL     1       1.710  -4.773   0.982  0.00  0.00    +0.266 C 
ATOM     10  O   UNL     1       1.053  -4.695   2.002  0.00  0.00    -0.268 OA
ENDROOT
BRANCH   4  11
ATOM     11  C   UNL     1       5.777  -5.607  -1.563  0.00  0.00    +0.044 A 
ATOM     12  C   UNL     1       5.340  -6.279  -2.702  0.00  0.00    +0.014 A 
ATOM     13  C   UNL     1       6.171  -6.386  -3.800  0.00  0.00    +0.001 A 
ATOM     14  C   UNL     1       7.437  -5.827  -3.772  0.00  0.00    +0.004 A 
ATOM     15  C   UNL     1       7.879  -5.159  -2.647  0.00  0.00    +0.046 A 
ATOM     16  C   UNL     1       7.053  -5.039  -1.540  0.00  0.00    +0.126 A 
BRANCH  16  17
ATOM     17  O   UNL     1       7.486  -4.378  -0.435  0.00  0.00    -0.506 OA
ATOM     18  H   UNL     1       7.940  -4.940   0.207  0.00  0.00    +0.292 HD
ENDBRANCH  16  17
ENDBRANCH   4  11
BRANCH   2  19
ATOM     19  C   UNL     1       2.622  -3.437  -1.946  0.00  0.00    -0.022 A 
ATOM     20  C   UNL     1       2.804  -2.263  -1.240  0.00  0.00    +0.009 A 
ATOM     21  C   UNL     1       3.063  -1.084  -1.912  0.00  0.00    +0.046 A 
ATOM     22  C   UNL     1       3.140  -1.079  -3.297  0.00  0.00    +0.117 A 
ATOM     23  C   UNL     1       2.958  -2.259  -4.004  0.00  0.00    +0.046 A 
ATOM     24  C   UNL     1       2.704  -3.436  -3.327  0.00  0.00    +0.009 A 
BRANCH  22  25
ATOM     25  O   UNL     1       3.394   0.080  -3.961  0.00  0.00    -0.507 OA
ATOM     26  H   UNL     1       4.335   0.252  -4.105  0.00  0.00    +0.292 HD
ENDBRANCH  22  25
ENDBRANCH   2  19
BRANCH   1  27
ATOM     27  C   UNL     1      -0.126  -4.124  -0.590  0.00  0.00    +0.144 C 
BRANCH  27  32
ATOM     28  C   UNL     1      -0.517   1.641  -0.517  0.00  0.00    +0.044 C 
ATOM     29  C   UNL     1      -0.415   0.138  -0.536  0.00  0.00    -0.050 A 
ATOM     30  C   UNL     1      -0.073  -0.517  -1.704  0.00  0.00    +0.003 A 
ATOM     31  C   UNL     1       0.020  -1.897  -1.722  0.00  0.00    +0.005 A 
ATOM     32  C   UNL     1      -0.228  -2.620  -0.571  0.00  0.00    -0.030 A 
ATOM     33  C   UNL     1      -0.568  -1.966   0.598  0.00  0.00    +0.005 A 
ATOM     34  C   UNL     1      -0.658  -0.586   0.616  0.00  0.00    +0.003 A 
ENDBRANCH  27  32
ENDBRANCH   1  27
TORSDOF 6
