REMARK  Name = ZINC55135435
REMARK  10 active torsions:
REMARK  status: ('A' for Active; 'I' for Inactive)
REMARK    1  A    between atoms: C_1  and  C_2
REMARK    2  A    between atoms: C_2  and  C_3
REMARK    3  A    between atoms: C_3  and  C_5
REMARK    4  A    between atoms: C_3  and  N_6
REMARK    5  A    between atoms: C_7  and  C_9
REMARK    6  A    between atoms: C_9  and  C_10
REMARK    7  A    between atoms: C_10  and  N_11
REMARK    8  A    between atoms: C_12  and  C_14
REMARK    9  A    between atoms: C_19  and  N_24
REMARK   10  A    between atoms: C_21  and  C_23
REMARK                            x       y       z     vdW  Elec       q    Type
REMARK                         _______ _______ _______ _____ _____    ______ ____
ROOT
ATOM      1  N   UNL     1       6.232   0.963  -3.680  0.00  0.00    -0.315 N 
ATOM      2  C   UNL     1       6.931   1.105  -4.823  0.00  0.00    +0.216 C 
ATOM      3  O   UNL     1       6.396   0.897  -5.891  0.00  0.00    -0.276 OA
ATOM      4  H   UNL     1       6.660   1.129  -2.826  0.00  0.00    +0.149 HD
ENDROOT
BRANCH   2   5
ATOM      5  C   UNL     1       8.378   1.523  -4.775  0.00  0.00    +0.076 C 
ATOM      6  C   UNL     1       8.491   2.892  -4.099  0.00  0.00    +0.013 C 
ATOM      7  C   UNL     1       9.960   3.316  -4.050  0.00  0.00    -0.001 C 
ATOM      8  C   UNL     1      10.514   3.403  -5.473  0.00  0.00    -0.016 C 
ATOM      9  C   UNL     1      10.401   2.035  -6.149  0.00  0.00    -0.072 C 
ATOM     10  C   UNL     1       8.932   1.610  -6.198  0.00  0.00    -0.017 C 
ATOM     11  C   UNL     1       8.130   2.640  -6.996  0.00  0.00    +0.006 C 
BRANCH   9  12
ATOM     12  N   UNL     1      10.933   2.118  -7.515  0.00  0.00    +0.380 N 
ATOM     13  H   UNL     1      11.902   2.398  -7.483  0.00  0.00    -0.090 HD
ATOM     14  H   UNL     1      10.859   1.216  -7.961  0.00  0.00    -0.090 HD
ATOM     15  H   UNL     1      10.404   2.797  -8.041  0.00  0.00    -0.090 HD
ENDBRANCH   9  12
ENDBRANCH   2   5
BRANCH   1  16
ATOM     16  C   UNL     1       4.825   0.556  -3.728  0.00  0.00    +0.113 C 
BRANCH  16  17
ATOM     17  C   UNL     1       4.271   0.470  -2.304  0.00  0.00    +0.114 C 
BRANCH  17  19
ATOM     18  N   UNL     1       2.125  -0.091  -1.209  0.00  0.00    -0.313 N 
ATOM     19  C   UNL     1       2.824   0.051  -2.353  0.00  0.00    +0.215 C 
ATOM     20  O   UNL     1       2.289  -0.157  -3.421  0.00  0.00    -0.276 OA
ATOM     21  H   UNL     1       2.553   0.075  -0.355  0.00  0.00    +0.149 HD
BRANCH  18  22
ATOM     22  C   UNL     1       0.718  -0.497  -1.257  0.00  0.00    +0.070 C 
ATOM     23  C   UNL     1       0.630  -2.023  -1.329  0.00  0.00    +0.028 C 
BRANCH  22  25
ATOM     24  C   UNL     1      -0.019   1.526   0.010  0.00  0.00    +0.005 C 
ATOM     25  C   UNL     1       0.002  -0.004   0.002  0.00  0.00    +0.018 C 
ENDBRANCH  22  25
ENDBRANCH  18  22
ENDBRANCH  17  19
ENDBRANCH  16  17
ENDBRANCH   1  16
TORSDOF 7
