REMARK  Name = ZINC08917732
REMARK  1 active torsions:
REMARK  status: ('A' for Active; 'I' for Inactive)
REMARK    1  A    between atoms: C_6  and  N_7
REMARK                            x       y       z     vdW  Elec       q    Type
REMARK                         _______ _______ _______ _____ _____    ______ ____
ROOT
ATOM      1  N   UNL     1       3.892   4.374   0.528  0.00  0.00    -0.210 N 
ATOM      2  C   UNL     1       3.196   5.479   0.824  0.00  0.00    +0.228 C 
ATOM      3  O   UNL     1       1.987   5.557   0.857  0.00  0.00    -0.275 OA
ATOM      4  C   UNL     1       4.154   6.612   1.115  0.00  0.00    +0.074 C 
ATOM      5  C   UNL     1       4.043   7.667  -0.002  0.00  0.00    -0.054 C 
ATOM      6  C   UNL     1       2.659   7.558  -0.667  0.00  0.00    -0.016 C 
ATOM      7  C   UNL     1       2.840   6.570  -1.836  0.00  0.00    -0.020 C 
ATOM      8  C   UNL     1       4.318   6.136  -1.771  0.00  0.00    -0.076 C 
ATOM      9  C   UNL     1       6.151   6.683  -0.291  0.00  0.00    +0.053 C 
ATOM     10  C   UNL     1       5.551   5.960   0.920  0.00  0.00    +0.089 C 
ATOM     11  C   UNL     1       5.220   4.532   0.550  0.00  0.00    +0.229 C 
ATOM     12  O   UNL     1       6.033   3.665   0.310  0.00  0.00    -0.275 OA
ATOM     13  C   UNL     1       6.980   5.752  -1.131  0.00  0.00    -0.026 A 
ATOM     14  C   UNL     1       6.702   4.583  -1.803  0.00  0.00    +0.019 A 
ATOM     15  C   UNL     1       7.702   3.936  -2.509  0.00  0.00    +0.018 A 
ATOM     16  C   UNL     1       8.980   4.468  -2.536  0.00  0.00    +0.017 A 
ATOM     17  C   UNL     1       9.261   5.639  -1.864  0.00  0.00    +0.024 A 
ATOM     18  C   UNL     1       8.260   6.296  -1.151  0.00  0.00    +0.036 A 
ATOM     19  N   UNL     1       8.297   7.474  -0.403  0.00  0.00    -0.286 N 
ATOM     20  C   UNL     1       7.098   7.771   0.135  0.00  0.00    +0.212 C 
ATOM     21  O   UNL     1       6.835   8.730   0.830  0.00  0.00    -0.277 OA
ATOM     22 BR   UNL     1       7.324   2.330  -3.432  0.00  0.00    -0.050 Br
ATOM     23  H   UNL     1       9.093   8.016  -0.284  0.00  0.00    +0.155 HD
ATOM     24  N   UNL     1       4.981   7.209  -1.001  0.00  0.00    +0.395 N 
ATOM     25  H   UNL     1       5.257   7.976  -1.625  0.00  0.00    -0.079 HD
ENDROOT
BRANCH   1  31
ATOM     26  C   UNL     1       2.577   2.457   1.190  0.00  0.00    +0.028 A 
ATOM     27  C   UNL     1       1.971   1.254   0.882  0.00  0.00    +0.051 A 
ATOM     28  C   UNL     1       2.061   0.738  -0.400  0.00  0.00    +0.166 A 
ATOM     29  C   UNL     1       2.764   1.434  -1.382  0.00  0.00    +0.168 A 
ATOM     30  C   UNL     1       3.370   2.639  -1.073  0.00  0.00    +0.073 A 
ATOM     31  C   UNL     1       3.277   3.152   0.214  0.00  0.00    +0.048 A 
ATOM     32  O   UNL     1       2.705   0.724  -2.546  0.00  0.00    -0.453 OA
ATOM     33  C   UNL     1       1.619  -0.206  -2.376  0.00  0.00    +0.466 C 
ATOM     34  O   UNL     1       1.562  -0.408  -0.951  0.00  0.00    -0.453 OA
ENDBRANCH   1  31
TORSDOF 1
