REMARK  Name = ZINC15946379
REMARK  6 active torsions:
REMARK  status: ('A' for Active; 'I' for Inactive)
REMARK    1  A    between atoms: C_1  and  C_2
REMARK    2  A    between atoms: C_2  and  C_3
REMARK    3  A    between atoms: C_2  and  N_4
REMARK    4  A    between atoms: C_12  and  O_30
REMARK    5  A    between atoms: C_14  and  C_17
REMARK    6  A    between atoms: C_20  and  C_22
REMARK                            x       y       z     vdW  Elec       q    Type
REMARK                         _______ _______ _______ _____ _____    ______ ____
ROOT
ATOM      1  N   UNL     1      -1.442  -0.249   0.106  0.00  0.00    +0.384 N 
ATOM      2  C   UNL     1      -1.680  -1.680   0.337  0.00  0.00    -0.073 C 
ATOM      3  C   UNL     1      -3.135  -1.914   0.758  0.00  0.00    +0.018 C 
ATOM      4  C   UNL     1      -4.034  -1.237  -0.268  0.00  0.00    -0.027 A 
ATOM      5  C   UNL     1      -3.522  -0.305  -1.107  0.00  0.00    -0.021 A 
ATOM      6  S   UNL     1      -4.892   0.201  -2.107  0.00  0.00    -0.080 S 
ATOM      7  C   UNL     1      -6.077  -0.757  -1.454  0.00  0.00    +0.080 A 
ATOM      8  C   UNL     1      -5.446  -1.502  -0.449  0.00  0.00    +0.067 A 
ATOM      9  C   UNL     1      -6.279  -2.473   0.307  0.00  0.00    +0.220 C 
ATOM     10  N   UNL     1      -7.575  -2.398   0.169  0.00  0.00    -0.220 NA
ATOM     11  C   UNL     1      -8.264  -1.388  -0.625  0.00  0.00    +0.260 C 
ATOM     12  N   UNL     1      -7.419  -0.895  -1.728  0.00  0.00    -0.311 N 
ATOM     13  C   UNL     1      -2.103   0.167  -1.145  0.00  0.00    -0.035 C 
ATOM     14  H   UNL     1      -7.788  -0.679  -2.599  0.00  0.00    +0.149 HD
ATOM     15  H   UNL     1      -1.819   0.281   0.878  0.00  0.00    -0.081 HD
ENDROOT
BRANCH  11  16
ATOM     16  C   UNL     1      -8.633  -0.230   0.265  0.00  0.00    +0.148 A 
ATOM     17  C   UNL     1      -8.907  -0.308   1.582  0.00  0.00    +0.049 A 
ATOM     18  C   UNL     1      -9.200   0.999   2.021  0.00  0.00    +0.050 A 
ATOM     19  C   UNL     1      -9.089   1.810   0.936  0.00  0.00    +0.135 A 
ATOM     20  O   UNL     1      -8.740   1.052  -0.121  0.00  0.00    -0.456 OA
BRANCH  19  21
ATOM     21  C   UNL     1      -9.308   3.272   0.920  0.00  0.00    +0.019 A 
ATOM     22  C   UNL     1      -9.659   3.941   2.094  0.00  0.00    +0.013 A 
ATOM     23  C   UNL     1      -9.862   5.305   2.073  0.00  0.00    +0.022 A 
ATOM     24  C   UNL     1      -9.719   6.011   0.891  0.00  0.00    +0.059 A 
ATOM     25  C   UNL     1      -9.372   5.354  -0.278  0.00  0.00    +0.060 A 
ATOM     26  C   UNL     1      -9.160   3.989  -0.268  0.00  0.00    +0.033 A 
ATOM     27 CL   UNL     1      -9.196   6.247  -1.756  0.00  0.00    -0.082 Cl
ATOM     28 CL   UNL     1      -9.978   7.728   0.873  0.00  0.00    -0.082 Cl
ENDBRANCH  19  21
ENDBRANCH  11  16
BRANCH   1  30
ATOM     29  C   UNL     1       0.246   1.468  -0.337  0.00  0.00    -0.014 C 
ATOM     30  C   UNL     1       0.002  -0.004   0.002  0.00  0.00    -0.074 C 
ATOM     31  C   UNL     1       0.674  -0.339   1.335  0.00  0.00    -0.014 C 
ENDBRANCH   1  30
BRANCH   9  32
ATOM     32  O   UNL     1      -5.713  -3.403   1.111  0.00  0.00    -0.492 OA
ATOM     33  H   UNL     1      -6.351  -3.981   1.553  0.00  0.00    +0.294 HD
ENDBRANCH   9  32
TORSDOF 4
