REMARK  Name = ZINC64085811
REMARK  7 active torsions:
REMARK  status: ('A' for Active; 'I' for Inactive)
REMARK    1  A    between atoms: C_1  and  C_2
REMARK    2  A    between atoms: C_4  and  C_12
REMARK    3  A    between atoms: C_18  and  C_20
REMARK    4  A    between atoms: C_20  and  C_21
REMARK    5  A    between atoms: C_21  and  C_22
REMARK    6  A    between atoms: C_22  and  C_23
REMARK    7  A    between atoms: C_26  and  C_29
REMARK                            x       y       z     vdW  Elec       q    Type
REMARK                         _______ _______ _______ _____ _____    ______ ____
ROOT
ATOM      1  C   UNL     1      -2.428  -0.332  -0.918  0.00  0.00    +0.079 A 
ATOM      2  C   UNL     1      -3.655  -0.973  -0.806  0.00  0.00    +0.076 A 
ATOM      3  S   UNL     1      -4.489  -0.400  -2.151  0.00  0.00    -0.060 S 
ATOM      4  C   UNL     1      -3.216   0.656  -2.818  0.00  0.00    +0.165 A 
ATOM      5  N   UNL     1      -2.238   0.496  -1.953  0.00  0.00    -0.225 NA
ATOM      6  N   UNL     1      -3.251   1.448  -3.956  0.00  0.00    -0.265 N 
ATOM      7  C   UNL     1      -4.361   1.483  -4.720  0.00  0.00    +0.219 C 
ATOM      8  O   UNL     1      -5.330   0.822  -4.412  0.00  0.00    -0.275 OA
ATOM      9  H   UNL     1      -2.476   1.978  -4.202  0.00  0.00    +0.157 HD
ENDROOT
BRANCH   1  12
ATOM     10  C   UNL     1      -1.552  -2.958   0.649  0.00  0.00    +0.035 C 
ATOM     11  C   UNL     1      -1.424  -1.530   1.184  0.00  0.00    +0.109 C 
ATOM     12  C   UNL     1      -1.411  -0.544   0.036  0.00  0.00    +0.009 C 
ATOM     13  C   UNL     1      -0.185   0.110   0.119  0.00  0.00    +0.005 A 
ATOM     14  C   UNL     1       0.408   1.127  -0.663  0.00  0.00    +0.010 A 
ATOM     15  C   UNL     1       1.645   1.586  -0.344  0.00  0.00    +0.001 A 
ATOM     16  C   UNL     1       2.356   1.077   0.745  0.00  0.00    +0.002 A 
ATOM     17  C   UNL     1       1.849   0.102   1.538  0.00  0.00    +0.026 A 
ATOM     18  C   UNL     1       0.561  -0.429   1.268  0.00  0.00    +0.043 A 
ATOM     19  N   UNL     1      -0.144  -1.364   1.878  0.00  0.00    -0.377 N 
ATOM     20  H   UNL     1       0.140  -1.862   2.660  0.00  0.00    +0.160 HD
ENDBRANCH   1  12
BRANCH   7  21
ATOM     21  C   UNL     1      -4.398   2.344  -5.956  0.00  0.00    +0.096 C 
BRANCH  21  22
ATOM     22  C   UNL     1      -5.762   2.202  -6.635  0.00  0.00    +0.014 C 
BRANCH  22  23
ATOM     23  C   UNL     1      -5.800   3.076  -7.890  0.00  0.00    +0.057 C 
BRANCH  23  24
ATOM     24  C   UNL     1      -7.164   2.935  -8.569  0.00  0.00    +0.243 C 
ATOM     25  N   UNL     1      -7.251   3.832  -9.728  0.00  0.00    -0.347 N 
ATOM     26  C   UNL     1      -7.432   3.124 -10.788  0.00  0.00    +0.100 C 
ATOM     27  N   UNL     1      -7.484   1.790 -10.502  0.00  0.00    -0.252 N 
ATOM     28  O   UNL     1      -7.320   1.610  -9.102  0.00  0.00    -0.248 OA
ATOM     29  C   UNL     1      -7.570   3.697 -12.174  0.00  0.00    +0.085 C 
ATOM     30  H   UNL     1      -7.613   1.080 -11.150  0.00  0.00    +0.195 HD
ATOM     31  H   UNL     1      -7.184   4.799  -9.699  0.00  0.00    +0.163 HD
ENDBRANCH  23  24
ENDBRANCH  22  23
ENDBRANCH  21  22
ENDBRANCH   7  21
TORSDOF 5
