REMARK  Name = ZINC37822116
REMARK  7 active torsions:
REMARK  status: ('A' for Active; 'I' for Inactive)
REMARK    1  A    between atoms: C_1  and  S_2
REMARK    2  A    between atoms: S_2  and  N_5
REMARK    3  A    between atoms: N_5  and  C_6
REMARK    4  A    between atoms: C_6  and  C_7
REMARK    5  A    between atoms: C_7  and  C_8
REMARK    6  A    between atoms: C_15  and  C_17
REMARK    7  A    between atoms: C_20  and  O_24
REMARK                            x       y       z     vdW  Elec       q    Type
REMARK                         _______ _______ _______ _____ _____    ______ ____
ROOT
ATOM      1  C   UNL     1       4.282  -0.589  -2.969  0.00  0.00    +0.077 C 
ATOM      2  C   UNL     1       4.714  -1.279  -4.266  0.00  0.00    +0.022 C 
ATOM      3  C   UNL     1       6.229  -1.144  -4.431  0.00  0.00    +0.003 C 
ATOM      4  C   UNL     1       6.935  -1.831  -3.260  0.00  0.00    +0.019 C 
ATOM      5  C   UNL     1       6.528  -1.147  -1.951  0.00  0.00    +0.108 C 
ATOM      6  N   UNL     1       5.061  -1.141  -1.853  0.00  0.00    -0.300 N 
ATOM      7  C   UNL     1       4.444  -1.637  -0.763  0.00  0.00    +0.202 C 
ATOM      8  O   UNL     1       3.234  -1.720  -0.736  0.00  0.00    -0.277 OA
ENDROOT
BRANCH   7   9
ATOM      9  C   UNL     1       5.256  -2.089   0.424  0.00  0.00    +0.019 C 
ATOM     10  C   UNL     1       5.821  -3.501   0.166  0.00  0.00    +0.023 C 
ATOM     11  C   UNL     1       5.704  -4.184   1.554  0.00  0.00    +0.097 C 
ATOM     12  C   UNL     1       4.385  -3.575   2.091  0.00  0.00    -0.050 C 
ATOM     13  N   UNL     1       4.396  -2.171   1.619  0.00  0.00    +0.388 N 
ATOM     14  H   UNL     1       4.761  -1.569   2.342  0.00  0.00    -0.085 HD
ATOM     15  H   UNL     1       3.458  -1.884   1.382  0.00  0.00    -0.085 HD
BRANCH  11  16
ATOM     16  O   UNL     1       5.597  -5.602   1.420  0.00  0.00    -0.394 OA
ATOM     17  H   UNL     1       5.521  -6.072   2.261  0.00  0.00    +0.210 HD
ENDBRANCH  11  16
ENDBRANCH   7   9
BRANCH   1  18
ATOM     18  C   UNL     1       2.792  -0.838  -2.727  0.00  0.00    +0.039 C 
BRANCH  18  19
ATOM     19  C   UNL     1       1.982  -0.261  -3.890  0.00  0.00    +0.107 C 
BRANCH  19  20
ATOM     20  N   UNL     1       0.568  -0.602  -3.717  0.00  0.00    -0.195 NA
ATOM     21  H   UNL     1       0.309  -1.290  -3.084  0.00  0.00    +0.148 HD
BRANCH  20  23
ATOM     22  C   UNL     1      -0.261  -0.285  -6.323  0.00  0.00    +0.214 C 
ATOM     23  S   UNL     1      -0.588   0.187  -4.602  0.00  0.00    +0.027 S 
ATOM     24  O   UNL     1      -0.310   1.568  -4.412  0.00  0.00    -0.158 OA
ATOM     25  O   UNL     1      -1.821  -0.370  -4.168  0.00  0.00    -0.158 OA
ENDBRANCH  20  23
ENDBRANCH  19  20
ENDBRANCH  18  19
ENDBRANCH   1  18
TORSDOF 6
