REMARK  Name = ZINC43812181
REMARK  6 active torsions:
REMARK  status: ('A' for Active; 'I' for Inactive)
REMARK    1  A    between atoms: C_1  and  C_2
REMARK    2  A    between atoms: C_2  and  C_3
REMARK    3  A    between atoms: C_7  and  N_19
REMARK    4  A    between atoms: C_9  and  N_12
REMARK    5  A    between atoms: N_19  and  C_20
REMARK    6  A    between atoms: C_20  and  C_21
REMARK                            x       y       z     vdW  Elec       q    Type
REMARK                         _______ _______ _______ _____ _____    ______ ____
ROOT
ATOM      1  C   UNL     1       0.421  -0.510  -1.453  0.00  0.00    -0.013 C 
ATOM      2  C   UNL     1      -0.203  -0.167  -2.808  0.00  0.00    +0.002 C 
ATOM      3  C   UNL     1       0.753  -0.578  -3.929  0.00  0.00    -0.017 C 
ATOM      4  C   UNL     1       1.011  -2.084  -3.852  0.00  0.00    -0.086 C 
ATOM      5  C   UNL     1       1.635  -2.427  -2.498  0.00  0.00    -0.083 C 
ATOM      6  C   UNL     1       0.678  -2.016  -1.377  0.00  0.00    -0.013 C 
ENDROOT
BRANCH   5   7
ATOM      7  N   UNL     1       1.882  -3.873  -2.425  0.00  0.00    +0.381 N 
ATOM      8  C   UNL     1       0.589  -4.580  -2.511  0.00  0.00    -0.079 C 
ATOM      9  C   UNL     1       0.843  -5.971  -3.036  0.00  0.00    -0.019 C 
ATOM     10  C   UNL     1       0.961  -6.992  -1.889  0.00  0.00    -0.002 C 
ATOM     11  C   UNL     1       1.763  -6.427  -0.700  0.00  0.00    -0.002 C 
ATOM     12  C   UNL     1       2.969  -5.639  -1.142  0.00  0.00    -0.019 C 
ATOM     13  C   UNL     1       2.585  -4.149  -1.251  0.00  0.00    -0.079 C 
ATOM     14  H   UNL     1       2.450  -4.144  -3.213  0.00  0.00    -0.082 HD
ENDBRANCH   5   7
BRANCH   4  15
ATOM     15  N   UNL     1       1.929  -2.480  -4.929  0.00  0.00    +0.380 N 
ATOM     16  H   UNL     1       2.764  -1.915  -4.883  0.00  0.00    -0.086 HD
ATOM     17  H   UNL     1       2.175  -3.452  -4.821  0.00  0.00    -0.086 HD
BRANCH  15  18
ATOM     18  C   UNL     1       1.274  -2.280  -6.229  0.00  0.00    -0.086 C 
ATOM     19  C   UNL     1       2.231  -2.692  -7.349  0.00  0.00    -0.017 C 
ENDBRANCH  15  18
ENDBRANCH   4  15
BRANCH   1  21
ATOM     20  C   UNL     1      -0.695   1.423  -0.331  0.00  0.00    +0.004 C 
ATOM     21  C   UNL     1      -0.536  -0.098  -0.332  0.00  0.00    -0.000 C 
ENDBRANCH   1  21
TORSDOF 4
