REMARK  Name = ZINC54907434
REMARK  7 active torsions:
REMARK  status: ('A' for Active; 'I' for Inactive)
REMARK    1  A    between atoms: C_1  and  C_2
REMARK    2  A    between atoms: C_2  and  N_3
REMARK    3  A    between atoms: N_3  and  C_4
REMARK    4  A    between atoms: C_4  and  C_6
REMARK    5  A    between atoms: C_4  and  C_7
REMARK    6  A    between atoms: C_8  and  C_23
REMARK    7  A    between atoms: C_16  and  C_18
REMARK                            x       y       z     vdW  Elec       q    Type
REMARK                         _______ _______ _______ _____ _____    ______ ____
ROOT
ATOM      1  C   UNL     1      -3.142  -1.694   0.135  0.00  0.00    -0.000 A 
ATOM      2  C   UNL     1      -3.382  -2.878   0.748  0.00  0.00    +0.049 A 
ATOM      3  N   UNL     1      -4.608  -3.363   0.661  0.00  0.00    -0.230 NA
ATOM      4  C   UNL     1      -5.549  -2.716   0.005  0.00  0.00    +0.161 A 
ATOM      5  S   UNL     1      -4.755  -1.338  -0.544  0.00  0.00    -0.059 S 
ATOM      6  N   UNL     1      -6.873  -3.080  -0.182  0.00  0.00    -0.306 N 
ATOM      7  C   UNL     1      -7.849  -2.366  -1.026  0.00  0.00    +0.107 C 
ATOM      8  C   UNL     1      -8.907  -3.434  -1.399  0.00  0.00    +0.021 C 
ATOM      9  C   UNL     1      -8.992  -4.260  -0.088  0.00  0.00    +0.024 C 
ATOM     10  C   UNL     1      -7.536  -4.244   0.422  0.00  0.00    +0.078 C 
ATOM     11  C   UNL     1      -2.298  -3.611   1.496  0.00  0.00    +0.066 C 
ENDROOT
BRANCH  10  12
ATOM     12  C   UNL     1      -7.524  -4.117   1.947  0.00  0.00    +0.009 C 
ATOM     13  C   UNL     1      -8.272  -5.307   2.583  0.00  0.00    +0.005 C 
ATOM     14  C   UNL     1      -9.008  -4.688   3.797  0.00  0.00    +0.000 C 
ATOM     15  C   UNL     1      -9.456  -3.306   3.257  0.00  0.00    +0.000 C 
ATOM     16  C   UNL     1      -8.277  -2.845   2.376  0.00  0.00    +0.005 C 
ENDBRANCH  10  12
BRANCH   1  17
ATOM     17  C   UNL     1      -1.867  -0.895   0.055  0.00  0.00    -0.035 C 
ATOM     18  C   UNL     1      -1.266  -1.034  -1.345  0.00  0.00    -0.008 C 
BRANCH  17  19
ATOM     19  N   UNL     1      -2.159   0.519   0.325  0.00  0.00    +0.384 N 
ATOM     20  H   UNL     1      -2.630   0.602   1.213  0.00  0.00    -0.085 HD
ATOM     21  H   UNL     1      -2.751   0.886  -0.406  0.00  0.00    -0.085 HD
BRANCH  19  23
ATOM     22  C   UNL     1      -1.206   2.752   0.646  0.00  0.00    -0.017 C 
ATOM     23  C   UNL     1      -0.902   1.279   0.365  0.00  0.00    -0.085 C 
ENDBRANCH  19  23
ENDBRANCH  17  19
ENDBRANCH   1  17
TORSDOF 4
