REMARK  Name = ZINC58288900
REMARK  8 active torsions:
REMARK  status: ('A' for Active; 'I' for Inactive)
REMARK    1  A    between atoms: C_1  and  N_2
REMARK    2  A    between atoms: N_2  and  C_3
REMARK    3  A    between atoms: N_2  and  C_11
REMARK    4  A    between atoms: C_3  and  C_4
REMARK    5  A    between atoms: C_11  and  C_12
REMARK    6  A    between atoms: N_18  and  C_19
REMARK    7  A    between atoms: C_24  and  O_25
REMARK    8  A    between atoms: O_25  and  C_26
REMARK                            x       y       z     vdW  Elec       q    Type
REMARK                         _______ _______ _______ _____ _____    ______ ____
ROOT
ATOM      1  C   UNL     1      -0.041  -0.121   2.443  0.00  0.00    +0.120 A 
ATOM      2  N   UNL     1       0.188   1.040   3.030  0.00  0.00    -0.202 NA
ATOM      3  C   UNL     1      -0.504   1.389   4.113  0.00  0.00    +0.217 A 
ATOM      4  N   UNL     1      -1.426   0.567   4.603  0.00  0.00    -0.181 NA
ATOM      5  C   UNL     1      -1.653  -0.600   4.010  0.00  0.00    +0.224 A 
ATOM      6  N   UNL     1      -0.961  -0.939   2.925  0.00  0.00    -0.201 NA
ATOM      7  N   UNL     1      -2.610  -1.457   4.516  0.00  0.00    -0.281 N 
ATOM      8  N   UNL     1      -0.264   2.602   4.725  0.00  0.00    -0.327 N 
ATOM      9  H   UNL     1      -2.836  -2.269   4.035  0.00  0.00    +0.155 HD
ATOM     10  H   UNL     1       0.410   3.201   4.367  0.00  0.00    +0.145 HD
ATOM     11  H   UNL     1      -0.768   2.855   5.514  0.00  0.00    +0.145 HD
ENDROOT
BRANCH   7  12
ATOM     12  C   UNL     1      -3.255  -1.155   5.722  0.00  0.00    +0.076 A 
ATOM     13  C   UNL     1      -2.635  -0.336   6.655  0.00  0.00    +0.027 A 
ATOM     14  C   UNL     1      -3.274  -0.039   7.844  0.00  0.00    +0.002 A 
ATOM     15  C   UNL     1      -4.529  -0.555   8.107  0.00  0.00    +0.004 A 
ATOM     16  C   UNL     1      -5.152  -1.372   7.182  0.00  0.00    +0.047 A 
ATOM     17  C   UNL     1      -4.522  -1.670   5.985  0.00  0.00    +0.141 A 
BRANCH  17  18
ATOM     18  O   UNL     1      -5.136  -2.468   5.072  0.00  0.00    -0.493 OA
ATOM     19  C   UNL     1      -6.435  -2.961   5.409  0.00  0.00    +0.277 C 
ENDBRANCH  17  18
ENDBRANCH   7  12
BRANCH   1  20
ATOM     20  C   UNL     1       0.744  -0.512   1.218  0.00  0.00    -0.001 C 
BRANCH  20  22
ATOM     21  C   UNL     1       0.021   1.431   0.011  0.00  0.00    -0.095 C 
ATOM     22  N   UNL     1       0.045  -0.038   0.016  0.00  0.00    +0.385 N 
ATOM     23  H   UNL     1      -0.901  -0.390   0.017  0.00  0.00    -0.081 HD
BRANCH  22  24
ATOM     24  C   UNL     1       0.746  -0.521  -1.181  0.00  0.00    -0.040 C 
BRANCH  24  25
ATOM     25  C   UNL     1      -0.037  -0.139  -2.410  0.00  0.00    -0.029 A 
ATOM     26  C   UNL     1      -0.851  -1.070  -3.028  0.00  0.00    +0.004 A 
ATOM     27  C   UNL     1      -1.570  -0.721  -4.155  0.00  0.00    +0.000 A 
ATOM     28  C   UNL     1      -1.476   0.560  -4.667  0.00  0.00    +0.003 A 
ATOM     29  C   UNL     1      -0.664   1.493  -4.051  0.00  0.00    +0.038 A 
ATOM     30  C   UNL     1       0.053   1.145  -2.918  0.00  0.00    +0.125 A 
ATOM     31  F   UNL     1       0.844   2.058  -2.312  0.00  0.00    -0.205 F 
ENDBRANCH  24  25
ENDBRANCH  22  24
ENDBRANCH  20  22
ENDBRANCH   1  20
TORSDOF 6
