REMARK  Name = ZINC43342963
REMARK  8 active torsions:
REMARK  status: ('A' for Active; 'I' for Inactive)
REMARK    1  A    between atoms: C_1  and  C_2
REMARK    2  A    between atoms: C_2  and  C_3
REMARK    3  A    between atoms: C_3  and  C_5
REMARK    4  A    between atoms: C_3  and  N_23
REMARK    5  A    between atoms: C_5  and  C_7
REMARK    6  A    between atoms: C_5  and  O_13
REMARK    7  A    between atoms: O_13  and  C_14
REMARK    8  A    between atoms: C_19  and  C_20
REMARK                            x       y       z     vdW  Elec       q    Type
REMARK                         _______ _______ _______ _____ _____    ______ ____
ROOT
ATOM      1  C   UNL     1       0.674  -2.110   1.295  0.00  0.00    +0.207 C 
ENDROOT
BRANCH   1   2
ATOM      2  C   UNL     1       1.420  -2.852   2.374  0.00  0.00    +0.080 A 
ATOM      3  C   UNL     1       0.749  -3.769   3.161  0.00  0.00    +0.027 A 
ATOM      4  C   UNL     1       1.444  -4.447   4.151  0.00  0.00    +0.003 A 
ATOM      5  C   UNL     1       2.794  -4.175   4.313  0.00  0.00    +0.020 A 
ATOM      6  C   UNL     1       3.397  -3.244   3.489  0.00  0.00    +0.111 A 
ATOM      7  N   UNL     1       2.706  -2.623   2.553  0.00  0.00    -0.256 NA
ENDBRANCH   1   2
BRANCH   1   8
ATOM      8  C   UNL     1       0.857  -0.604   1.492  0.00  0.00    -0.028 C 
BRANCH   8   9
ATOM      9  N   UNL     1       2.286  -0.270   1.418  0.00  0.00    +0.383 N 
ATOM     10  H   UNL     1       2.407   0.723   1.548  0.00  0.00    -0.089 HD
ATOM     11  H   UNL     1       2.785  -0.767   2.141  0.00  0.00    -0.089 HD
ATOM     12  H   UNL     1       2.647  -0.538   0.515  0.00  0.00    -0.089 HD
ENDBRANCH   8   9
BRANCH   8  14
ATOM     13  C   UNL     1       0.179   1.654   0.664  0.00  0.00    +0.002 C 
ATOM     14  C   UNL     1       0.100   0.150   0.396  0.00  0.00    -0.016 C 
ENDBRANCH   8  14
ENDBRANCH   1   8
BRANCH   1  15
ATOM     15  O   UNL     1      -0.716  -2.434   1.367  0.00  0.00    -0.484 OA
BRANCH  15  16
ATOM     16  C   UNL     1      -1.383  -2.547   0.191  0.00  0.00    +0.133 A 
ATOM     17  C   UNL     1      -0.711  -2.382  -1.010  0.00  0.00    +0.046 A 
ATOM     18  C   UNL     1      -1.392  -2.496  -2.206  0.00  0.00    +0.004 A 
ATOM     19  C   UNL     1      -2.749  -2.775  -2.216  0.00  0.00    +0.001 A 
ATOM     20  C   UNL     1      -3.433  -2.942  -1.031  0.00  0.00    +0.017 A 
ATOM     21  C   UNL     1      -2.755  -2.835   0.186  0.00  0.00    +0.078 A 
BRANCH  21  22
ATOM     22  C   UNL     1      -3.480  -3.018   1.458  0.00  0.00    +0.245 C 
ATOM     23  O   UNL     1      -2.887  -2.918   2.515  0.00  0.00    -0.270 OA
ATOM     24  N   UNL     1      -4.799  -3.295   1.448  0.00  0.00    -0.325 N 
ATOM     25  H   UNL     1      -5.271  -3.374   0.605  0.00  0.00    +0.145 HD
ATOM     26  H   UNL     1      -5.275  -3.415   2.284  0.00  0.00    +0.145 HD
ENDBRANCH  21  22
ENDBRANCH  15  16
ENDBRANCH   1  15
TORSDOF 7
