REMARK  Name = ZINC36937374
REMARK  4 active torsions:
REMARK  status: ('A' for Active; 'I' for Inactive)
REMARK    1  A    between atoms: C_1  and  C_2
REMARK    2  A    between atoms: C_5  and  C_7
REMARK    3  A    between atoms: C_8  and  C_13
REMARK    4  A    between atoms: C_9  and  N_12
REMARK                            x       y       z     vdW  Elec       q    Type
REMARK                         _______ _______ _______ _____ _____    ______ ____
ROOT
ATOM      1  C   UNL     1       1.665  -3.224  -0.023  0.00  0.00    +0.158 A 
ATOM      2  C   UNL     1       2.963  -3.297  -0.701  0.00  0.00    +0.074 A 
ATOM      3  C   UNL     1       3.474  -4.552  -0.445  0.00  0.00    +0.224 A 
ATOM      4  O   UNL     1       2.590  -5.212   0.320  0.00  0.00    -0.339 OA
ATOM      5  N   UNL     1       1.478  -4.378   0.578  0.00  0.00    -0.072 NA
ENDROOT
BRANCH   2   6
ATOM      6  C   UNL     1       3.602  -2.229  -1.506  0.00  0.00    -0.007 A 
ATOM      7  C   UNL     1       3.010  -1.801  -2.694  0.00  0.00    +0.012 A 
ATOM      8  C   UNL     1       3.605  -0.806  -3.442  0.00  0.00    +0.050 A 
ATOM      9  C   UNL     1       4.793  -0.229  -3.017  0.00  0.00    +0.166 A 
ATOM     10  C   UNL     1       5.389  -0.653  -1.831  0.00  0.00    +0.167 A 
ATOM     11  C   UNL     1       4.793  -1.647  -1.075  0.00  0.00    +0.058 A 
ATOM     12  O   UNL     1       6.535   0.063  -1.639  0.00  0.00    -0.453 OA
ATOM     13  C   UNL     1       6.848   0.639  -2.921  0.00  0.00    +0.466 C 
ATOM     14  O   UNL     1       5.566   0.753  -3.567  0.00  0.00    -0.453 OA
ENDBRANCH   2   6
BRANCH   1  19
ATOM     15  C   UNL     1      -0.018   1.503   0.010  0.00  0.00    +0.086 C 
ATOM     16  C   UNL     1       0.002  -0.004   0.002  0.00  0.00    +0.103 A 
ATOM     17  C   UNL     1      -1.083  -0.805   0.003  0.00  0.00    +0.045 A 
ATOM     18  C   UNL     1      -0.615  -2.133  -0.007  0.00  0.00    +0.052 A 
ATOM     19  C   UNL     1       0.744  -2.070  -0.013  0.00  0.00    +0.157 A 
ATOM     20  O   UNL     1       1.103  -0.772  -0.013  0.00  0.00    -0.458 OA
ENDBRANCH   1  19
BRANCH   3  21
ATOM     21  N   UNL     1       4.682  -5.044  -0.895  0.00  0.00    -0.327 N 
ATOM     22  H   UNL     1       5.257  -4.489  -1.446  0.00  0.00    +0.145 HD
ATOM     23  H   UNL     1       4.957  -5.944  -0.661  0.00  0.00    +0.145 HD
ENDBRANCH   3  21
TORSDOF 3
