REMARK  Name = ZINC02634682
REMARK  9 active torsions:
REMARK  status: ('A' for Active; 'I' for Inactive)
REMARK    1  A    between atoms: C_1  and  O_2
REMARK    2  A    between atoms: O_2  and  C_3
REMARK    3  A    between atoms: C_6  and  N_34
REMARK    4  A    between atoms: C_8  and  N_9
REMARK    5  A    between atoms: N_9  and  S_10
REMARK    6  A    between atoms: S_10  and  C_13
REMARK    7  A    between atoms: C_16  and  C_19
REMARK    8  A    between atoms: N_21  and  N_22
REMARK    9  A    between atoms: C_23  and  C_25
REMARK                            x       y       z     vdW  Elec       q    Type
REMARK                         _______ _______ _______ _____ _____    ______ ____
ROOT
ATOM      1  C   UNL     1      11.145  -3.272   5.673  0.00  0.00    +0.109 A 
ATOM      2  C   UNL     1      10.244  -4.322   5.713  0.00  0.00    +0.029 A 
ATOM      3  C   UNL     1       8.962  -4.153   5.232  0.00  0.00    +0.015 A 
ATOM      4  C   UNL     1       8.575  -2.920   4.704  0.00  0.00    +0.038 A 
ATOM      5  C   UNL     1       9.490  -1.867   4.662  0.00  0.00    +0.015 A 
ATOM      6  C   UNL     1      10.767  -2.048   5.152  0.00  0.00    +0.029 A 
ENDROOT
BRANCH   4   7
ATOM      7  C   UNL     1       7.202  -2.732   4.187  0.00  0.00    +0.260 C 
ATOM      8  O   UNL     1       6.409  -3.653   4.220  0.00  0.00    -0.269 OA
ATOM      9  N   UNL     1       6.831  -1.541   3.678  0.00  0.00    -0.230 N 
ATOM     10  H   UNL     1       7.465  -0.806   3.651  0.00  0.00    +0.173 HD
BRANCH   9  11
ATOM     11  N   UNL     1       5.531  -1.363   3.188  0.00  0.00    -0.230 N 
ATOM     12  C   UNL     1       5.160  -0.171   2.679  0.00  0.00    +0.260 C 
ATOM     13  O   UNL     1       5.954   0.749   2.646  0.00  0.00    -0.269 OA
ATOM     14  H   UNL     1       4.898  -2.097   3.214  0.00  0.00    +0.173 HD
BRANCH  12  15
ATOM     15  C   UNL     1       3.790   0.016   2.162  0.00  0.00    +0.042 A 
ATOM     16  C   UNL     1       2.877  -1.040   2.200  0.00  0.00    +0.017 A 
ATOM     17  C   UNL     1       1.599  -0.863   1.716  0.00  0.00    +0.050 A 
ATOM     18  C   UNL     1       1.214   0.363   1.192  0.00  0.00    +0.166 A 
ATOM     19  C   UNL     1       2.121   1.422   1.151  0.00  0.00    +0.167 A 
ATOM     20  C   UNL     1       3.404   1.251   1.634  0.00  0.00    +0.062 A 
ATOM     21  O   UNL     1       1.502   2.505   0.595  0.00  0.00    -0.453 OA
ATOM     22  C   UNL     1       0.092   2.222   0.671  0.00  0.00    +0.466 C 
ATOM     23  O   UNL     1       0.030   0.784   0.660  0.00  0.00    -0.453 OA
ENDBRANCH  12  15
ENDBRANCH   9  11
ENDBRANCH   4   7
BRANCH   1  24
ATOM     24  S   UNL     1      12.780  -3.496   6.290  0.00  0.00    +0.072 S 
ATOM     25  O   UNL     1      13.262  -2.206   6.641  0.00  0.00    -0.150 OA
ATOM     26  O   UNL     1      12.719  -4.566   7.224  0.00  0.00    -0.150 OA
BRANCH  24  27
ATOM     27  N   UNL     1      13.712  -4.022   5.027  0.00  0.00    -0.213 N 
ATOM     28  H   UNL     1      14.155  -4.884   5.078  0.00  0.00    +0.174 HD
BRANCH  27  34
ATOM     29  C   UNL     1      13.957  -3.815   2.629  0.00  0.00    +0.142 A 
ATOM     30  C   UNL     1      14.099  -3.020   1.504  0.00  0.00    +0.050 A 
ATOM     31  C   UNL     1      14.156  -1.645   1.631  0.00  0.00    +0.036 A 
ATOM     32  C   UNL     1      14.066  -1.058   2.880  0.00  0.00    +0.128 A 
ATOM     33  C   UNL     1      13.919  -1.844   4.007  0.00  0.00    +0.061 A 
ATOM     34  C   UNL     1      13.861  -3.224   3.887  0.00  0.00    +0.092 A 
BRANCH  32  35
ATOM     35  N   UNL     1      14.128   0.415   3.009  0.00  0.00    +0.056 N 
ATOM     36  O   UNL     1      14.049   0.934   4.109  0.00  0.00    -0.126 OA
ATOM     37  O   UNL     1      14.258   1.109   2.017  0.00  0.00    -0.126 OA
ENDBRANCH  32  35
BRANCH  29  39
ATOM     38  C   UNL     1      14.011  -5.704   1.185  0.00  0.00    +0.277 C 
ATOM     39  O   UNL     1      13.906  -5.169   2.506  0.00  0.00    -0.493 OA
ENDBRANCH  29  39
ENDBRANCH  27  34
ENDBRANCH  24  27
ENDBRANCH   1  24
TORSDOF 8
