REMARK  Name = ZINC07442921
REMARK  6 active torsions:
REMARK  status: ('A' for Active; 'I' for Inactive)
REMARK    1  A    between atoms: C_1  and  C_2
REMARK    2  A    between atoms: C_5  and  S_9
REMARK    3  A    between atoms: C_6  and  C_8
REMARK    4  A    between atoms: S_9  and  N_12
REMARK    5  A    between atoms: N_12  and  C_13
REMARK    6  A    between atoms: C_16  and  N_20
REMARK                            x       y       z     vdW  Elec       q    Type
REMARK                         _______ _______ _______ _____ _____    ______ ____
ROOT
ATOM      1  N   UNL     1       1.442  -5.003   0.616  0.00  0.00    -0.216 N 
ATOM      2  H   UNL     1       2.083  -5.476   0.062  0.00  0.00    +0.174 HD
ENDROOT
BRANCH   1   3
ATOM      3  C   UNL     1       1.725  -4.767   1.967  0.00  0.00    +0.051 A 
ATOM      4  C   UNL     1       1.503  -3.510   2.514  0.00  0.00    +0.046 A 
ATOM      5  C   UNL     1       1.782  -3.277   3.847  0.00  0.00    +0.065 A 
ATOM      6  C   UNL     1       2.284  -4.300   4.641  0.00  0.00    +0.062 A 
ATOM      7  C   UNL     1       2.506  -5.558   4.094  0.00  0.00    +0.065 A 
ATOM      8  C   UNL     1       2.222  -5.792   2.761  0.00  0.00    +0.046 A 
ATOM      9 CL   UNL     1       3.134  -6.837   5.085  0.00  0.00    -0.082 Cl
ATOM     10 CL   UNL     1       1.504  -1.705   4.530  0.00  0.00    -0.082 Cl
BRANCH   6  11
ATOM     11  N   UNL     1       2.567  -4.064   5.993  0.00  0.00    -0.356 N 
ATOM     12  H   UNL     1       2.413  -3.186   6.374  0.00  0.00    +0.142 HD
ATOM     13  H   UNL     1       2.918  -4.779   6.547  0.00  0.00    +0.142 HD
ENDBRANCH   6  11
ENDBRANCH   1   3
BRANCH   1  14
ATOM     14  S   UNL     1       0.015  -4.473  -0.036  0.00  0.00    +0.073 S 
ATOM     15  O   UNL     1      -1.011  -4.855   0.870  0.00  0.00    -0.150 OA
ATOM     16  O   UNL     1       0.017  -4.876  -1.398  0.00  0.00    -0.150 OA
BRANCH  14  21
ATOM     17  C   UNL     1       0.177   1.558  -0.016  0.00  0.00    +0.044 C 
ATOM     18  C   UNL     1       0.136   0.052  -0.021  0.00  0.00    -0.050 A 
ATOM     19  C   UNL     1      -0.804  -0.617   0.741  0.00  0.00    +0.005 A 
ATOM     20  C   UNL     1      -0.841  -1.999   0.737  0.00  0.00    +0.029 A 
ATOM     21  C   UNL     1       0.062  -2.712  -0.031  0.00  0.00    +0.111 A 
ATOM     22  C   UNL     1       1.001  -2.043  -0.793  0.00  0.00    -0.024 A 
ATOM     23  C   UNL     1       1.035  -0.661  -0.792  0.00  0.00    +0.008 A 
ATOM     24  C   UNL     1       1.985  -2.821  -1.629  0.00  0.00    +0.046 C 
ENDBRANCH  14  21
ENDBRANCH   1  14
TORSDOF 4
