REMARK  Name = ZINC49799981
REMARK  7 active torsions:
REMARK  status: ('A' for Active; 'I' for Inactive)
REMARK    1  A    between atoms: C_1  and  C_2
REMARK    2  A    between atoms: C_7  and  N_12
REMARK    3  A    between atoms: C_9  and  C_11
REMARK    4  A    between atoms: N_12  and  C_13
REMARK    5  A    between atoms: C_13  and  C_14
REMARK    6  A    between atoms: C_14  and  C_15
REMARK    7  A    between atoms: N_21  and  C_22
REMARK                            x       y       z     vdW  Elec       q    Type
REMARK                         _______ _______ _______ _____ _____    ______ ____
ROOT
ATOM      1  N   UNL     1       0.442  -0.615   3.722  0.00  0.00    +0.381 N 
ATOM      2  H   UNL     1       0.444  -1.621   3.806  0.00  0.00    -0.086 HD
ATOM      3  H   UNL     1       1.385  -0.288   3.578  0.00  0.00    -0.086 HD
ENDROOT
BRANCH   1   9
ATOM      4  C   UNL     1      -0.736   1.201   0.042  0.00  0.00    +0.008 C 
ATOM      5  C   UNL     1      -0.631  -0.324   0.095  0.00  0.00    -0.013 C 
ATOM      6  C   UNL     1      -2.029  -0.926   0.254  0.00  0.00    +0.003 C 
ATOM      7  C   UNL     1      -2.661  -0.413   1.549  0.00  0.00    -0.001 C 
ATOM      8  C   UNL     1      -1.791  -0.823   2.739  0.00  0.00    -0.015 C 
ATOM      9  C   UNL     1      -0.393  -0.221   2.580  0.00  0.00    -0.069 C 
ATOM     10  C   UNL     1       0.239  -0.734   1.285  0.00  0.00    -0.025 C 
ATOM     11  C   UNL     1       1.636  -0.132   1.126  0.00  0.00    +0.006 C 
ENDBRANCH   1   9
BRANCH   1  12
ATOM     12  C   UNL     1      -0.099  -0.022   4.952  0.00  0.00    -0.084 C 
BRANCH  12  13
ATOM     13  C   UNL     1       0.771  -0.432   6.142  0.00  0.00    -0.034 C 
BRANCH  13  14
ATOM     14  C   UNL     1       0.259   0.255   7.410  0.00  0.00    -0.071 C 
ATOM     15  C   UNL     1       0.446   1.768   7.280  0.00  0.00    -0.015 C 
ATOM     16  C   UNL     1      -0.068   2.451   8.550  0.00  0.00    -0.003 C 
ATOM     17  C   UNL     1       0.671   1.876   9.762  0.00  0.00    -0.019 C 
ATOM     18  C   UNL     1       0.476   0.359   9.800  0.00  0.00    -0.079 C 
ATOM     19  N   UNL     1       1.011  -0.237   8.570  0.00  0.00    +0.380 N 
ATOM     20  C   UNL     1       0.893  -1.699   8.645  0.00  0.00    -0.096 C 
ATOM     21  H   UNL     1       1.983   0.015   8.470  0.00  0.00    -0.082 HD
ENDBRANCH  13  14
ENDBRANCH  12  13
ENDBRANCH   1  12
TORSDOF 4
