REMARK  Name = ZINC58299754
REMARK  6 active torsions:
REMARK  status: ('A' for Active; 'I' for Inactive)
REMARK    1  A    between atoms: C_1  and  C_2
REMARK    2  A    between atoms: C_2  and  C_4
REMARK    3  A    between atoms: C_2  and  N_16
REMARK    4  A    between atoms: C_7  and  N_10
REMARK    5  A    between atoms: N_16  and  C_17
REMARK    6  A    between atoms: C_17  and  C_18
REMARK                            x       y       z     vdW  Elec       q    Type
REMARK                         _______ _______ _______ _____ _____    ______ ____
ROOT
ATOM      1  C   UNL     1      -0.019   1.526  -0.006  0.00  0.00    -0.009 C 
ATOM      2  C   UNL     1       0.002  -0.004   0.002  0.00  0.00    -0.044 C 
ENDROOT
BRANCH   2   3
ATOM      3  C   UNL     1      -1.412  -0.526   0.013  0.00  0.00    -0.062 A 
ATOM      4  C   UNL     1      -2.127  -0.557   1.196  0.00  0.00    +0.004 A 
ATOM      5  C   UNL     1      -3.422  -1.035   1.210  0.00  0.00    +0.023 A 
ATOM      6  C   UNL     1      -4.008  -1.483   0.032  0.00  0.00    +0.030 A 
ATOM      7  C   UNL     1      -3.287  -1.450  -1.155  0.00  0.00    +0.023 A 
ATOM      8  C   UNL     1      -1.993  -0.966  -1.162  0.00  0.00    +0.004 A 
BRANCH   6   9
ATOM      9  N   UNL     1      -5.318  -1.967   0.042  0.00  0.00    -0.326 N 
ATOM     10  C   UNL     1      -5.998  -2.337  -1.209  0.00  0.00    +0.133 C 
ATOM     11  C   UNL     1      -6.588  -3.742  -1.041  0.00  0.00    +0.178 C 
ATOM     12  O   UNL     1      -7.381  -3.781   0.148  0.00  0.00    -0.377 OA
ATOM     13  C   UNL     1      -6.645  -3.538   1.350  0.00  0.00    +0.178 C 
ATOM     14  C   UNL     1      -6.056  -2.128   1.305  0.00  0.00    +0.133 C 
ENDBRANCH   6   9
ENDBRANCH   2   3
BRANCH   2  15
ATOM     15  N   UNL     1       0.708  -0.477   1.200  0.00  0.00    +0.384 N 
ATOM     16  H   UNL     1       0.281  -0.076   2.022  0.00  0.00    -0.085 HD
ATOM     17  H   UNL     1       0.650  -1.484   1.249  0.00  0.00    -0.085 HD
BRANCH  15  18
ATOM     18  C   UNL     1       2.117  -0.070   1.131  0.00  0.00    -0.075 C 
BRANCH  18  19
ATOM     19  C   UNL     1       2.852  -0.563   2.380  0.00  0.00    +0.010 C 
ATOM     20  C   UNL     1       2.283   0.140   3.617  0.00  0.00    +0.106 C 
ATOM     21  N   UNL     1       2.956  -0.401   4.814  0.00  0.00    -0.329 N 
ATOM     22  C   UNL     1       4.338  -0.573   4.717  0.00  0.00    +0.117 A 
ATOM     23  C   UNL     1       5.244  -0.823   5.687  0.00  0.00    +0.064 A 
ATOM     24  C   UNL     1       6.504  -0.909   5.080  0.00  0.00    +0.136 A 
ATOM     25  N   UNL     1       6.355  -0.718   3.791  0.00  0.00    -0.178 NA
ATOM     26  N   UNL     1       5.001  -0.505   3.533  0.00  0.00    -0.251 N 
ATOM     27  C   UNL     1       4.347  -0.250   2.247  0.00  0.00    +0.148 C 
ATOM     28  H   UNL     1       2.466  -0.623   5.622  0.00  0.00    +0.147 HD
ENDBRANCH  18  19
ENDBRANCH  15  18
ENDBRANCH   2  15
TORSDOF 5
