REMARK  Name = ZINC51813946
REMARK  7 active torsions:
REMARK  status: ('A' for Active; 'I' for Inactive)
REMARK    1  A    between atoms: C_4  and  C_7
REMARK    2  A    between atoms: C_8  and  C_9
REMARK    3  A    between atoms: C_9  and  O_10
REMARK    4  A    between atoms: O_10  and  C_11
REMARK    5  A    between atoms: C_13  and  C_20
REMARK    6  A    between atoms: C_16  and  N_17
REMARK    7  A    between atoms: C_20  and  N_21
REMARK                            x       y       z     vdW  Elec       q    Type
REMARK                         _______ _______ _______ _____ _____    ______ ____
ROOT
ATOM      1  C   UNL     1       6.819  -4.168  -0.087  0.00  0.00    +0.152 A 
ATOM      2  C   UNL     1       8.093  -3.618  -0.091  0.00  0.00    +0.049 A 
ATOM      3  C   UNL     1       9.200  -4.444  -0.106  0.00  0.00    -0.061 A 
ATOM      4  C   UNL     1       9.040  -5.817  -0.117  0.00  0.00    +0.004 A 
ATOM      5  C   UNL     1       7.772  -6.367  -0.114  0.00  0.00    +0.036 A 
ATOM      6  C   UNL     1       6.661  -5.546  -0.093  0.00  0.00    +0.168 A 
ENDROOT
BRANCH   6   7
ATOM      7  N   UNL     1       5.304  -6.135  -0.083  0.00  0.00    +0.060 N 
ATOM      8  O   UNL     1       5.166  -7.336  -0.088  0.00  0.00    -0.126 OA
ATOM      9  O   UNL     1       4.332  -5.416  -0.070  0.00  0.00    -0.126 OA
ENDBRANCH   6   7
BRANCH   1  10
ATOM     10  O   UNL     1       5.729  -3.357  -0.072  0.00  0.00    -0.477 OA
BRANCH  10  11
ATOM     11  C   UNL     1       5.967  -1.948  -0.067  0.00  0.00    +0.318 C 
BRANCH  11  13
ATOM     12  C   UNL     1       3.655  -0.662  -0.037  0.00  0.00    -0.063 C 
ATOM     13  C   UNL     1       4.681  -1.233  -0.050  0.00  0.00    -0.056 C 
BRANCH  12  17
ATOM     14  C   UNL     1      -0.017   1.379   0.010  0.00  0.00    +0.000 A 
ATOM     15  C   UNL     1       1.168   2.093   0.002  0.00  0.00    +0.001 A 
ATOM     16  C   UNL     1       2.377   1.429  -0.013  0.00  0.00    +0.017 A 
ATOM     17  C   UNL     1       2.403   0.034  -0.021  0.00  0.00    +0.025 A 
ATOM     18  C   UNL     1       1.204  -0.681  -0.013  0.00  0.00    +0.017 A 
ATOM     19  C   UNL     1       0.002  -0.004   0.002  0.00  0.00    +0.001 A 
ENDBRANCH  12  17
ENDBRANCH  11  13
ENDBRANCH  10  11
ENDBRANCH   1  10
BRANCH   3  20
ATOM     20  C   UNL     1      10.585  -3.847  -0.111  0.00  0.00    -0.050 C 
BRANCH  20  21
ATOM     21  N   UNL     1      11.044  -3.666   1.272  0.00  0.00    +0.381 N 
ATOM     22  H   UNL     1      10.413  -3.046   1.758  0.00  0.00    -0.090 HD
ATOM     23  H   UNL     1      11.065  -4.559   1.740  0.00  0.00    -0.090 HD
ATOM     24  H   UNL     1      11.971  -3.266   1.269  0.00  0.00    -0.090 HD
ENDBRANCH  20  21
ENDBRANCH   3  20
TORSDOF 7
