REMARK  Name = ZINC66954004
REMARK  11 active torsions:
REMARK  status: ('A' for Active; 'I' for Inactive)
REMARK    1  A    between atoms: C_1  and  C_2
REMARK    2  A    between atoms: C_2  and  C_4
REMARK    3  A    between atoms: C_2  and  S_7
REMARK    4  A    between atoms: C_4  and  C_5
REMARK    5  A    between atoms: S_7  and  C_8
REMARK    6  A    between atoms: C_13  and  N_14
REMARK    7  A    between atoms: N_17  and  C_18
REMARK    8  A    between atoms: C_20  and  C_26
REMARK    9  A    between atoms: C_20  and  C_27
REMARK   10  A    between atoms: C_22  and  C_24
REMARK   11  A    between atoms: C_22  and  C_25
REMARK                            x       y       z     vdW  Elec       q    Type
REMARK                         _______ _______ _______ _____ _____    ______ ____
ROOT
ATOM      1  N   UNL     1      -4.207  -1.216   1.410  0.00  0.00    -0.268 N 
ATOM      2  C   UNL     1      -5.381  -1.698   1.865  0.00  0.00    +0.304 C 
ATOM      3  O   UNL     1      -5.857  -1.266   2.897  0.00  0.00    -0.253 OA
ATOM      4  N   UNL     1      -6.026  -2.660   1.175  0.00  0.00    -0.296 N 
ATOM      5  H   UNL     1      -3.869  -1.497   0.545  0.00  0.00    +0.156 HD
ATOM      6  H   UNL     1      -5.646  -3.005   0.352  0.00  0.00    +0.151 HD
ENDROOT
BRANCH   4   7
ATOM      7  C   UNL     1      -7.305  -3.186   1.671  0.00  0.00    +0.072 C 
ATOM      8  C   UNL     1      -8.444  -2.304   1.155  0.00  0.00    +0.009 C 
ATOM      9  C   UNL     1      -9.784  -2.846   1.652  0.00  0.00    -0.072 C 
ATOM     10  N   UNL     1      -9.967  -4.249   1.314  0.00  0.00    +0.386 N 
ATOM     11  C   UNL     1      -8.860  -5.157   1.572  0.00  0.00    -0.072 C 
ATOM     12  C   UNL     1      -7.511  -4.600   1.131  0.00  0.00    +0.009 C 
ATOM     13  C   UNL     1      -8.799  -5.570   3.045  0.00  0.00    -0.010 C 
ATOM     14  C   UNL     1      -9.115  -6.444   0.752  0.00  0.00    -0.010 C 
ATOM     15  C   UNL     1     -10.896  -2.044   0.938  0.00  0.00    -0.010 C 
ATOM     16  C   UNL     1      -9.933  -2.591   3.152  0.00  0.00    -0.010 C 
ATOM     17  H   UNL     1     -10.791  -4.595   1.812  0.00  0.00    -0.084 HD
ATOM     18  H   UNL     1     -10.209  -4.311   0.322  0.00  0.00    -0.084 HD
ENDBRANCH   4   7
BRANCH   1  24
ATOM     19  C   UNL     1      -2.572   0.565   1.579  0.00  0.00    +0.029 A 
ATOM     20  C   UNL     1      -1.854   1.465   2.353  0.00  0.00    +0.016 A 
ATOM     21  C   UNL     1      -2.032   1.493   3.724  0.00  0.00    +0.001 A 
ATOM     22  C   UNL     1      -2.923   0.624   4.327  0.00  0.00    +0.002 A 
ATOM     23  C   UNL     1      -3.641  -0.277   3.563  0.00  0.00    +0.024 A 
ATOM     24  C   UNL     1      -3.475  -0.307   2.187  0.00  0.00    +0.048 A 
BRANCH  19  25
ATOM     25  S   UNL     1      -2.349   0.528  -0.169  0.00  0.00    -0.119 S 
BRANCH  25  27
ATOM     26  C   UNL     1      -1.915   3.226  -0.287  0.00  0.00    +0.020 C 
ATOM     27  C   UNL     1      -1.197   1.891  -0.493  0.00  0.00    +0.062 C 
BRANCH  27  28
ATOM     28  C   UNL     1      -0.692   1.800  -1.934  0.00  0.00    +0.132 C 
BRANCH  28  29
ATOM     29  C   UNL     1       0.102   0.572  -2.100  0.00  0.00    +0.064 C 
ATOM     30  N   UNL     1       0.715  -0.376  -2.227  0.00  0.00    -0.197 NA
ENDBRANCH  28  29
ENDBRANCH  27  28
ENDBRANCH  25  27
ENDBRANCH  19  25
ENDBRANCH   1  24
TORSDOF 6
