REMARK  Name = ZINC61718890
REMARK  4 active torsions:
REMARK  status: ('A' for Active; 'I' for Inactive)
REMARK    1  A    between atoms: C_1  and  C_2
REMARK    2  A    between atoms: C_2  and  C_4
REMARK    3  A    between atoms: C_2  and  N_17
REMARK    4  A    between atoms: C_4  and  N_6
REMARK                            x       y       z     vdW  Elec       q    Type
REMARK                         _______ _______ _______ _____ _____    ______ ____
ROOT
ATOM      1  N   UNL     1      -1.460  -0.416  -0.230  0.00  0.00    -0.288 N 
ATOM      2  C   UNL     1      -2.077  -0.470  -1.427  0.00  0.00    +0.303 C 
ATOM      3  O   UNL     1      -1.454  -0.234  -2.444  0.00  0.00    -0.253 OA
ATOM      4  N   UNL     1      -3.385  -0.787  -1.496  0.00  0.00    -0.283 N 
ATOM      5  C   UNL     1      -4.125  -1.179  -0.289  0.00  0.00    +0.128 C 
ATOM      6  C   UNL     1      -5.346  -0.263  -0.143  0.00  0.00    +0.125 C 
ATOM      7  N   UNL     1      -6.059  -0.221  -1.428  0.00  0.00    -0.314 N 
ATOM      8  C   UNL     1      -5.319   0.171  -2.635  0.00  0.00    +0.125 C 
ATOM      9  C   UNL     1      -4.099  -0.740  -2.780  0.00  0.00    +0.128 C 
ATOM     10  C   UNL     1      -7.408  -0.548  -1.499  0.00  0.00    +0.099 A 
ATOM     11  C   UNL     1      -8.123  -0.784  -0.329  0.00  0.00    +0.042 A 
ATOM     12  C   UNL     1      -9.465  -1.108  -0.415  0.00  0.00    +0.005 A 
ATOM     13  C   UNL     1     -10.049  -1.185  -1.673  0.00  0.00    +0.018 A 
ATOM     14  C   UNL     1      -9.280  -0.939  -2.792  0.00  0.00    +0.084 A 
ATOM     15  N   UNL     1      -8.002  -0.626  -2.680  0.00  0.00    -0.350 N 
ATOM     16  H   UNL     1      -1.936  -0.678   0.573  0.00  0.00    +0.151 HD
ATOM     17  H   UNL     1      -7.485  -0.454  -3.482  0.00  0.00    +0.166 HD
ENDROOT
BRANCH   1  19
ATOM     18  C   UNL     1      -0.037   1.567  -0.065  0.00  0.00    +0.038 C 
ATOM     19  C   UNL     1      -0.070   0.039  -0.143  0.00  0.00    +0.159 C 
BRANCH  19  20
ATOM     20  C   UNL     1       0.572  -0.541   1.091  0.00  0.00    +0.259 C 
ATOM     21  O   UNL     1      -0.070  -1.265   1.827  0.00  0.00    -0.272 OA
BRANCH  20  22
ATOM     22  N   UNL     1       1.840  -0.261   1.374  0.00  0.00    -0.145 NA
ATOM     23  C   UNL     1       2.377  -0.687   2.515  0.00  0.00    +0.198 A 
ATOM     24  N   UNL     1       1.769  -1.507   3.412  0.00  0.00    -0.326 N 
ATOM     25  H   UNL     1       0.877  -1.878   3.330  0.00  0.00    +0.169 HD
ATOM     26  C   UNL     1       2.647  -1.723   4.470  0.00  0.00    +0.065 A 
ATOM     27  C   UNL     1       2.556  -2.463   5.640  0.00  0.00    +0.028 A 
ATOM     28  C   UNL     1       3.619  -2.489   6.522  0.00  0.00    +0.002 A 
ATOM     29  C   UNL     1       4.774  -1.779   6.243  0.00  0.00    +0.002 A 
ATOM     30  C   UNL     1       4.875  -1.039   5.082  0.00  0.00    +0.028 A 
ATOM     31  C   UNL     1       3.813  -1.007   4.189  0.00  0.00    +0.065 A 
ATOM     32  N   UNL     1       3.621  -0.375   2.964  0.00  0.00    -0.326 N 
ATOM     33  H   UNL     1       4.263   0.192   2.510  0.00  0.00    +0.169 HD
ENDBRANCH  20  22
ENDBRANCH  19  20
ENDBRANCH   1  19
TORSDOF 3
