REMARK  Name = ZINC40283607
REMARK  4 active torsions:
REMARK  status: ('A' for Active; 'I' for Inactive)
REMARK    1  A    between atoms: C_1  and  O_2
REMARK    2  A    between atoms: O_2  and  C_3
REMARK    3  A    between atoms: C_6  and  C_10
REMARK    4  A    between atoms: C_10  and  N_12
REMARK                            x       y       z     vdW  Elec       q    Type
REMARK                         _______ _______ _______ _____ _____    ______ ____
ROOT
ATOM      1  N   UNL     1       3.036  -1.575  -5.331  0.00  0.00    -0.140 NA
ATOM      2  C   UNL     1       3.726  -2.098  -6.339  0.00  0.00    +0.199 A 
ATOM      3  N   UNL     1       3.878  -3.427  -6.583  0.00  0.00    -0.326 N 
ATOM      4  H   UNL     1       3.503  -4.149  -6.055  0.00  0.00    +0.169 HD
ATOM      5  C   UNL     1       4.663  -3.574  -7.722  0.00  0.00    +0.065 A 
ATOM      6  C   UNL     1       5.128  -4.682  -8.416  0.00  0.00    +0.028 A 
ATOM      7  C   UNL     1       5.908  -4.511  -9.542  0.00  0.00    +0.002 A 
ATOM      8  C   UNL     1       6.228  -3.238  -9.983  0.00  0.00    +0.002 A 
ATOM      9  C   UNL     1       5.771  -2.129  -9.300  0.00  0.00    +0.028 A 
ATOM     10  C   UNL     1       4.986  -2.289  -8.167  0.00  0.00    +0.065 A 
ATOM     11  N   UNL     1       4.386  -1.389  -7.293  0.00  0.00    -0.326 N 
ATOM     12  H   UNL     1       4.433  -0.422  -7.352  0.00  0.00    +0.169 HD
ENDROOT
BRANCH   1  13
ATOM     13  C   UNL     1       2.522  -2.371  -4.388  0.00  0.00    +0.306 C 
ATOM     14  O   UNL     1       2.603  -3.582  -4.503  0.00  0.00    -0.265 OA
BRANCH  13  18
ATOM     15  C   UNL     1       0.632  -0.603  -1.043  0.00  0.00    +0.202 A 
ATOM     16  C   UNL     1       1.176   0.137  -2.038  0.00  0.00    +0.245 A 
ATOM     17  O   UNL     1       1.769  -0.447  -3.087  0.00  0.00    -0.454 OA
ATOM     18  C   UNL     1       1.854  -1.782  -3.204  0.00  0.00    +0.195 A 
ATOM     19  C   UNL     1       1.334  -2.599  -2.252  0.00  0.00    +0.106 A 
ATOM     20  C   UNL     1       0.702  -2.020  -1.120  0.00  0.00    +0.227 A 
ATOM     21  O   UNL     1       0.227  -2.720  -0.239  0.00  0.00    -0.284 OA
BRANCH  15  23
ATOM     22  C   UNL     1       0.003   1.431   0.018  0.00  0.00    +0.277 C 
ATOM     23  O   UNL     1       0.032   0.002   0.017  0.00  0.00    -0.489 OA
ENDBRANCH  15  23
ENDBRANCH  13  18
ENDBRANCH   1  13
TORSDOF 3
