REMARK  Name = ZINC37860009
REMARK  9 active torsions:
REMARK  status: ('A' for Active; 'I' for Inactive)
REMARK    1  A    between atoms: C_1  and  C_2
REMARK    2  A    between atoms: C_2  and  C_4
REMARK    3  A    between atoms: C_2  and  N_10
REMARK    4  A    between atoms: N_10  and  C_11
REMARK    5  A    between atoms: C_11  and  C_12
REMARK    6  A    between atoms: C_12  and  C_13
REMARK    7  A    between atoms: C_13  and  N_14
REMARK    8  A    between atoms: N_14  and  C_15
REMARK    9  A    between atoms: N_14  and  C_16
REMARK                            x       y       z     vdW  Elec       q    Type
REMARK                         _______ _______ _______ _____ _____    ______ ____
ROOT
ATOM      1  N   UNL     1       0.713  -0.491   1.192  0.00  0.00    -0.306 NA
ATOM      2  H   UNL     1       0.492   0.072   2.000  0.00  0.00    +0.123 HD
ENDROOT
BRANCH   1   4
ATOM      3  C   UNL     1      -0.019   1.526   0.010  0.00  0.00    +0.034 C 
ATOM      4  C   UNL     1       0.002  -0.004   0.002  0.00  0.00    +0.138 C 
BRANCH   4   5
ATOM      5  C   UNL     1      -1.412  -0.526   0.013  0.00  0.00    +0.237 C 
ATOM      6  O   UNL     1      -1.790  -1.233   0.922  0.00  0.00    -0.274 OA
ATOM      7  N   UNL     1      -2.256  -0.206  -0.988  0.00  0.00    -0.239 N 
ATOM      8  C   UNL     1      -3.520  -0.672  -0.979  0.00  0.00    +0.303 C 
ATOM      9  O   UNL     1      -3.899  -1.381  -0.067  0.00  0.00    -0.253 OA
ATOM     10  N   UNL     1      -4.364  -0.353  -1.980  0.00  0.00    -0.313 N 
ATOM     11  H   UNL     1      -1.953   0.360  -1.716  0.00  0.00    +0.159 HD
ATOM     12  H   UNL     1      -4.061   0.213  -2.707  0.00  0.00    +0.146 HD
ATOM     13  H   UNL     1      -5.274  -0.689  -1.973  0.00  0.00    +0.146 HD
ENDBRANCH   4   5
ENDBRANCH   1   4
BRANCH   1  14
ATOM     14  C   UNL     1       2.162  -0.532   0.959  0.00  0.00    +0.080 C 
BRANCH  14  15
ATOM     15  C   UNL     1       2.866  -1.043   2.218  0.00  0.00    -0.003 C 
BRANCH  15  16
ATOM     16  C   UNL     1       4.377  -1.087   1.976  0.00  0.00    -0.078 C 
BRANCH  16  17
ATOM     17  N   UNL     1       5.053  -1.577   3.184  0.00  0.00    +0.380 N 
ATOM     18  C   UNL     1       4.659  -2.970   3.434  0.00  0.00    -0.096 C 
ATOM     19  H   UNL     1       4.788  -1.006   3.973  0.00  0.00    -0.082 HD
BRANCH  17  20
ATOM     20  C   UNL     1       6.508  -1.506   2.994  0.00  0.00    -0.069 C 
ATOM     21  C   UNL     1       7.212  -2.017   4.253  0.00  0.00    -0.015 C 
ATOM     22  C   UNL     1       8.727  -1.943   4.055  0.00  0.00    -0.002 C 
ATOM     23  C   UNL     1       9.137  -0.492   3.794  0.00  0.00    -0.000 C 
ATOM     24  C   UNL     1       8.433   0.019   2.535  0.00  0.00    -0.002 C 
ATOM     25  C   UNL     1       6.918  -0.055   2.733  0.00  0.00    -0.015 C 
ENDBRANCH  17  20
ENDBRANCH  16  17
ENDBRANCH  15  16
ENDBRANCH  14  15
ENDBRANCH   1  14
TORSDOF 7
