REMARK  Name = ZINC48872247
REMARK  6 active torsions:
REMARK  status: ('A' for Active; 'I' for Inactive)
REMARK    1  A    between atoms: C_1  and  N_2
REMARK    2  A    between atoms: C_6  and  C_7
REMARK    3  A    between atoms: C_7  and  S_8
REMARK    4  A    between atoms: S_8  and  C_9
REMARK    5  A    between atoms: C_12  and  C_15
REMARK    6  A    between atoms: N_13  and  N_14
REMARK                            x       y       z     vdW  Elec       q    Type
REMARK                         _______ _______ _______ _____ _____    ______ ____
ROOT
ATOM      1  C   UNL     1      -1.502   0.339   4.782  0.00  0.00    +0.209 A 
ATOM      2  N   UNL     1      -0.371   0.565   5.413  0.00  0.00    -0.120 NA
ATOM      3  N   UNL     1      -0.605   0.942   6.619  0.00  0.00    -0.123 NA
ATOM      4  C   UNL     1      -1.902   0.981   6.834  0.00  0.00    +0.217 A 
ATOM      5  N   UNL     1      -2.516   0.601   5.660  0.00  0.00    -0.221 N 
ENDROOT
BRANCH   4   6
ATOM      6  C   UNL     1      -2.571   1.363   8.087  0.00  0.00    +0.173 A 
ATOM      7  C   UNL     1      -1.994   2.015   9.135  0.00  0.00    +0.053 A 
ATOM      8  C   UNL     1      -2.994   2.175  10.114  0.00  0.00    +0.042 A 
ATOM      9  C   UNL     1      -4.120   1.621   9.622  0.00  0.00    +0.196 A 
ATOM     10  O   UNL     1      -3.863   1.136   8.396  0.00  0.00    -0.460 OA
ENDBRANCH   4   6
BRANCH   5  11
ATOM     11  N   UNL     1      -3.858   0.503   5.425  0.00  0.00    -0.294 N 
ATOM     12  H   UNL     1      -4.198  -0.421   5.648  0.00  0.00    +0.163 HD
ATOM     13  H   UNL     1      -4.367   1.209   5.935  0.00  0.00    +0.163 HD
ENDBRANCH   5  11
BRANCH   1  14
ATOM     14  S   UNL     1      -1.677  -0.195   3.112  0.00  0.00    -0.077 S 
BRANCH  14  15
ATOM     15  C   UNL     1       0.030  -0.354   2.521  0.00  0.00    +0.151 C 
BRANCH  15  21
ATOM     16  C   UNL     1      -0.018   1.461   0.010  0.00  0.00    +0.150 C 
ATOM     17  N   UNL     1       0.002  -0.004   0.002  0.00  0.00    -0.337 N 
ATOM     18  C   UNL     1       0.009  -0.810  -1.104  0.00  0.00    +0.106 A 
ATOM     19  C   UNL     1       0.029  -2.081  -0.660  0.00  0.00    +0.130 A 
ATOM     20  N   UNL     1       0.034  -2.052   0.681  0.00  0.00    -0.240 NA
ATOM     21  C   UNL     1       0.023  -0.811   1.085  0.00  0.00    +0.120 A 
ENDBRANCH  15  21
ENDBRANCH  14  15
ENDBRANCH   1  14
TORSDOF 5
