REMARK  Name = ZINC41141662
REMARK  7 active torsions:
REMARK  status: ('A' for Active; 'I' for Inactive)
REMARK    1  A    between atoms: C_1  and  C_2
REMARK    2  A    between atoms: C_5  and  C_8
REMARK    3  A    between atoms: C_11  and  C_23
REMARK    4  A    between atoms: N_13  and  C_14
REMARK    5  A    between atoms: C_17  and  O_21
REMARK    6  A    between atoms: O_21  and  C_22
REMARK    7  A    between atoms: C_23  and  N_24
REMARK                            x       y       z     vdW  Elec       q    Type
REMARK                         _______ _______ _______ _____ _____    ______ ____
ROOT
ATOM      1  C   UNL     1       0.059  -4.275  -0.021  0.00  0.00    +0.134 C 
ATOM      2  C   UNL     1       1.478  -4.803   0.275  0.00  0.00    +0.079 C 
ATOM      3  C   UNL     1       1.309  -5.594   1.553  0.00  0.00    +0.022 C 
ATOM      4  N   UNL     1       0.096  -5.551   1.927  0.00  0.00    -0.190 NA
ATOM      5  N   UNL     1      -0.743  -4.811   1.090  0.00  0.00    -0.217 N 
ENDROOT
BRANCH   1  10
ATOM      6  C   UNL     1      -0.018   1.503   0.010  0.00  0.00    +0.044 C 
ATOM      7  C   UNL     1       0.002  -0.004   0.002  0.00  0.00    -0.050 A 
ATOM      8  C   UNL     1       0.006  -0.689  -1.199  0.00  0.00    +0.004 A 
ATOM      9  C   UNL     1       0.025  -2.071  -1.206  0.00  0.00    +0.006 A 
ATOM     10  C   UNL     1       0.040  -2.768  -0.013  0.00  0.00    -0.025 A 
ATOM     11  C   UNL     1       0.037  -2.084   1.188  0.00  0.00    +0.006 A 
ATOM     12  C   UNL     1       0.023  -0.702   1.195  0.00  0.00    +0.004 A 
ENDBRANCH   1  10
BRANCH   5  13
ATOM     13  C   UNL     1      -2.115  -4.611   1.276  0.00  0.00    +0.054 A 
ATOM     14  C   UNL     1      -2.837  -3.854   0.362  0.00  0.00    +0.028 A 
ATOM     15  C   UNL     1      -4.191  -3.657   0.545  0.00  0.00    +0.049 A 
ATOM     16  C   UNL     1      -4.831  -4.214   1.643  0.00  0.00    +0.138 A 
ATOM     17  C   UNL     1      -4.111  -4.970   2.557  0.00  0.00    +0.084 A 
ATOM     18  C   UNL     1      -2.757  -5.174   2.371  0.00  0.00    +0.048 A 
ATOM     19 CL   UNL     1      -4.913  -5.666   3.930  0.00  0.00    -0.080 Cl
BRANCH  16  20
ATOM     20  O   UNL     1      -6.165  -4.018   1.823  0.00  0.00    -0.494 OA
ATOM     21  C   UNL     1      -6.843  -3.229   0.843  0.00  0.00    +0.277 C 
ENDBRANCH  16  20
ENDBRANCH   5  13
BRANCH   3  22
ATOM     22  C   UNL     1       2.413  -6.323   2.273  0.00  0.00    -0.033 C 
BRANCH  22  23
ATOM     23  N   UNL     1       1.869  -6.974   3.472  0.00  0.00    +0.382 N 
ATOM     24  H   UNL     1       1.153  -7.631   3.202  0.00  0.00    -0.090 HD
ATOM     25  H   UNL     1       2.609  -7.463   3.955  0.00  0.00    -0.090 HD
ATOM     26  H   UNL     1       1.472  -6.276   4.083  0.00  0.00    -0.090 HD
ENDBRANCH  22  23
ENDBRANCH   3  22
TORSDOF 5
