REMARK  Name = ZINC62213671
REMARK  9 active torsions:
REMARK  status: ('A' for Active; 'I' for Inactive)
REMARK    1  A    between atoms: C_1  and  N_2
REMARK    2  A    between atoms: N_2  and  C_3
REMARK    3  A    between atoms: N_2  and  C_4
REMARK    4  A    between atoms: C_7  and  C_10
REMARK    5  A    between atoms: C_12  and  N_23
REMARK    6  A    between atoms: N_18  and  C_19
REMARK    7  A    between atoms: C_19  and  C_20
REMARK    8  A    between atoms: C_20  and  O_21
REMARK    9  A    between atoms: O_21  and  C_22
REMARK                            x       y       z     vdW  Elec       q    Type
REMARK                         _______ _______ _______ _____ _____    ______ ____
ROOT
ATOM      1  C   UNL     1      -4.657  -2.660  -0.021  0.00  0.00    +0.092 C 
ATOM      2  C   UNL     1      -5.280  -2.643  -1.418  0.00  0.00    -0.049 C 
ATOM      3  C   UNL     1      -6.538  -3.519  -1.406  0.00  0.00    -0.005 C 
ATOM      4  C   UNL     1      -7.590  -2.843  -0.523  0.00  0.00    +0.094 C 
ATOM      5  C   UNL     1      -6.977  -2.446   0.789  0.00  0.00    +0.216 C 
ATOM      6  O   UNL     1      -7.717  -2.200   1.718  0.00  0.00    -0.276 OA
ATOM      7  N   UNL     1      -5.664  -2.346   0.985  0.00  0.00    -0.294 N 
ENDROOT
BRANCH   1  11
ATOM      8  C   UNL     1      -1.524   0.240   0.165  0.00  0.00    +0.029 A 
ATOM      9  C   UNL     1      -2.851   0.649   0.156  0.00  0.00    +0.023 A 
ATOM     10  C   UNL     1      -3.861  -0.290   0.095  0.00  0.00    +0.007 A 
ATOM     11  C   UNL     1      -3.553  -1.637   0.044  0.00  0.00    -0.028 A 
ATOM     12  C   UNL     1      -2.232  -2.048   0.053  0.00  0.00    +0.007 A 
ATOM     13  C   UNL     1      -1.217  -1.113   0.108  0.00  0.00    +0.023 A 
BRANCH   8  15
ATOM     14  C   UNL     1       0.900   0.755   0.230  0.00  0.00    +0.129 C 
ATOM     15  N   UNL     1      -0.499   1.188   0.226  0.00  0.00    -0.336 N 
ATOM     16  C   UNL     1      -0.825   2.615   0.287  0.00  0.00    +0.129 C 
ENDBRANCH   8  15
ENDBRANCH   1  11
BRANCH   2  17
ATOM     17  N   UNL     1      -4.316  -3.172  -2.393  0.00  0.00    +0.381 N 
ATOM     18  H   UNL     1      -4.074  -4.120  -2.146  0.00  0.00    -0.090 HD
ATOM     19  H   UNL     1      -4.729  -3.161  -3.314  0.00  0.00    -0.090 HD
ATOM     20  H   UNL     1      -3.485  -2.600  -2.389  0.00  0.00    -0.090 HD
ENDBRANCH   2  17
BRANCH   7  21
ATOM     21  C   UNL     1      -5.203  -1.897   2.301  0.00  0.00    +0.136 C 
BRANCH  21  22
ATOM     22  C   UNL     1      -5.137  -3.092   3.254  0.00  0.00    +0.178 C 
BRANCH  22  23
ATOM     23  O   UNL     1      -4.138  -4.008   2.801  0.00  0.00    -0.381 OA
ATOM     24  C   UNL     1      -3.995  -5.166   3.626  0.00  0.00    +0.194 C 
ENDBRANCH  22  23
ENDBRANCH  21  22
ENDBRANCH   7  21
TORSDOF 6
