REMARK  Name = ZINC54160010
REMARK  8 active torsions:
REMARK  status: ('A' for Active; 'I' for Inactive)
REMARK    1  A    between atoms: C_1  and  C_2
REMARK    2  A    between atoms: C_4  and  C_10
REMARK    3  A    between atoms: C_6  and  C_9
REMARK    4  A    between atoms: C_7  and  O_8
REMARK    5  A    between atoms: C_13  and  C_15
REMARK    6  A    between atoms: C_15  and  C_17
REMARK    7  A    between atoms: C_15  and  N_18
REMARK    8  A    between atoms: N_18  and  C_19
REMARK                            x       y       z     vdW  Elec       q    Type
REMARK                         _______ _______ _______ _____ _____    ______ ____
ROOT
ATOM      1  C   UNL     1       0.028  -2.817  -2.485  0.00  0.00    +0.108 A 
ATOM      2  N   UNL     1       0.021  -2.346  -3.725  0.00  0.00    -0.247 NA
ATOM      3  C   UNL     1       0.026  -3.154  -4.760  0.00  0.00    +0.121 A 
ATOM      4  C   UNL     1       0.038  -4.499  -4.569  0.00  0.00    -0.004 A 
ATOM      5  S   UNL     1       0.051  -4.580  -2.783  0.00  0.00    -0.074 S 
ENDROOT
BRANCH   1   9
ATOM      6  C   UNL     1      -0.018   1.503   0.010  0.00  0.00    +0.047 C 
ATOM      7  C   UNL     1       0.002  -0.004   0.002  0.00  0.00    -0.008 A 
ATOM      8  C   UNL     1       0.006  -0.686  -1.196  0.00  0.00    +0.017 A 
ATOM      9  C   UNL     1       0.025  -2.082  -1.203  0.00  0.00    +0.008 A 
ATOM     10  C   UNL     1       0.040  -2.782   0.005  0.00  0.00    +0.017 A 
ATOM     11  C   UNL     1       0.036  -2.093   1.199  0.00  0.00    -0.008 A 
ATOM     12  C   UNL     1       0.023  -0.704   1.201  0.00  0.00    +0.123 A 
ATOM     13  C   UNL     1       0.052  -2.847   2.503  0.00  0.00    +0.047 C 
BRANCH  12  14
ATOM     14  O   UNL     1       0.025  -0.028   2.380  0.00  0.00    -0.506 OA
ATOM     15  H   UNL     1      -0.857   0.155   2.730  0.00  0.00    +0.292 HD
ENDBRANCH  12  14
ENDBRANCH   1   9
BRANCH   4  16
ATOM     16  C   UNL     1       0.044  -5.614  -5.583  0.00  0.00    -0.036 C 
ATOM     17  C   UNL     1       1.469  -6.148  -5.745  0.00  0.00    -0.008 C 
BRANCH  16  18
ATOM     18  N   UNL     1      -0.835  -6.698  -5.124  0.00  0.00    +0.382 N 
ATOM     19  C   UNL     1      -0.923  -7.731  -6.165  0.00  0.00    -0.100 C 
ATOM     20  H   UNL     1      -0.459  -7.102  -4.280  0.00  0.00    -0.085 HD
ATOM     21  H   UNL     1      -1.756  -6.328  -4.939  0.00  0.00    -0.085 HD
ENDBRANCH  16  18
ENDBRANCH   4  16
TORSDOF 4
