REMARK  Name = ZINC52904759
REMARK  5 active torsions:
REMARK  status: ('A' for Active; 'I' for Inactive)
REMARK    1  A    between atoms: C_3  and  N_11
REMARK    2  A    between atoms: C_4  and  C_8
REMARK    3  A    between atoms: C_16  and  C_18
REMARK    4  A    between atoms: C_18  and  C_19
REMARK    5  A    between atoms: C_19  and  O_20
REMARK                            x       y       z     vdW  Elec       q    Type
REMARK                         _______ _______ _______ _____ _____    ______ ____
ROOT
ATOM      1  C   UNL     1       0.211   2.161  -0.161  0.00  0.00    +0.003 A 
ATOM      2  C   UNL     1       1.493   2.652  -0.017  0.00  0.00    +0.024 A 
ATOM      3  C   UNL     1       2.584   1.802  -0.145  0.00  0.00    +0.042 A 
ATOM      4  C   UNL     1       2.375   0.442  -0.420  0.00  0.00    +0.051 A 
ATOM      5  C   UNL     1       1.071  -0.041  -0.563  0.00  0.00    +0.053 A 
ATOM      6  C   UNL     1       0.001   0.820  -0.432  0.00  0.00    +0.021 A 
ATOM      7 CL   UNL     1       0.799  -1.722  -0.904  0.00  0.00    -0.083 Cl
ENDROOT
BRANCH   4   8
ATOM      8  C   UNL     1       3.525  -0.472  -0.559  0.00  0.00    +0.097 C 
ATOM      9  N   UNL     1       3.794  -1.031  -1.739  0.00  0.00    -0.387 N 
ATOM     10  N   UNL     1       4.295  -0.740   0.496  0.00  0.00    -0.344 N 
ATOM     11  H   UNL     1       3.233  -0.836  -2.507  0.00  0.00    +0.157 HD
ATOM     12  H   UNL     1       4.042  -0.417   1.375  0.00  0.00    +0.144 HD
ATOM     13  H   UNL     1       5.108  -1.257   0.385  0.00  0.00    +0.144 HD
ATOM     14  H   UNL     1       4.550  -1.632  -1.830  0.00  0.00    +0.157 HD
ENDBRANCH   4   8
BRANCH   3  15
ATOM     15  N   UNL     1       3.875   2.295  -0.001  0.00  0.00    -0.326 N 
ATOM     16  C   UNL     1       4.695   2.601  -1.181  0.00  0.00    +0.105 C 
ATOM     17  C   UNL     1       6.031   1.862  -1.058  0.00  0.00    +0.019 C 
ATOM     18  C   UNL     1       6.689   2.224   0.276  0.00  0.00    +0.003 C 
ATOM     19  C   UNL     1       5.785   1.783   1.429  0.00  0.00    +0.022 C 
ATOM     20  C   UNL     1       4.443   2.526   1.334  0.00  0.00    +0.076 C 
BRANCH  20  21
ATOM     21  C   UNL     1       3.483   1.994   2.400  0.00  0.00    +0.050 C 
BRANCH  21  22
ATOM     22  C   UNL     1       4.016   2.349   3.789  0.00  0.00    +0.157 C 
BRANCH  22  23
ATOM     23  O   UNL     1       3.172   1.769   4.786  0.00  0.00    -0.395 OA
ATOM     24  H   UNL     1       3.451   1.954   5.693  0.00  0.00    +0.209 HD
ENDBRANCH  22  23
ENDBRANCH  21  22
ENDBRANCH  20  21
ENDBRANCH   3  15
TORSDOF 5
