REMARK  Name = ZINC39277021
REMARK  3 active torsions:
REMARK  status: ('A' for Active; 'I' for Inactive)
REMARK    1  A    between atoms: N_15  and  N_16
REMARK    2  A    between atoms: C_17  and  C_19
REMARK    3  A    between atoms: C_22  and  N_25
REMARK                            x       y       z     vdW  Elec       q    Type
REMARK                         _______ _______ _______ _____ _____    ______ ____
ROOT
ATOM      1  C   UNL     1       0.027   1.370   0.069  0.00  0.00    +0.001 A 
ATOM      2  C   UNL     1       1.216   2.112   0.066  0.00  0.00    +0.002 A 
ATOM      3  C   UNL     1       2.435   1.533   0.046  0.00  0.00    +0.026 A 
ATOM      4  C   UNL     1       2.561   0.118   0.025  0.00  0.00    +0.043 A 
ATOM      5  N   UNL     1       3.616  -0.665  -0.024  0.00  0.00    -0.372 N 
ATOM      6  C   UNL     1       3.168  -2.048   0.083  0.00  0.00    +0.152 C 
ATOM      7  C   UNL     1       1.651  -1.989  -0.019  0.00  0.00    -0.033 C 
ATOM      8  C   UNL     1       1.317  -0.692   0.017  0.00  0.00    -0.000 A 
ATOM      9  C   UNL     1       0.032   0.018   0.046  0.00  0.00    +0.010 A 
ATOM     10  C   UNL     1       0.808  -3.220  -0.230  0.00  0.00    +0.034 C 
ATOM     11  C   UNL     1       1.371  -3.946  -1.463  0.00  0.00    +0.010 C 
ATOM     12  C   UNL     1       2.868  -4.204  -1.300  0.00  0.00    +0.055 C 
ATOM     13  C   UNL     1       3.626  -2.905  -1.076  0.00  0.00    +0.063 C 
ATOM     14  N   UNL     1       4.594  -2.547  -1.835  0.00  0.00    -0.187 NA
ATOM     15  H   UNL     1       4.536  -0.372  -0.116  0.00  0.00    +0.161 HD
ENDROOT
BRANCH  14  16
ATOM     16  N   UNL     1       5.070  -3.421  -2.821  0.00  0.00    -0.203 N 
ATOM     17  C   UNL     1       6.151  -3.085  -3.553  0.00  0.00    +0.263 C 
ATOM     18  O   UNL     1       6.713  -2.024  -3.357  0.00  0.00    -0.268 OA
ATOM     19  H   UNL     1       4.622  -4.267  -2.978  0.00  0.00    +0.178 HD
BRANCH  17  20
ATOM     20  C   UNL     1       6.652  -4.004  -4.592  0.00  0.00    +0.038 A 
ATOM     21  C   UNL     1       6.005  -5.222  -4.822  0.00  0.00    +0.015 A 
ATOM     22  C   UNL     1       6.475  -6.077  -5.792  0.00  0.00    +0.023 A 
ATOM     23  C   UNL     1       7.595  -5.731  -6.543  0.00  0.00    +0.025 A 
ATOM     24  C   UNL     1       8.243  -4.520  -6.316  0.00  0.00    +0.023 A 
ATOM     25  C   UNL     1       7.774  -3.658  -5.352  0.00  0.00    +0.015 A 
BRANCH  23  26
ATOM     26  N   UNL     1       8.068  -6.598  -7.522  0.00  0.00    -0.358 N 
ATOM     27  H   UNL     1       7.617  -7.442  -7.681  0.00  0.00    +0.142 HD
ATOM     28  H   UNL     1       8.848  -6.358  -8.046  0.00  0.00    +0.142 HD
ENDBRANCH  23  26
ENDBRANCH  17  20
ENDBRANCH  14  16
TORSDOF 3
