REMARK  Name = ZINC20465214
REMARK  7 active torsions:
REMARK  status: ('A' for Active; 'I' for Inactive)
REMARK    1  A    between atoms: N_9  and  C_11
REMARK    2  A    between atoms: C_13  and  C_23
REMARK    3  A    between atoms: C_16  and  C_21
REMARK    4  A    between atoms: C_18  and  O_20
REMARK    5  A    between atoms: C_21  and  O_22
REMARK    6  A    between atoms: C_23  and  N_24
REMARK    7  A    between atoms: C_25  and  C_27
REMARK                            x       y       z     vdW  Elec       q    Type
REMARK                         _______ _______ _______ _____ _____    ______ ____
ROOT
ATOM      1  C   UNL     1      -0.611   1.708  -1.145  0.00  0.00    -0.006 C 
ATOM      2  C   UNL     1       0.450   2.427  -2.007  0.00  0.00    +0.125 C 
ATOM      3  O   UNL     1       1.464   2.849  -1.069  0.00  0.00    -0.369 OA
ATOM      4  C   UNL     1       1.611   1.747  -0.147  0.00  0.00    +0.171 C 
ATOM      5  C   UNL     1       0.170   1.250   0.107  0.00  0.00    +0.135 C 
ENDROOT
BRANCH   1  14
ATOM      6  C   UNL     1      -4.202   6.676   0.787  0.00  0.00    +0.000 A 
ATOM      7  C   UNL     1      -2.983   6.729   1.437  0.00  0.00    +0.000 A 
ATOM      8  C   UNL     1      -2.008   5.797   1.145  0.00  0.00    +0.002 A 
ATOM      9  C   UNL     1      -2.244   4.807   0.202  0.00  0.00    -0.061 A 
ATOM     10  C   UNL     1      -3.461   4.754  -0.444  0.00  0.00    -0.048 A 
ATOM     11  C   UNL     1      -4.439   5.691  -0.150  0.00  0.00    +0.004 A 
ATOM     12  C   UNL     1      -3.765   3.694  -1.471  0.00  0.00    +0.017 C 
ATOM     13  C   UNL     1      -2.467   3.042  -1.950  0.00  0.00    -0.073 C 
ATOM     14  N   UNL     1      -1.686   2.637  -0.771  0.00  0.00    +0.388 N 
ATOM     15  C   UNL     1      -1.146   3.818  -0.089  0.00  0.00    -0.042 C 
ATOM     16  H   UNL     1      -2.353   2.111  -0.072  0.00  0.00    -0.081 HD
ENDBRANCH   1  14
BRANCH   5  17
ATOM     17  O   UNL     1      -0.368   1.855   1.285  0.00  0.00    -0.391 OA
ATOM     18  H   UNL     1       0.074   1.635   2.267  0.00  0.00    +0.210 HD
ENDBRANCH   5  17
BRANCH   4  19
ATOM     19  C   UNL     1       2.246   2.227   1.159  0.00  0.00    +0.190 C 
BRANCH  19  20
ATOM     20  O   UNL     1       3.613   2.572   0.925  0.00  0.00    -0.392 OA
ATOM     21  H   UNL     1       4.237   2.941   1.753  0.00  0.00    +0.210 HD
ENDBRANCH  19  20
ENDBRANCH   4  19
BRANCH   2  22
ATOM     22  C   UNL     1      -0.164   3.640  -2.709  0.00  0.00    +0.134 C 
BRANCH  22  23
ATOM     23  N   UNL     1       0.901   4.443  -3.317  0.00  0.00    -0.309 N 
ATOM     24  C   UNL     1       0.594   5.567  -3.994  0.00  0.00    +0.251 C 
ATOM     25  O   UNL     1      -0.567   5.916  -4.099  0.00  0.00    -0.270 OA
ATOM     26  H   UNL     1       1.950   4.127  -3.222  0.00  0.00    +0.149 HD
BRANCH  24  27
ATOM     27  C   UNL     1       1.659   6.370  -4.602  0.00  0.00    +0.074 A 
ATOM     28  C   UNL     1       1.559   7.542  -5.335  0.00  0.00    +0.021 A 
ATOM     29  C   UNL     1       2.729   8.097  -5.790  0.00  0.00    +0.008 A 
ATOM     30  C   UNL     1       3.907   7.477  -5.517  0.00  0.00    +0.046 A 
ATOM     31  S   UNL     1       3.421   6.089  -4.598  0.00  0.00    -0.092 S 
ENDBRANCH  24  27
ENDBRANCH  22  23
ENDBRANCH   2  22
TORSDOF 7
