REMARK  Name = ZINC53205753
REMARK  10 active torsions:
REMARK  status: ('A' for Active; 'I' for Inactive)
REMARK    1  A    between atoms: C_1  and  C_2
REMARK    2  A    between atoms: C_2  and  C_3
REMARK    3  A    between atoms: C_2  and  C_4
REMARK    4  A    between atoms: C_2  and  C_5
REMARK    5  A    between atoms: C_9  and  C_24
REMARK    6  A    between atoms: C_11  and  N_14
REMARK    7  A    between atoms: N_14  and  C_15
REMARK    8  A    between atoms: N_14  and  C_16
REMARK    9  A    between atoms: N_21  and  C_23
REMARK   10  A    between atoms: C_24  and  N_25
REMARK                            x       y       z     vdW  Elec       q    Type
REMARK                         _______ _______ _______ _____ _____    ______ ____
ROOT
ATOM      1  C   UNL     1       0.718  -0.497  -1.257  0.00  0.00    -0.004 C 
ATOM      2  C   UNL     1      -0.022   0.009  -2.496  0.00  0.00    +0.004 C 
ATOM      3  C   UNL     1       0.694  -0.484  -3.755  0.00  0.00    +0.003 C 
ATOM      4  C   UNL     1       2.130   0.045  -3.766  0.00  0.00    -0.011 C 
ATOM      5  C   UNL     1       2.870  -0.461  -2.526  0.00  0.00    +0.058 C 
ATOM      6  C   UNL     1       2.154   0.032  -1.268  0.00  0.00    +0.023 C 
ENDROOT
BRANCH   1   8
ATOM      7  C   UNL     1      -0.019   1.526   0.010  0.00  0.00    +0.011 C 
ATOM      8  C   UNL     1       0.002  -0.004   0.002  0.00  0.00    -0.035 C 
ATOM      9  C   UNL     1       0.742  -0.511   1.242  0.00  0.00    +0.011 C 
ATOM     10  C   UNL     1      -1.433  -0.534   0.013  0.00  0.00    +0.011 C 
ENDBRANCH   1   8
BRANCH   5  11
ATOM     11  N   UNL     1       2.890  -1.930  -2.534  0.00  0.00    -0.301 NA
ATOM     12  C   UNL     1       3.487  -2.442  -3.775  0.00  0.00    +0.105 C 
BRANCH  11  13
ATOM     13  C   UNL     1       3.594  -2.454  -1.356  0.00  0.00    +0.040 C 
ATOM     14  C   UNL     1       5.069  -2.049  -1.421  0.00  0.00    +0.015 C 
ATOM     15  C   UNL     1       5.810  -2.665  -0.230  0.00  0.00    -0.017 C 
ATOM     16  C   UNL     1       5.624  -4.183  -0.251  0.00  0.00    -0.079 C 
ATOM     17  N   UNL     1       4.195  -4.506  -0.160  0.00  0.00    +0.379 N 
ATOM     18  C   UNL     1       3.489  -3.980  -1.335  0.00  0.00    -0.060 C 
ATOM     19  C   UNL     1       4.026  -5.964  -0.102  0.00  0.00    -0.096 C 
ATOM     20  H   UNL     1       3.809  -4.091   0.675  0.00  0.00    -0.082 HD
ENDBRANCH  11  13
ENDBRANCH   5  11
BRANCH   4  21
ATOM     21  C   UNL     1       2.109   1.575  -3.758  0.00  0.00    -0.081 C 
BRANCH  21  22
ATOM     22  N   UNL     1       1.505   2.064  -5.005  0.00  0.00    +0.378 N 
ATOM     23  H   UNL     1       1.491   3.073  -4.999  0.00  0.00    -0.090 HD
ATOM     24  H   UNL     1       2.048   1.739  -5.791  0.00  0.00    -0.090 HD
ATOM     25  H   UNL     1       0.561   1.715  -5.080  0.00  0.00    -0.090 HD
ENDBRANCH  21  22
ENDBRANCH   4  21
TORSDOF 5
