REMARK  Name = ZINC49451956
REMARK  9 active torsions:
REMARK  status: ('A' for Active; 'I' for Inactive)
REMARK    1  A    between atoms: C_1  and  C_2
REMARK    2  A    between atoms: C_2  and  C_3
REMARK    3  A    between atoms: C_3  and  C_5
REMARK    4  A    between atoms: C_3  and  N_6
REMARK    5  A    between atoms: C_7  and  C_9
REMARK    6  A    between atoms: C_9  and  C_11
REMARK    7  A    between atoms: C_9  and  N_12
REMARK    8  A    between atoms: C_13  and  C_15
REMARK    9  A    between atoms: C_20  and  O_21
REMARK                            x       y       z     vdW  Elec       q    Type
REMARK                         _______ _______ _______ _____ _____    ______ ____
ROOT
ATOM      1  N   UNL     1       0.658   0.509  -6.008  0.00  0.00    -0.300 N 
ATOM      2  C   UNL     1       0.332   1.297  -7.051  0.00  0.00    +0.248 C 
ATOM      3  O   UNL     1      -0.703   1.935  -7.032  0.00  0.00    -0.270 OA
ATOM      4  H   UNL     1       1.483   0.000  -6.023  0.00  0.00    +0.150 HD
ENDROOT
BRANCH   2   5
ATOM      5  C   UNL     1       1.230   1.384  -8.218  0.00  0.00    +0.078 A 
ATOM      6  C   UNL     1       2.417   0.648  -8.248  0.00  0.00    +0.018 A 
ATOM      7  C   UNL     1       3.251   0.733  -9.340  0.00  0.00    +0.016 A 
ATOM      8  C   UNL     1       2.919   1.547 -10.412  0.00  0.00    +0.021 A 
ATOM      9  C   UNL     1       1.748   2.281 -10.396  0.00  0.00    +0.061 A 
ATOM     10  C   UNL     1       0.894   2.202  -9.306  0.00  0.00    +0.130 A 
ATOM     11 BR   UNL     1       4.074   1.654 -11.905  0.00  0.00    -0.050 Br
BRANCH  10  12
ATOM     12  O   UNL     1      -0.258   2.917  -9.291  0.00  0.00    -0.506 OA
ATOM     13  H   UNL     1      -0.168   3.801  -8.909  0.00  0.00    +0.292 HD
ENDBRANCH  10  12
ENDBRANCH   2   5
BRANCH   1  14
ATOM     14  C   UNL     1      -0.234   0.422  -4.849  0.00  0.00    +0.156 C 
ATOM     15  C   UNL     1      -1.315  -0.628  -5.114  0.00  0.00    +0.038 C 
BRANCH  14  17
ATOM     16  N   UNL     1      -0.055  -0.114  -2.441  0.00  0.00    -0.311 N 
ATOM     17  C   UNL     1       0.561   0.028  -3.631  0.00  0.00    +0.233 C 
ATOM     18  O   UNL     1       1.755  -0.162  -3.722  0.00  0.00    -0.274 OA
ATOM     19  H   UNL     1      -1.010   0.038  -2.368  0.00  0.00    +0.149 HD
BRANCH  16  20
ATOM     20  C   UNL     1       0.718  -0.497  -1.257  0.00  0.00    +0.070 C 
ATOM     21  C   UNL     1       0.849  -2.021  -1.205  0.00  0.00    +0.028 C 
BRANCH  20  23
ATOM     22  C   UNL     1      -0.019   1.526   0.010  0.00  0.00    +0.005 C 
ATOM     23  C   UNL     1       0.002  -0.004   0.002  0.00  0.00    +0.018 C 
ENDBRANCH  20  23
ENDBRANCH  16  20
ENDBRANCH  14  17
ENDBRANCH   1  14
TORSDOF 6
