REMARK  Name = ZINC00499886
REMARK  6 active torsions:
REMARK  status: ('A' for Active; 'I' for Inactive)
REMARK    1  A    between atoms: C_1  and  C_2
REMARK    2  A    between atoms: C_2  and  C_18
REMARK    3  A    between atoms: C_3  and  N_16
REMARK    4  A    between atoms: N_5  and  C_10
REMARK    5  A    between atoms: N_8  and  C_9
REMARK    6  A    between atoms: N_16  and  O_17
REMARK                            x       y       z     vdW  Elec       q    Type
REMARK                         _______ _______ _______ _____ _____    ______ ____
ROOT
ATOM      1  C   UNL     1      -1.635   8.230   1.042  0.00  0.00    +0.035 C 
ATOM      2  C   UNL     1      -0.942   7.502  -0.111  0.00  0.00    +0.067 C 
ATOM      3  C   UNL     1      -0.850   5.990   0.174  0.00  0.00    +0.198 C 
ATOM      4  N   UNL     1       0.597   5.725   0.205  0.00  0.00    -0.235 N 
ATOM      5  C   UNL     1       1.258   6.866  -0.029  0.00  0.00    +0.311 C 
ATOM      6  O   UNL     1       2.472   6.933  -0.065  0.00  0.00    -0.252 OA
ATOM      7  N   UNL     1       0.462   7.926  -0.219  0.00  0.00    -0.280 N 
ATOM      8  C   UNL     1       0.918   9.291  -0.492  0.00  0.00    +0.134 C 
ATOM      9  C   UNL     1      -1.682   7.755  -1.426  0.00  0.00    +0.035 C 
ENDROOT
BRANCH   4  10
ATOM     10  C   UNL     1       1.187   4.477   0.435  0.00  0.00    +0.039 A 
ATOM     11  C   UNL     1       2.563   4.327   0.321  0.00  0.00    +0.023 A 
ATOM     12  C   UNL     1       3.143   3.095   0.548  0.00  0.00    +0.002 A 
ATOM     13  C   UNL     1       2.355   2.011   0.890  0.00  0.00    +0.000 A 
ATOM     14  C   UNL     1       0.984   2.156   1.000  0.00  0.00    +0.002 A 
ATOM     15  C   UNL     1       0.399   3.387   0.779  0.00  0.00    +0.023 A 
ENDBRANCH   4  10
BRANCH   3  16
ATOM     16  N   UNL     1      -1.460   5.675   1.472  0.00  0.00    -0.181 NA
ATOM     17  H   UNL     1      -2.446   5.886   1.469  0.00  0.00    +0.156 HD
BRANCH  16  18
ATOM     18  O   UNL     1      -0.777   6.379   2.557  0.00  0.00    -0.313 OA
ATOM     19  H   UNL     1      -1.144   6.202   3.434  0.00  0.00    +0.236 HD
ENDBRANCH  16  18
ENDBRANCH   3  16
TORSDOF 3
