REMARK  Name = ZINC64631798
REMARK  10 active torsions:
REMARK  status: ('A' for Active; 'I' for Inactive)
REMARK    1  A    between atoms: C_1  and  C_2
REMARK    2  A    between atoms: C_5  and  C_26
REMARK    3  A    between atoms: C_6  and  O_8
REMARK    4  A    between atoms: O_8  and  C_9
REMARK    5  A    between atoms: N_12  and  C_15
REMARK    6  A    between atoms: C_15  and  C_16
REMARK    7  A    between atoms: C_15  and  C_17
REMARK    8  A    between atoms: N_22  and  C_23
REMARK    9  A    between atoms: C_23  and  C_24
REMARK   10  A    between atoms: C_23  and  C_25
REMARK                            x       y       z     vdW  Elec       q    Type
REMARK                         _______ _______ _______ _____ _____    ______ ____
ROOT
ATOM      1  C   UNL     1      -1.223  -0.530   4.198  0.00  0.00    +0.170 C 
ATOM      2  C   UNL     1       0.257  -0.847   3.965  0.00  0.00    +0.026 C 
ATOM      3  C   UNL     1       1.047  -0.530   5.237  0.00  0.00    -0.074 C 
ATOM      4  N   UNL     1       0.540  -1.345   6.348  0.00  0.00    +0.387 N 
ATOM      5  C   UNL     1      -0.859  -0.996   6.623  0.00  0.00    -0.074 C 
ATOM      6  C   UNL     1      -1.722  -1.330   5.405  0.00  0.00    +0.026 C 
ATOM      7  H   UNL     1       0.600  -2.322   6.101  0.00  0.00    -0.081 HD
ENDROOT
BRANCH   4   8
ATOM      8  C   UNL     1       1.351  -1.096   7.546  0.00  0.00    +0.017 C 
ATOM      9  C   UNL     1       2.820  -1.399   7.241  0.00  0.00    -0.004 C 
BRANCH   8  10
ATOM     10  C   UNL     1       0.878  -1.985   8.668  0.00  0.00    +0.207 C 
ATOM     11  O   UNL     1       0.352  -3.048   8.417  0.00  0.00    -0.277 OA
ATOM     12  N   UNL     1       1.039  -1.598   9.948  0.00  0.00    -0.242 N 
ATOM     13  C   UNL     1       0.615  -2.393  10.951  0.00  0.00    +0.306 C 
ATOM     14  O   UNL     1       0.088  -3.459  10.700  0.00  0.00    -0.252 OA
ATOM     15  N   UNL     1       0.776  -2.006  12.232  0.00  0.00    -0.297 N 
ATOM     16  H   UNL     1       1.460  -0.747  10.149  0.00  0.00    +0.159 HD
ATOM     17  H   UNL     1       1.197  -1.155  12.432  0.00  0.00    +0.151 HD
BRANCH  15  18
ATOM     18  C   UNL     1       0.316  -2.870  13.322  0.00  0.00    +0.068 C 
ATOM     19  C   UNL     1       1.118  -2.565  14.588  0.00  0.00    +0.027 C 
ATOM     20  C   UNL     1      -1.169  -2.612  13.584  0.00  0.00    +0.027 C 
ENDBRANCH  15  18
ENDBRANCH   8  10
ENDBRANCH   4   8
BRANCH   1  21
ATOM     21  O   UNL     1      -1.977  -0.893   3.040  0.00  0.00    -0.489 OA
BRANCH  21  27
ATOM     22  C   UNL     1      -0.705   3.462   1.241  0.00  0.00    +0.044 C 
ATOM     23  C   UNL     1      -1.470   2.168   1.140  0.00  0.00    -0.047 A 
ATOM     24  C   UNL     1      -2.271   1.923   0.040  0.00  0.00    +0.004 A 
ATOM     25  C   UNL     1      -2.974   0.737  -0.057  0.00  0.00    +0.007 A 
ATOM     26  C   UNL     1      -2.877  -0.208   0.947  0.00  0.00    -0.009 A 
ATOM     27  C   UNL     1      -2.074   0.035   2.051  0.00  0.00    +0.124 A 
ATOM     28  C   UNL     1      -1.365   1.224   2.143  0.00  0.00    +0.049 A 
ATOM     29  C   UNL     1      -3.644  -1.501   0.842  0.00  0.00    +0.047 C 
ENDBRANCH  21  27
ENDBRANCH   1  21
TORSDOF 5
