REMARK  Name = ZINC39573865
REMARK  6 active torsions:
REMARK  status: ('A' for Active; 'I' for Inactive)
REMARK    1  A    between atoms: C_1  and  C_2
REMARK    2  A    between atoms: C_6  and  C_8
REMARK    3  A    between atoms: N_10  and  C_11
REMARK    4  A    between atoms: C_11  and  C_12
REMARK    5  A    between atoms: N_14  and  N_15
REMARK    6  A    between atoms: C_16  and  C_17
REMARK                            x       y       z     vdW  Elec       q    Type
REMARK                         _______ _______ _______ _____ _____    ______ ____
ROOT
ATOM      1  C   UNL     1       0.104  -6.416   3.418  0.00  0.00    +0.249 C 
ATOM      2  O   UNL     1       0.104  -6.810   2.271  0.00  0.00    -0.272 OA
ATOM      3  N   UNL     1       0.120  -7.301   4.434  0.00  0.00    -0.206 N 
ATOM      4  H   UNL     1       0.120  -6.986   5.351  0.00  0.00    +0.177 HD
ENDROOT
BRANCH   3   5
ATOM      5  N   UNL     1       0.137  -8.676   4.165  0.00  0.00    -0.188 NA
ATOM      6  C   UNL     1       0.153  -9.536   5.152  0.00  0.00    +0.136 C 
BRANCH   6   7
ATOM      7  C   UNL     1       0.170 -10.912   4.883  0.00  0.00    +0.000 C 
ATOM      8  C   UNL     1       0.183 -11.951   5.810  0.00  0.00    +0.004 A 
ATOM      9  C   UNL     1       0.182 -11.970   7.223  0.00  0.00    +0.010 A 
ATOM     10  C   UNL     1       0.197 -13.157   7.880  0.00  0.00    +0.001 A 
ATOM     11  C   UNL     1       0.213 -14.375   7.193  0.00  0.00    +0.002 A 
ATOM     12  C   UNL     1       0.214 -14.433   5.840  0.00  0.00    +0.026 A 
ATOM     13  C   UNL     1       0.199 -13.232   5.081  0.00  0.00    +0.043 A 
ATOM     14  N   UNL     1       0.197 -13.022   3.782  0.00  0.00    -0.380 N 
ATOM     15  C   UNL     1       0.172 -11.579   3.525  0.00  0.00    +0.150 C 
ATOM     16  H   UNL     1       0.206 -13.713   3.102  0.00  0.00    +0.160 HD
ENDBRANCH   6   7
ENDBRANCH   3   5
BRANCH   1  17
ATOM     17  C   UNL     1       0.086  -4.937   3.707  0.00  0.00    +0.202 C 
BRANCH  17  20
ATOM     18  C   UNL     1       0.052  -2.845   2.458  0.00  0.00    +0.244 C 
ATOM     19  O   UNL     1       0.049  -2.248   3.516  0.00  0.00    -0.270 OA
ATOM     20  N   UNL     1       0.070  -4.193   2.445  0.00  0.00    -0.303 N 
ATOM     21  H   UNL     1       0.072  -4.670   1.601  0.00  0.00    +0.150 HD
BRANCH  18  27
ATOM     22  C   UNL     1      -0.018   1.503   0.010  0.00  0.00    +0.044 C 
ATOM     23  C   UNL     1       0.002  -0.004   0.002  0.00  0.00    -0.050 A 
ATOM     24  C   UNL     1       0.006  -0.688  -1.201  0.00  0.00    +0.003 A 
ATOM     25  C   UNL     1       0.025  -2.071  -1.218  0.00  0.00    +0.001 A 
ATOM     26  C   UNL     1       0.040  -2.778  -0.033  0.00  0.00    +0.013 A 
ATOM     27  C   UNL     1       0.036  -2.095   1.184  0.00  0.00    +0.037 A 
ATOM     28  C   UNL     1       0.023  -0.699   1.194  0.00  0.00    +0.016 A 
ENDBRANCH  18  27
ENDBRANCH  17  20
ENDBRANCH   1  17
TORSDOF 5
