REMARK  Name = ZINC05939663
REMARK  6 active torsions:
REMARK  status: ('A' for Active; 'I' for Inactive)
REMARK    1  A    between atoms: C_1  and  C_2
REMARK    2  A    between atoms: C_2  and  C_4
REMARK    3  A    between atoms: C_2  and  N_16
REMARK    4  A    between atoms: N_9  and  C_10
REMARK    5  A    between atoms: N_19  and  C_22
REMARK    6  A    between atoms: C_25  and  O_28
REMARK                            x       y       z     vdW  Elec       q    Type
REMARK                         _______ _______ _______ _____ _____    ______ ____
ROOT
ATOM      1  C   UNL     1       0.381   1.408   0.532  0.00  0.00    -0.004 C 
ATOM      2  C   UNL     1       0.052  -0.011   0.064  0.00  0.00    +0.017 C 
ENDROOT
BRANCH   2   3
ATOM      3  C   UNL     1       0.817  -0.312  -1.200  0.00  0.00    +0.207 C 
ATOM      4  O   UNL     1       1.904  -0.845  -1.138  0.00  0.00    -0.277 OA
ATOM      5  N   UNL     1       0.292   0.011  -2.398  0.00  0.00    -0.242 N 
ATOM      6  C   UNL     1       0.975  -0.258  -3.528  0.00  0.00    +0.306 C 
ATOM      7  O   UNL     1       2.065  -0.793  -3.466  0.00  0.00    -0.252 OA
ATOM      8  N   UNL     1       0.451   0.065  -4.727  0.00  0.00    -0.296 N 
ATOM      9  H   UNL     1      -0.578   0.438  -2.448  0.00  0.00    +0.159 HD
ATOM     10  H   UNL     1      -0.419   0.492  -4.776  0.00  0.00    +0.151 HD
BRANCH   8  11
ATOM     11  C   UNL     1       1.193  -0.228  -5.955  0.00  0.00    +0.074 C 
ATOM     12  C   UNL     1       2.174   0.911  -6.242  0.00  0.00    +0.022 C 
ATOM     13  C   UNL     1       2.950   0.605  -7.524  0.00  0.00    +0.002 C 
ATOM     14  C   UNL     1       1.971   0.469  -8.692  0.00  0.00    +0.000 C 
ATOM     15  C   UNL     1       0.991  -0.670  -8.405  0.00  0.00    +0.002 C 
ATOM     16  C   UNL     1       0.215  -0.364  -7.123  0.00  0.00    +0.022 C 
ENDBRANCH   8  11
ENDBRANCH   2   3
BRANCH   2  17
ATOM     17  N   UNL     1       0.433  -0.972   1.107  0.00  0.00    +0.389 N 
ATOM     18  C   UNL     1       0.157  -2.336   0.638  0.00  0.00    -0.059 C 
ATOM     19  C   UNL     1       0.659  -3.343   1.678  0.00  0.00    +0.086 C 
ATOM     20  N   UNL     1       0.053  -3.014   2.977  0.00  0.00    -0.333 N 
ATOM     21  C   UNL     1       0.141  -1.623   3.450  0.00  0.00    +0.086 C 
ATOM     22  C   UNL     1      -0.336  -0.697   2.327  0.00  0.00    -0.059 C 
ATOM     23  H   UNL     1       1.419  -0.879   1.304  0.00  0.00    -0.081 HD
BRANCH  20  24
ATOM     24  C   UNL     1      -0.589  -3.994   3.741  0.00  0.00    +0.030 A 
ATOM     25  C   UNL     1      -0.555  -5.322   3.337  0.00  0.00    +0.026 A 
ATOM     26  C   UNL     1      -1.188  -6.290   4.093  0.00  0.00    +0.047 A 
ATOM     27  C   UNL     1      -1.859  -5.935   5.254  0.00  0.00    +0.117 A 
ATOM     28  C   UNL     1      -1.893  -4.609   5.658  0.00  0.00    +0.047 A 
ATOM     29  C   UNL     1      -1.256  -3.641   4.907  0.00  0.00    +0.026 A 
BRANCH  27  30
ATOM     30  O   UNL     1      -2.482  -6.889   5.997  0.00  0.00    -0.507 OA
ATOM     31  H   UNL     1      -1.921  -7.287   6.676  0.00  0.00    +0.292 HD
ENDBRANCH  27  30
ENDBRANCH  20  24
ENDBRANCH   2  17
TORSDOF 5
