REMARK  Name = ZINC36243739
REMARK  8 active torsions:
REMARK  status: ('A' for Active; 'I' for Inactive)
REMARK    1  A    between atoms: C_1  and  C_2
REMARK    2  A    between atoms: C_5  and  N_22
REMARK    3  A    between atoms: C_8  and  C_21
REMARK    4  A    between atoms: C_9  and  C_11
REMARK    5  A    between atoms: C_14  and  C_17
REMARK    6  A    between atoms: C_17  and  C_18
REMARK    7  A    between atoms: C_17  and  C_19
REMARK    8  A    between atoms: C_17  and  C_20
REMARK                            x       y       z     vdW  Elec       q    Type
REMARK                         _______ _______ _______ _____ _____    ______ ____
ROOT
ATOM      1  C   UNL     1      -0.018   1.503   0.010  0.00  0.00    +0.064 C 
ATOM      2  C   UNL     1       0.002  -0.004   0.002  0.00  0.00    +0.022 A 
ATOM      3  C   UNL     1       0.005  -0.664  -1.174  0.00  0.00    +0.023 A 
ATOM      4  C   UNL     1       0.024  -2.068  -1.201  0.00  0.00    +0.028 A 
ATOM      5  C   UNL     1       0.039  -2.766  -0.026  0.00  0.00    +0.066 A 
ATOM      6  C   UNL     1       0.036  -2.056   1.200  0.00  0.00    +0.137 A 
ATOM      7  N   UNL     1       0.023  -0.686   1.187  0.00  0.00    -0.301 N 
ATOM      8  C   UNL     1       0.030  -0.270   2.489  0.00  0.00    +0.046 A 
ATOM      9  C   UNL     1       0.052  -1.389   3.266  0.00  0.00    +0.068 A 
ATOM     10  N   UNL     1       0.047  -2.462   2.460  0.00  0.00    -0.338 N 
ATOM     11  C   UNL     1       0.015   1.157   2.972  0.00  0.00    +0.066 C 
ATOM     12  H   UNL     1       0.060  -3.386   2.754  0.00  0.00    +0.167 HD
ENDROOT
BRANCH   9  13
ATOM     13  C   UNL     1       0.067  -1.416   4.750  0.00  0.00    +0.000 A 
ATOM     14  C   UNL     1       0.911  -0.561   5.457  0.00  0.00    +0.010 A 
ATOM     15  C   UNL     1       0.920  -0.591   6.837  0.00  0.00    +0.005 A 
ATOM     16  C   UNL     1       0.095  -1.467   7.518  0.00  0.00    -0.042 A 
ATOM     17  C   UNL     1      -0.744  -2.318   6.822  0.00  0.00    +0.005 A 
ATOM     18  C   UNL     1      -0.766  -2.293   5.442  0.00  0.00    +0.010 A 
BRANCH  16  19
ATOM     19  C   UNL     1       0.110  -1.494   9.025  0.00  0.00    -0.013 C 
ATOM     20  C   UNL     1      -0.284  -0.118   9.564  0.00  0.00    +0.015 C 
ATOM     21  C   UNL     1      -0.886  -2.542   9.525  0.00  0.00    +0.015 C 
ATOM     22  C   UNL     1       1.515  -1.851   9.514  0.00  0.00    +0.015 C 
ENDBRANCH  16  19
ENDBRANCH   9  13
BRANCH   5  23
ATOM     23  N   UNL     1       0.057  -4.162  -0.034  0.00  0.00    -0.355 N 
ATOM     24  H   UNL     1       0.059  -4.643  -0.877  0.00  0.00    +0.142 HD
ATOM     25  H   UNL     1       0.068  -4.652   0.803  0.00  0.00    +0.142 HD
ENDBRANCH   5  23
TORSDOF 3
