REMARK  Name = ZINC06015001
REMARK  13 active torsions:
REMARK  status: ('A' for Active; 'I' for Inactive)
REMARK    1  A    between atoms: C_1  and  C_2
REMARK    2  A    between atoms: C_2  and  C_3
REMARK    3  A    between atoms: C_2  and  C_4
REMARK    4  A    between atoms: C_2  and  N_5
REMARK    5  A    between atoms: C_6  and  C_10
REMARK    6  A    between atoms: C_10  and  C_12
REMARK    7  A    between atoms: C_10  and  N_71
REMARK    8  A    between atoms: C_16  and  O_26
REMARK    9  A    between atoms: C_17  and  O_24
REMARK   10  A    between atoms: O_24  and  C_25
REMARK   11  A    between atoms: O_26  and  C_27
REMARK   12  A    between atoms: N_30  and  C_33
REMARK   13  A    between atoms: C_36  and  O_39
REMARK                            x       y       z     vdW  Elec       q    Type
REMARK                         _______ _______ _______ _____ _____    ______ ____
ROOT
ATOM      1  C   UNL     1      -5.133   3.812   0.049  0.00  0.00    +0.039 C 
ENDROOT
BRANCH   1   2
ATOM      2  C   UNL     1      -3.901   2.945   0.088  0.00  0.00    +0.011 A 
ATOM      3  C   UNL     1      -3.600   2.150  -0.970  0.00  0.00    +0.017 A 
ATOM      4  C   UNL     1      -2.397   1.321  -0.902  0.00  0.00    +0.002 A 
ATOM      5  C   UNL     1      -2.038   0.481  -1.964  0.00  0.00    +0.059 A 
ATOM      6  C   UNL     1      -0.899  -0.288  -1.870  0.00  0.00    +0.162 A 
ATOM      7  C   UNL     1      -0.104  -0.233  -0.721  0.00  0.00    +0.163 A 
ATOM      8  C   UNL     1      -0.450   0.593   0.333  0.00  0.00    +0.075 A 
ATOM      9  C   UNL     1      -1.598   1.371   0.257  0.00  0.00    +0.053 A 
ATOM     10  N   UNL     1      -1.957   2.205   1.296  0.00  0.00    -0.322 N 
ATOM     11  H   UNL     1      -1.385   2.246   2.115  0.00  0.00    +0.169 HD
ATOM     12  C   UNL     1      -3.065   2.963   1.223  0.00  0.00    +0.251 A 
ATOM     13  O   UNL     1      -3.354   3.685   2.162  0.00  0.00    -0.268 OA
BRANCH   7  14
ATOM     14  O   UNL     1       1.016  -0.996  -0.639  0.00  0.00    -0.491 OA
ATOM     15  C   UNL     1       1.784  -0.895   0.561  0.00  0.00    +0.277 C 
ENDBRANCH   7  14
BRANCH   6  16
ATOM     16  O   UNL     1      -0.547  -1.105  -2.899  0.00  0.00    -0.491 OA
ATOM     17  C   UNL     1      -1.403  -1.113  -4.043  0.00  0.00    +0.277 C 
ENDBRANCH   6  16
ENDBRANCH   1   2
BRANCH   1  23
ATOM     18  C   UNL     1      -6.341   2.005   1.117  0.00  0.00    -0.058 C 
ATOM     19  C   UNL     1      -7.209   1.644   2.325  0.00  0.00    +0.086 C 
ATOM     20  N   UNL     1      -8.438   2.450   2.300  0.00  0.00    -0.333 N 
ATOM     21  C   UNL     1      -8.125   3.885   2.336  0.00  0.00    +0.086 C 
ATOM     22  C   UNL     1      -7.257   4.246   1.128  0.00  0.00    -0.058 C 
ATOM     23  N   UNL     1      -6.015   3.446   1.178  0.00  0.00    +0.391 N 
ATOM     24  H   UNL     1      -5.527   3.641   2.060  0.00  0.00    -0.080 HD
BRANCH  20  25
ATOM     25  C   UNL     1      -9.291   2.096   3.352  0.00  0.00    +0.030 A 
ATOM     26  C   UNL     1      -9.716   3.060   4.255  0.00  0.00    +0.026 A 
ATOM     27  C   UNL     1     -10.563   2.711   5.290  0.00  0.00    +0.047 A 
ATOM     28  C   UNL     1     -10.978   1.395   5.432  0.00  0.00    +0.117 A 
ATOM     29  C   UNL     1     -10.549   0.430   4.533  0.00  0.00    +0.047 A 
ATOM     30  C   UNL     1      -9.707   0.779   3.495  0.00  0.00    +0.026 A 
BRANCH  28  31
ATOM     31  O   UNL     1     -11.806   1.051   6.455  0.00  0.00    -0.507 OA
ATOM     32  H   UNL     1     -11.345   0.786   7.262  0.00  0.00    +0.292 HD
ENDBRANCH  28  31
ENDBRANCH  20  25
ENDBRANCH   1  23
BRANCH   1  34
ATOM     33  N   UNL     1      -5.914   4.492  -2.281  0.00  0.00    -0.225 N 
ATOM     34  C   UNL     1      -5.845   3.614  -1.264  0.00  0.00    +0.143 A 
ATOM     35  N   UNL     1      -6.523   2.555  -1.634  0.00  0.00    -0.115 NA
ATOM     36  N   UNL     1      -6.980   2.769  -2.820  0.00  0.00    -0.023 NA
ATOM     37  N   UNL     1      -6.611   3.938  -3.215  0.00  0.00    -0.043 NA
BRANCH  33  39
ATOM     38  C   UNL     1      -3.802   5.710  -2.079  0.00  0.00    +0.036 C 
ATOM     39  C   UNL     1      -5.309   5.826  -2.322  0.00  0.00    +0.059 C 
ATOM     40  C   UNL     1      -5.557   6.456  -3.694  0.00  0.00    +0.036 C 
ATOM     41  C   UNL     1      -5.934   6.703  -1.236  0.00  0.00    +0.036 C 
ENDBRANCH  33  39
ENDBRANCH   1  34
TORSDOF 8
