REMARK  Name = ZINC52066933
REMARK  9 active torsions:
REMARK  status: ('A' for Active; 'I' for Inactive)
REMARK    1  A    between atoms: C_1  and  C_2
REMARK    2  A    between atoms: C_2  and  C_4
REMARK    3  A    between atoms: C_2  and  N_22
REMARK    4  A    between atoms: C_9  and  O_10
REMARK    5  A    between atoms: O_10  and  C_11
REMARK    6  A    between atoms: C_11  and  C_13
REMARK    7  A    between atoms: C_11  and  C_14
REMARK    8  A    between atoms: N_19  and  C_20
REMARK    9  A    between atoms: N_22  and  C_23
REMARK                            x       y       z     vdW  Elec       q    Type
REMARK                         _______ _______ _______ _____ _____    ______ ____
ROOT
ATOM      1  C   UNL     1       0.781  -0.303   1.296  0.00  0.00    -0.019 A 
ATOM      2  C   UNL     1       2.127  -0.609   1.222  0.00  0.00    +0.020 A 
ATOM      3  C   UNL     1       2.746  -1.267   2.269  0.00  0.00    +0.018 A 
ATOM      4  C   UNL     1       2.019  -1.622   3.392  0.00  0.00    +0.019 A 
ATOM      5  C   UNL     1       0.674  -1.318   3.470  0.00  0.00    +0.047 A 
ATOM      6  C   UNL     1       0.053  -0.652   2.424  0.00  0.00    +0.123 A 
ATOM      7 BR   UNL     1       4.587  -1.685   2.165  0.00  0.00    -0.050 Br
ENDROOT
BRANCH   1   9
ATOM      8  C   UNL     1       0.097   1.919   0.434  0.00  0.00    -0.009 C 
ATOM      9  C   UNL     1       0.107   0.415   0.155  0.00  0.00    -0.041 C 
BRANCH   9  10
ATOM     10  N   UNL     1       0.842   0.153  -1.090  0.00  0.00    +0.382 N 
ATOM     11  C   UNL     1       0.119   0.753  -2.220  0.00  0.00    -0.100 C 
ATOM     12  H   UNL     1       1.764   0.557  -1.028  0.00  0.00    -0.085 HD
ATOM     13  H   UNL     1       0.919  -0.843  -1.231  0.00  0.00    -0.085 HD
ENDBRANCH   9  10
ENDBRANCH   1   9
BRANCH   6  14
ATOM     14  O   UNL     1      -1.270  -0.348   2.501  0.00  0.00    -0.480 OA
BRANCH  14  15
ATOM     15  C   UNL     1      -1.931  -0.634   3.735  0.00  0.00    +0.256 C 
ATOM     16  C   UNL     1      -2.389  -2.093   3.742  0.00  0.00    +0.062 C 
BRANCH  15  17
ATOM     17  C   UNL     1      -3.128   0.269   3.885  0.00  0.00    +0.261 C 
ATOM     18  O   UNL     1      -3.442   1.014   2.981  0.00  0.00    -0.271 OA
ATOM     19  N   UNL     1      -3.849   0.249   5.023  0.00  0.00    -0.237 N 
ATOM     20  C   UNL     1      -4.920   1.057   5.157  0.00  0.00    +0.306 C 
ATOM     21  O   UNL     1      -5.235   1.803   4.251  0.00  0.00    -0.252 OA
ATOM     22  N   UNL     1      -5.641   1.036   6.295  0.00  0.00    -0.302 N 
ATOM     23  C   UNL     1      -6.805   1.914   6.441  0.00  0.00    +0.129 C 
ATOM     24  H   UNL     1      -3.597  -0.346   5.746  0.00  0.00    +0.159 HD
ATOM     25  H   UNL     1      -5.389   0.441   7.018  0.00  0.00    +0.150 HD
ENDBRANCH  15  17
ENDBRANCH  14  15
ENDBRANCH   6  14
TORSDOF 5
