REMARK  Name = ZINC65470142
REMARK  12 active torsions:
REMARK  status: ('A' for Active; 'I' for Inactive)
REMARK    1  A    between atoms: C_1  and  C_2
REMARK    2  A    between atoms: C_5  and  C_8
REMARK    3  A    between atoms: C_8  and  C_9
REMARK    4  A    between atoms: C_8  and  N_26
REMARK    5  A    between atoms: C_9  and  N_10
REMARK    6  A    between atoms: N_16  and  C_19
REMARK    7  A    between atoms: C_19  and  C_20
REMARK    8  A    between atoms: N_22  and  C_23
REMARK    9  A    between atoms: C_23  and  C_24
REMARK   10  A    between atoms: C_23  and  C_25
REMARK   11  A    between atoms: N_26  and  C_27
REMARK   12  A    between atoms: N_26  and  C_28
REMARK                            x       y       z     vdW  Elec       q    Type
REMARK                         _______ _______ _______ _____ _____    ______ ____
ROOT
ATOM      1  N   UNL     1       1.486  -5.680   0.704  0.00  0.00    -0.300 N 
ATOM      2  C   UNL     1       2.690  -6.074   1.165  0.00  0.00    +0.302 C 
ATOM      3  O   UNL     1       3.623  -5.294   1.172  0.00  0.00    -0.253 OA
ATOM      4  N   UNL     1       2.859  -7.331   1.619  0.00  0.00    -0.283 N 
ATOM      5  C   UNL     1       4.130  -7.747   2.233  0.00  0.00    +0.124 C 
ATOM      6  C   UNL     1       3.825  -8.407   3.582  0.00  0.00    +0.104 C 
ATOM      7  N   UNL     1       2.847  -9.485   3.387  0.00  0.00    -0.291 NA
ATOM      8  C   UNL     1       1.567  -8.961   2.892  0.00  0.00    +0.104 C 
ATOM      9  C   UNL     1       1.777  -8.322   1.520  0.00  0.00    +0.124 C 
ATOM     10  H   UNL     1       0.761  -6.321   0.632  0.00  0.00    +0.150 HD
ENDROOT
BRANCH   1  11
ATOM     11  C   UNL     1       1.273  -4.285   0.310  0.00  0.00    +0.095 C 
BRANCH  11  12
ATOM     12  C   UNL     1      -0.198  -4.079  -0.058  0.00  0.00    -0.021 C 
BRANCH  12  17
ATOM     13  C   UNL     1      -1.506  -7.306  -4.669  0.00  0.00    +0.044 C 
ATOM     14  C   UNL     1      -1.164  -6.465  -3.467  0.00  0.00    -0.050 A 
ATOM     15  C   UNL     1      -1.505  -6.900  -2.200  0.00  0.00    +0.003 A 
ATOM     16  C   UNL     1      -1.192  -6.128  -1.097  0.00  0.00    +0.002 A 
ATOM     17  C   UNL     1      -0.538  -4.921  -1.260  0.00  0.00    -0.059 A 
ATOM     18  C   UNL     1      -0.196  -4.487  -2.528  0.00  0.00    +0.002 A 
ATOM     19  C   UNL     1      -0.506  -5.261  -3.630  0.00  0.00    +0.003 A 
ENDBRANCH  12  17
BRANCH  12  20
ATOM     20  N   UNL     1      -0.430  -2.662  -0.371  0.00  0.00    +0.382 N 
ATOM     21  C   UNL     1      -1.858  -2.447  -0.638  0.00  0.00    -0.096 C 
ATOM     22  C   UNL     1      -0.015  -1.835   0.770  0.00  0.00    -0.096 C 
ATOM     23  H   UNL     1       0.107  -2.405  -1.185  0.00  0.00    -0.082 HD
ENDBRANCH  12  20
ENDBRANCH  11  12
ENDBRANCH   1  11
BRANCH   7  24
ATOM     24  C   UNL     1       2.657 -10.254   4.624  0.00  0.00    +0.180 C 
BRANCH  24  25
ATOM     25  C   UNL     1       1.845 -11.489   4.329  0.00  0.00    +0.227 C 
ATOM     26  O   UNL     1       1.462 -11.707   3.199  0.00  0.00    -0.274 OA
ATOM     27  N   UNL     1       1.544 -12.351   5.320  0.00  0.00    -0.312 N 
ATOM     28  H   UNL     1       1.850 -12.176   6.224  0.00  0.00    +0.149 HD
BRANCH  27  29
ATOM     29  C   UNL     1       0.755 -13.551   5.033  0.00  0.00    +0.067 C 
ATOM     30  C   UNL     1       1.063 -14.626   6.078  0.00  0.00    +0.027 C 
ATOM     31  C   UNL     1      -0.735 -13.206   5.080  0.00  0.00    +0.027 C 
ENDBRANCH  27  29
ENDBRANCH  24  25
ENDBRANCH   7  24
TORSDOF 7
