REMARK  Name = ZINC53169354
REMARK  3 active torsions:
REMARK  status: ('A' for Active; 'I' for Inactive)
REMARK    1  A    between atoms: C_1  and  N_2
REMARK    2  A    between atoms: C_6  and  C_7
REMARK    3  A    between atoms: C_7  and  N_8
REMARK                            x       y       z     vdW  Elec       q    Type
REMARK                         _______ _______ _______ _____ _____    ______ ____
ROOT
ATOM      1  N   UNL     1      -1.202  -0.205   2.721  0.00  0.00    -0.310 N 
ATOM      2  C   UNL     1      -1.928   0.946   2.420  0.00  0.00    +0.106 A 
ATOM      3  C   UNL     1      -3.222   0.744   2.903  0.00  0.00    +0.068 A 
ATOM      4  C   UNL     1      -4.181   1.733   2.746  0.00  0.00    +0.031 A 
ATOM      5  C   UNL     1      -3.853   2.916   2.112  0.00  0.00    +0.043 A 
ATOM      6  C   UNL     1      -2.570   3.119   1.632  0.00  0.00    +0.161 A 
ATOM      7  C   UNL     1      -1.605   2.136   1.784  0.00  0.00    +0.184 A 
ATOM      8  F   UNL     1      -0.354   2.336   1.314  0.00  0.00    -0.200 F 
ATOM      9  F   UNL     1      -2.257   4.278   1.012  0.00  0.00    -0.202 F 
ATOM     10  N   UNL     1      -3.243  -0.523   3.482  0.00  0.00    -0.334 N 
ATOM     11  C   UNL     1      -2.019  -1.069   3.352  0.00  0.00    +0.159 A 
ATOM     12  S   UNL     1      -1.569  -2.624   3.909  0.00  0.00    -0.013 S 
ATOM     13  H   UNL     1      -4.009  -0.942   3.905  0.00  0.00    +0.168 HD
ENDROOT
BRANCH   1  14
ATOM     14  C   UNL     1       0.208  -0.438   2.399  0.00  0.00    +0.200 C 
BRANCH  14  20
ATOM     15  C   UNL     1       1.568  -1.890   4.814  0.00  0.00    +0.151 C 
ATOM     16  N   UNL     1       1.657  -0.462   4.503  0.00  0.00    -0.319 N 
ATOM     17  C   UNL     1       2.342   0.482   5.194  0.00  0.00    +0.224 A 
ATOM     18  N   UNL     1       2.158   1.620   4.582  0.00  0.00    -0.138 NA
ATOM     19  N   UNL     1       1.403   1.444   3.556  0.00  0.00    -0.133 NA
ATOM     20  C   UNL     1       1.075   0.184   3.463  0.00  0.00    +0.153 A 
ENDBRANCH  14  20
ENDBRANCH   1  14
TORSDOF 2
