REMARK  Name = ZINC20257393
REMARK  4 active torsions:
REMARK  status: ('A' for Active; 'I' for Inactive)
REMARK    1  A    between atoms: C_1  and  C_2
REMARK    2  A    between atoms: C_2  and  C_3
REMARK    3  A    between atoms: C_3  and  N_4
REMARK    4  A    between atoms: N_11  and  O_12
REMARK                            x       y       z     vdW  Elec       q    Type
REMARK                         _______ _______ _______ _____ _____    ______ ____
ROOT
ATOM      1  N   UNL     1      -0.849   5.218  -1.897  0.00  0.00    -0.299 N 
ATOM      2  C   UNL     1      -0.542   3.909  -1.994  0.00  0.00    +0.302 C 
ATOM      3  O   UNL     1       0.148   3.513  -2.913  0.00  0.00    -0.253 OA
ATOM      4  N   UNL     1      -1.001   3.040  -1.071  0.00  0.00    -0.285 N 
ATOM      5  C   UNL     1      -0.768   1.599  -1.229  0.00  0.00    +0.115 C 
ATOM      6  C   UNL     1      -0.015   1.082   0.003  0.00  0.00    +0.073 C 
ATOM      7  C   UNL     1      -0.729   1.575   1.243  0.00  0.00    +0.060 C 
ATOM      8  N   UNL     1      -1.088   0.759   2.161  0.00  0.00    -0.096 NA
ATOM      9  C   UNL     1      -1.009   3.057   1.370  0.00  0.00    +0.073 C 
ATOM     10  C   UNL     1      -1.738   3.524   0.103  0.00  0.00    +0.115 C 
ATOM     11  H   UNL     1      -1.403   5.590  -1.023  0.00  0.00    +0.150 HD
ENDROOT
BRANCH   8  12
ATOM     12  O   UNL     1      -1.756   1.239   3.313  0.00  0.00    -0.409 OA
ATOM     13  H   UNL     1      -2.064   0.538   4.103  0.00  0.00    +0.328 HD
ENDBRANCH   8  12
BRANCH   1  14
ATOM     14  C   UNL     1      -0.444   6.145  -2.957  0.00  0.00    +0.105 C 
BRANCH  14  16
ATOM     15  C   UNL     1      -0.489   8.527  -3.711  0.00  0.00    +0.005 C 
ATOM     16  C   UNL     1      -0.912   7.559  -2.604  0.00  0.00    +0.015 C 
ENDBRANCH  14  16
ENDBRANCH   1  14
TORSDOF 3
