REMARK  Name = ZINC43289272
REMARK  8 active torsions:
REMARK  status: ('A' for Active; 'I' for Inactive)
REMARK    1  A    between atoms: C_1  and  C_2
REMARK    2  A    between atoms: C_2  and  C_3
REMARK    3  A    between atoms: C_3  and  C_5
REMARK    4  A    between atoms: C_3  and  N_23
REMARK    5  A    between atoms: C_5  and  C_7
REMARK    6  A    between atoms: C_5  and  O_13
REMARK    7  A    between atoms: O_13  and  C_14
REMARK    8  A    between atoms: C_19  and  C_20
REMARK                            x       y       z     vdW  Elec       q    Type
REMARK                         _______ _______ _______ _____ _____    ______ ____
ROOT
ATOM      1  C   UNL     1       0.541  -2.013   1.355  0.00  0.00    +0.196 C 
ENDROOT
BRANCH   1   2
ATOM      2  C   UNL     1       0.951  -2.672   2.647  0.00  0.00    +0.029 A 
ATOM      3  C   UNL     1       0.198  -2.952   3.739  0.00  0.00    +0.030 A 
ATOM      4  C   UNL     1       0.793  -3.569   4.824  0.00  0.00    +0.025 A 
ATOM      5  C   UNL     1       2.112  -3.875   4.763  0.00  0.00    +0.060 A 
ATOM      6  S   UNL     1       2.552  -3.294   3.133  0.00  0.00    -0.097 S 
ATOM      7 BR   UNL     1      -0.217  -3.978   6.369  0.00  0.00    -0.050 Br
ENDBRANCH   1   2
BRANCH   1   8
ATOM      8  C   UNL     1       0.964  -0.543   1.376  0.00  0.00    -0.029 C 
BRANCH   8   9
ATOM      9  N   UNL     1       2.417  -0.454   1.570  0.00  0.00    +0.383 N 
ATOM     10  H   UNL     1       2.696   0.515   1.584  0.00  0.00    -0.089 HD
ATOM     11  H   UNL     1       2.667  -0.888   2.446  0.00  0.00    -0.089 HD
ATOM     12  H   UNL     1       2.887  -0.929   0.814  0.00  0.00    -0.089 HD
ENDBRANCH   8   9
BRANCH   8  14
ATOM     13  C   UNL     1       0.903   1.611   0.111  0.00  0.00    +0.002 C 
ATOM     14  C   UNL     1       0.586   0.115   0.048  0.00  0.00    -0.016 C 
ENDBRANCH   8  14
ENDBRANCH   1   8
BRANCH   1  15
ATOM     15  O   UNL     1       1.176  -2.676   0.260  0.00  0.00    -0.485 OA
BRANCH  15  16
ATOM     16  C   UNL     1       0.570  -3.791  -0.220  0.00  0.00    +0.133 A 
ATOM     17  C   UNL     1      -0.547  -4.307   0.419  0.00  0.00    +0.046 A 
ATOM     18  C   UNL     1      -1.163  -5.442  -0.070  0.00  0.00    +0.004 A 
ATOM     19  C   UNL     1      -0.670  -6.073  -1.201  0.00  0.00    +0.001 A 
ATOM     20  C   UNL     1       0.438  -5.574  -1.849  0.00  0.00    +0.017 A 
ATOM     21  C   UNL     1       1.067  -4.423  -1.368  0.00  0.00    +0.078 A 
BRANCH  21  22
ATOM     22  C   UNL     1       2.252  -3.880  -2.060  0.00  0.00    +0.245 C 
ATOM     23  O   UNL     1       2.799  -2.882  -1.635  0.00  0.00    -0.270 OA
ATOM     24  N   UNL     1       2.726  -4.492  -3.163  0.00  0.00    -0.325 N 
ATOM     25  H   UNL     1       2.289  -5.289  -3.502  0.00  0.00    +0.145 HD
ATOM     26  H   UNL     1       3.505  -4.135  -3.619  0.00  0.00    +0.145 HD
ENDBRANCH  21  22
ENDBRANCH  15  16
ENDBRANCH   1  15
TORSDOF 7
