REMARK  Name = ZINC39354516
REMARK  3 active torsions:
REMARK  status: ('A' for Active; 'I' for Inactive)
REMARK    1  A    between atoms: C_6  and  N_10
REMARK    2  A    between atoms: N_10  and  N_11
REMARK    3  A    between atoms: C_12  and  C_13
REMARK                            x       y       z     vdW  Elec       q    Type
REMARK                         _______ _______ _______ _____ _____    ______ ____
ROOT
ATOM      1  C   UNL     1      -0.016   1.344   0.009  0.00  0.00    +0.002 A 
ATOM      2  C   UNL     1       1.158   2.118   0.002  0.00  0.00    +0.002 A 
ATOM      3  C   UNL     1       2.389   1.570  -0.013  0.00  0.00    +0.027 A 
ATOM      4  C   UNL     1       2.533   0.108  -0.022  0.00  0.00    +0.061 A 
ATOM      5  N   UNL     1       3.569  -0.680  -0.036  0.00  0.00    -0.347 N 
ATOM      6  C   UNL     1       3.071  -2.062  -0.039  0.00  0.00    +0.283 C 
ATOM      7  N   UNL     1       1.606  -1.974  -0.024  0.00  0.00    -0.347 N 
ATOM      8  C   UNL     1       1.290  -0.712  -0.014  0.00  0.00    +0.061 A 
ATOM      9  C   UNL     1       0.002  -0.004   0.002  0.00  0.00    +0.027 A 
ATOM     10  H   UNL     1       4.499  -0.405  -0.045  0.00  0.00    +0.163 HD
ATOM     11  H   UNL     1       0.987  -2.721  -0.022  0.00  0.00    +0.163 HD
ENDROOT
BRANCH   6  12
ATOM     12  N   UNL     1       3.522  -2.756  -1.248  0.00  0.00    -0.229 N 
ATOM     13  H   UNL     1       3.667  -2.257  -2.067  0.00  0.00    +0.172 HD
BRANCH  12  14
ATOM     14  N   UNL     1       3.741  -4.139  -1.221  0.00  0.00    -0.188 NA
ATOM     15  C   UNL     1       4.141  -4.755  -2.294  0.00  0.00    +0.176 C 
BRANCH  15  16
ATOM     16  C   UNL     1       4.370  -6.204  -2.265  0.00  0.00    +0.149 A 
ATOM     17  C   UNL     1       4.793  -6.969  -3.313  0.00  0.00    +0.052 A 
ATOM     18  C   UNL     1       4.877  -8.292  -2.840  0.00  0.00    +0.056 A 
ATOM     19  C   UNL     1       4.507  -8.274  -1.543  0.00  0.00    +0.165 A 
ATOM     20  O   UNL     1       4.207  -7.011  -1.198  0.00  0.00    -0.448 OA
ATOM     21  I   UNL     1       4.421  -9.939  -0.275  0.00  0.00    -0.001 I 
ENDBRANCH  15  16
ENDBRANCH  12  14
ENDBRANCH   6  12
TORSDOF 3
