REMARK  Name = ZINC62704380
REMARK  12 active torsions:
REMARK  status: ('A' for Active; 'I' for Inactive)
REMARK    1  A    between atoms: C_1  and  C_2
REMARK    2  A    between atoms: C_2  and  C_3
REMARK    3  A    between atoms: C_3  and  C_4
REMARK    4  A    between atoms: C_4  and  N_5
REMARK    5  A    between atoms: C_6  and  C_8
REMARK    6  A    between atoms: C_8  and  C_10
REMARK    7  A    between atoms: C_8  and  O_11
REMARK    8  A    between atoms: O_11  and  C_12
REMARK    9  A    between atoms: C_15  and  C_19
REMARK   10  A    between atoms: C_19  and  C_20
REMARK   11  A    between atoms: C_20  and  C_22
REMARK   12  A    between atoms: C_20  and  N_23
REMARK                            x       y       z     vdW  Elec       q    Type
REMARK                         _______ _______ _______ _____ _____    ______ ____
ROOT
ATOM      1  C   UNL     1      -5.522  -6.430  -0.626  0.00  0.00    +0.136 A 
ATOM      2  C   UNL     1      -6.562  -5.647  -1.105  0.00  0.00    +0.047 A 
ATOM      3  C   UNL     1      -7.689  -6.245  -1.634  0.00  0.00    +0.007 A 
ATOM      4  C   UNL     1      -7.782  -7.624  -1.687  0.00  0.00    -0.048 A 
ATOM      5  C   UNL     1      -6.747  -8.408  -1.211  0.00  0.00    +0.022 A 
ATOM      6  C   UNL     1      -5.615  -7.814  -0.685  0.00  0.00    +0.060 A 
ATOM      7 BR   UNL     1      -4.196  -8.886  -0.042  0.00  0.00    -0.047 Br
ENDROOT
BRANCH   1   8
ATOM      8  O   UNL     1      -4.413  -5.844  -0.105  0.00  0.00    -0.479 OA
BRANCH   8   9
ATOM      9  C   UNL     1      -4.330  -4.420  -0.191  0.00  0.00    +0.255 C 
ATOM     10  C   UNL     1      -5.071  -3.794   0.993  0.00  0.00    +0.062 C 
BRANCH   9  12
ATOM     11  N   UNL     1      -2.557  -2.701  -0.328  0.00  0.00    -0.312 N 
ATOM     12  C   UNL     1      -2.884  -3.997  -0.158  0.00  0.00    +0.254 C 
ATOM     13  O   UNL     1      -2.015  -4.824   0.021  0.00  0.00    -0.272 OA
ATOM     14  H   UNL     1      -3.252  -2.040  -0.471  0.00  0.00    +0.149 HD
BRANCH  11  15
ATOM     15  C   UNL     1      -1.151  -2.290  -0.297  0.00  0.00    +0.104 C 
BRANCH  15  16
ATOM     16  C   UNL     1      -1.056  -0.779  -0.514  0.00  0.00    +0.018 C 
BRANCH  16  18
ATOM     17  C   UNL     1       0.507   1.162  -0.698  0.00  0.00    +0.004 C 
ATOM     18  C   UNL     1       0.412  -0.350  -0.481  0.00  0.00    -0.002 C 
ENDBRANCH  16  18
ENDBRANCH  15  16
ENDBRANCH  11  15
ENDBRANCH   9  12
ENDBRANCH   8   9
ENDBRANCH   1   8
BRANCH   4  19
ATOM     19  C   UNL     1      -9.013  -8.274  -2.265  0.00  0.00    +0.019 C 
BRANCH  19  20
ATOM     20  C   UNL     1      -8.821  -8.484  -3.768  0.00  0.00    -0.074 C 
ATOM     21  C   UNL     1     -10.016  -9.255  -4.332  0.00  0.00    -0.014 C 
BRANCH  20  22
ATOM     22  N   UNL     1      -8.720  -7.179  -4.436  0.00  0.00    +0.380 N 
ATOM     23  H   UNL     1      -7.932  -6.671  -4.064  0.00  0.00    -0.090 HD
ATOM     24  H   UNL     1      -8.594  -7.318  -5.427  0.00  0.00    -0.090 HD
ATOM     25  H   UNL     1      -9.566  -6.653  -4.275  0.00  0.00    -0.090 HD
ENDBRANCH  20  22
ENDBRANCH  19  20
ENDBRANCH   4  19
TORSDOF 9
