REMARK  Name = ZINC45544801
REMARK  6 active torsions:
REMARK  status: ('A' for Active; 'I' for Inactive)
REMARK    1  A    between atoms: C_1  and  C_2
REMARK    2  A    between atoms: C_2  and  C_3
REMARK    3  A    between atoms: C_2  and  C_16
REMARK    4  A    between atoms: C_2  and  N_19
REMARK    5  A    between atoms: C_3  and  O_4
REMARK    6  A    between atoms: O_4  and  C_5
REMARK                            x       y       z     vdW  Elec       q    Type
REMARK                         _______ _______ _______ _____ _____    ______ ____
ROOT
ATOM      1  C   UNL     1       0.742  -0.511   1.242  0.00  0.00    +0.225 C 
ENDROOT
BRANCH   1   3
ATOM      2  C   UNL     1      -0.019   1.526   0.010  0.00  0.00    +0.002 C 
ATOM      3  C   UNL     1       0.002  -0.004   0.002  0.00  0.00    +0.039 C 
BRANCH   3   4
ATOM      4  C   UNL     1      -1.412  -0.526   0.013  0.00  0.00    +0.202 C 
ATOM      5  O   UNL     1      -1.939  -0.827   1.062  0.00  0.00    -0.277 OA
ATOM      6  N   UNL     1      -2.090  -0.657  -1.144  0.00  0.00    -0.330 N 
ATOM      7  H   UNL     1      -1.669  -0.416  -1.984  0.00  0.00    +0.145 HD
ATOM      8  H   UNL     1      -3.000  -0.993  -1.137  0.00  0.00    +0.145 HD
ENDBRANCH   3   4
BRANCH   3   9
ATOM      9  N   UNL     1       0.690  -0.478  -1.207  0.00  0.00    +0.390 N 
ATOM     10  H   UNL     1       1.636  -0.129  -1.214  0.00  0.00    -0.088 HD
ATOM     11  H   UNL     1       0.703  -1.487  -1.212  0.00  0.00    -0.088 HD
ATOM     12  H   UNL     1       0.202  -0.144  -2.024  0.00  0.00    -0.088 HD
ENDBRANCH   3   9
ENDBRANCH   1   3
BRANCH   1  13
ATOM     13  O   UNL     1       2.083  -0.016   1.231  0.00  0.00    -0.487 OA
BRANCH  13  14
ATOM     14  C   UNL     1       2.882  -0.377   2.272  0.00  0.00    +0.197 A 
ATOM     15  C   UNL     1       2.931   0.409   3.414  0.00  0.00    +0.206 A 
ATOM     16  C   UNL     1       3.745   0.041   4.473  0.00  0.00    +0.200 A 
ATOM     17  C   UNL     1       4.510  -1.112   4.392  0.00  0.00    +0.199 A 
ATOM     18  C   UNL     1       4.462  -1.897   3.251  0.00  0.00    +0.200 A 
ATOM     19  C   UNL     1       3.644  -1.534   2.193  0.00  0.00    +0.206 A 
ATOM     20  F   UNL     1       3.594  -2.303   1.083  0.00  0.00    -0.198 F 
ATOM     21  F   UNL     1       5.209  -3.020   3.173  0.00  0.00    -0.199 F 
ATOM     22  F   UNL     1       5.303  -1.470   5.425  0.00  0.00    -0.199 F 
ATOM     23  F   UNL     1       3.793   0.806   5.586  0.00  0.00    -0.199 F 
ATOM     24  F   UNL     1       2.186   1.533   3.494  0.00  0.00    -0.198 F 
ENDBRANCH  13  14
ENDBRANCH   1  13
TORSDOF 5
