REMARK  Name = ZINC25526106
REMARK  8 active torsions:
REMARK  status: ('A' for Active; 'I' for Inactive)
REMARK    1  A    between atoms: C_1  and  C_2
REMARK    2  A    between atoms: N_4  and  C_5
REMARK    3  A    between atoms: C_5  and  C_7
REMARK    4  A    between atoms: C_5  and  C_18
REMARK    5  A    between atoms: C_7  and  C_8
REMARK    6  A    between atoms: N_20  and  C_21
REMARK    7  A    between atoms: C_21  and  C_22
REMARK    8  A    between atoms: C_22  and  C_23
REMARK                            x       y       z     vdW  Elec       q    Type
REMARK                         _______ _______ _______ _____ _____    ______ ____
ROOT
ATOM      1  C   UNL     1      -1.136  -2.159   0.001  0.00  0.00    +0.163 C 
ENDROOT
BRANCH   1   5
ATOM      2  C   UNL     1      -0.018   1.503   0.010  0.00  0.00    +0.109 C 
ATOM      3  C   UNL     1       0.002  -0.004   0.002  0.00  0.00    +0.211 C 
ATOM      4  O   UNL     1       1.060  -0.596  -0.011  0.00  0.00    -0.276 OA
ATOM      5  N   UNL     1      -1.156  -0.694   0.009  0.00  0.00    -0.304 N 
ATOM      6  H   UNL     1      -2.002  -0.220   0.020  0.00  0.00    +0.149 HD
ENDBRANCH   1   5
BRANCH   1   7
ATOM      7  C   UNL     1      -0.407  -2.658   1.222  0.00  0.00    +0.234 C 
ATOM      8  O   UNL     1       0.350  -1.922   1.819  0.00  0.00    -0.274 OA
ATOM      9  N   UNL     1      -0.597  -3.922   1.651  0.00  0.00    -0.313 N 
ATOM     10  H   UNL     1      -1.202  -4.510   1.173  0.00  0.00    +0.149 HD
BRANCH   9  11
ATOM     11  C   UNL     1       0.112  -4.407   2.837  0.00  0.00    +0.110 C 
BRANCH  11  12
ATOM     12  C   UNL     1      -0.279  -5.862   3.105  0.00  0.00    +0.073 C 
BRANCH  12  13
ATOM     13  C   UNL     1       0.450  -6.361   4.326  0.00  0.00    +0.036 A 
ATOM     14  C   UNL     1       1.702  -6.869   4.344  0.00  0.00    +0.113 A 
ATOM     15  N   UNL     1       1.985  -7.200   5.641  0.00  0.00    -0.308 N 
ATOM     16  C   UNL     1       3.087  -7.744   6.235  0.00  0.00    +0.092 A 
ATOM     17  C   UNL     1       3.107  -7.974   7.565  0.00  0.00    +0.018 A 
ATOM     18  C   UNL     1       1.991  -7.657   8.356  0.00  0.00    +0.005 A 
ATOM     19  C   UNL     1       0.886  -7.114   7.777  0.00  0.00    +0.045 A 
ATOM     20  C   UNL     1       0.881  -6.880   6.387  0.00  0.00    +0.115 A 
ATOM     21  N   UNL     1      -0.031  -6.369   5.571  0.00  0.00    -0.343 N 
ATOM     22  H   UNL     1      -0.909  -6.054   5.837  0.00  0.00    +0.167 HD
ENDBRANCH  12  13
ENDBRANCH  11  12
ENDBRANCH   9  11
ENDBRANCH   1   7
BRANCH   1  23
ATOM     23  C   UNL     1      -0.420  -2.652  -1.258  0.00  0.00    +0.069 C 
BRANCH  23  24
ATOM     24  C   UNL     1      -1.215  -2.257  -2.475  0.00  0.00    -0.020 A 
ATOM     25  C   UNL     1      -2.119  -3.013  -3.118  0.00  0.00    +0.087 A 
ATOM     26  N   UNL     1      -2.637  -2.321  -4.178  0.00  0.00    -0.360 N 
ATOM     27  H   UNL     1      -3.308  -2.660  -4.792  0.00  0.00    +0.165 HD
ATOM     28  C   UNL     1      -2.064  -1.071  -4.246  0.00  0.00    +0.047 A 
ATOM     29  C   UNL     1      -1.153  -0.974  -3.178  0.00  0.00    +0.003 A 
ATOM     30  C   UNL     1      -0.421   0.200  -2.992  0.00  0.00    +0.010 A 
ATOM     31  C   UNL     1      -0.596   1.252  -3.847  0.00  0.00    +0.001 A 
ATOM     32  C   UNL     1      -1.496   1.163  -4.899  0.00  0.00    +0.002 A 
ATOM     33  C   UNL     1      -2.222   0.010  -5.107  0.00  0.00    +0.026 A 
ENDBRANCH  23  24
ENDBRANCH   1  23
TORSDOF 7
