REMARK  Name = ZINC45409926
REMARK  5 active torsions:
REMARK  status: ('A' for Active; 'I' for Inactive)
REMARK    1  A    between atoms: C_3  and  C_19
REMARK    2  A    between atoms: N_9  and  C_10
REMARK    3  A    between atoms: N_13  and  C_16
REMARK    4  A    between atoms: N_21  and  C_22
REMARK    5  A    between atoms: C_22  and  C_23
REMARK                            x       y       z     vdW  Elec       q    Type
REMARK                         _______ _______ _______ _____ _____    ______ ____
ROOT
ATOM      1  C   UNL     1      -0.019   1.545   0.011  0.00  0.00    +0.021 C 
ATOM      2  C   UNL     1       1.497   1.877  -0.002  0.00  0.00    +0.033 C 
ATOM      3  C   UNL     1       2.105   0.750   0.860  0.00  0.00    +0.163 C 
ATOM      4  N   UNL     1       1.153  -0.370   0.847  0.00  0.00    -0.274 N 
ATOM      5  C   UNL     1       0.002  -0.004   0.002  0.00  0.00    +0.110 C 
ATOM      6  C   UNL     1       1.308  -1.540   1.499  0.00  0.00    +0.303 C 
ATOM      7  O   UNL     1       2.304  -1.734   2.170  0.00  0.00    -0.253 OA
ATOM      8  N   UNL     1       0.360  -2.493   1.408  0.00  0.00    -0.297 N 
ATOM      9  H   UNL     1      -0.434  -2.338   0.873  0.00  0.00    +0.151 HD
ENDROOT
BRANCH   8  10
ATOM     10  C   UNL     1       0.529  -3.764   2.117  0.00  0.00    +0.071 C 
ATOM     11  C   UNL     1       1.355  -4.724   1.257  0.00  0.00    +0.004 C 
ATOM     12  C   UNL     1       1.460  -6.075   1.968  0.00  0.00    -0.077 C 
ATOM     13  N   UNL     1       0.117  -6.631   2.171  0.00  0.00    +0.382 N 
ATOM     14  C   UNL     1      -0.658  -5.751   3.053  0.00  0.00    -0.077 C 
ATOM     15  C   UNL     1      -0.845  -4.387   2.384  0.00  0.00    +0.004 C 
ATOM     16  H   UNL     1      -0.351  -6.710   1.280  0.00  0.00    -0.081 HD
BRANCH  13  17
ATOM     17  C   UNL     1       0.227  -7.962   2.783  0.00  0.00    -0.069 C 
ATOM     18  C   UNL     1      -0.170  -9.168   1.928  0.00  0.00    -0.017 C 
ATOM     19  C   UNL     1      -1.073  -8.714   3.076  0.00  0.00    -0.017 C 
ENDBRANCH  13  17
ENDBRANCH   8  10
BRANCH   3  20
ATOM     20  C   UNL     1       3.424   0.314   0.276  0.00  0.00    +0.234 C 
ATOM     21  O   UNL     1       3.570  -0.828  -0.106  0.00  0.00    -0.274 OA
ATOM     22  N   UNL     1       4.441   1.192   0.178  0.00  0.00    -0.305 N 
ATOM     23  H   UNL     1       4.324   2.106   0.483  0.00  0.00    +0.149 HD
BRANCH  22  24
ATOM     24  C   UNL     1       5.723   0.768  -0.390  0.00  0.00    +0.217 C 
BRANCH  24  25
ATOM     25  C   UNL     1       6.698   1.947  -0.386  0.00  0.00    +0.405 C 
ATOM     26  F   UNL     1       6.892   2.387   0.928  0.00  0.00    -0.169 F 
ATOM     27  F   UNL     1       7.922   1.542  -0.928  0.00  0.00    -0.169 F 
ATOM     28  F   UNL     1       6.171   2.991  -1.154  0.00  0.00    -0.169 F 
ENDBRANCH  24  25
ENDBRANCH  22  24
ENDBRANCH   3  20
TORSDOF 5
