REMARK  Name = ZINC62965834
REMARK  7 active torsions:
REMARK  status: ('A' for Active; 'I' for Inactive)
REMARK    1  A    between atoms: C_1  and  N_2
REMARK    2  A    between atoms: N_2  and  C_3
REMARK    3  A    between atoms: N_2  and  C_4
REMARK    4  A    between atoms: N_8  and  C_10
REMARK    5  A    between atoms: C_13  and  N_20
REMARK    6  A    between atoms: C_15  and  C_16
REMARK    7  A    between atoms: N_17  and  O_18
REMARK                            x       y       z     vdW  Elec       q    Type
REMARK                         _______ _______ _______ _____ _____    ______ ____
ROOT
ATOM      1  C   UNL     1      -2.846  -3.741  -1.295  0.00  0.00    +0.040 A 
ATOM      2  C   UNL     1      -2.281  -4.336  -2.415  0.00  0.00    +0.026 A 
ATOM      3  C   UNL     1      -2.625  -5.627  -2.760  0.00  0.00    +0.034 A 
ATOM      4  C   UNL     1      -3.534  -6.338  -1.994  0.00  0.00    +0.127 A 
ATOM      5  C   UNL     1      -4.104  -5.763  -0.878  0.00  0.00    +0.046 A 
ATOM      6  C   UNL     1      -3.761  -4.460  -0.514  0.00  0.00    +0.041 A 
ENDROOT
BRANCH   1  10
ATOM      7  C   UNL     1      -1.376  -0.512   0.012  0.00  0.00    -0.050 C 
ATOM      8  C   UNL     1      -2.125  -0.095  -1.281  0.00  0.00    +0.005 C 
ATOM      9  C   UNL     1      -3.188  -1.216  -1.400  0.00  0.00    +0.103 C 
ATOM     10  N   UNL     1      -2.500  -2.438  -0.946  0.00  0.00    -0.331 N 
ATOM     11  C   UNL     1      -1.390  -2.054  -0.057  0.00  0.00    +0.090 C 
BRANCH   7  13
ATOM     12  C   UNL     1      -0.018   1.465   0.010  0.00  0.00    -0.096 C 
ATOM     13  N   UNL     1       0.002  -0.004   0.002  0.00  0.00    +0.379 N 
ATOM     14  C   UNL     1       0.713  -0.491   1.192  0.00  0.00    -0.096 C 
ATOM     15  H   UNL     1       0.474  -0.330  -0.828  0.00  0.00    -0.082 HD
ENDBRANCH   7  13
ENDBRANCH   1  10
BRANCH   6  16
ATOM     16  C   UNL     1      -4.364  -3.840   0.684  0.00  0.00    +0.164 C 
ATOM     17  N   UNL     1      -4.046  -2.622   1.017  0.00  0.00    -0.071 NA
ATOM     18  N   UNL     1      -5.268  -4.554   1.453  0.00  0.00    -0.340 N 
ATOM     19  H   UNL     1      -5.505  -5.461   1.205  0.00  0.00    +0.144 HD
ATOM     20  H   UNL     1      -5.664  -4.146   2.239  0.00  0.00    +0.144 HD
BRANCH  17  21
ATOM     21  O   UNL     1      -4.624  -2.028   2.165  0.00  0.00    -0.408 OA
ATOM     22  H   UNL     1      -4.327  -1.123   2.331  0.00  0.00    +0.328 HD
ENDBRANCH  17  21
ENDBRANCH   6  16
BRANCH   4  23
ATOM     23  N   UNL     1      -3.895  -7.722  -2.374  0.00  0.00    +0.056 N 
ATOM     24  O   UNL     1      -3.397  -8.230  -3.353  0.00  0.00    -0.126 OA
ATOM     25  O   UNL     1      -4.688  -8.345  -1.707  0.00  0.00    -0.126 OA
ENDBRANCH   4  23
TORSDOF 5
