REMARK  Name = ZINC33608389
REMARK  9 active torsions:
REMARK  status: ('A' for Active; 'I' for Inactive)
REMARK    1  A    between atoms: C_1  and  C_2
REMARK    2  A    between atoms: C_2  and  N_3
REMARK    3  A    between atoms: N_3  and  C_4
REMARK    4  A    between atoms: C_4  and  C_5
REMARK    5  A    between atoms: C_8  and  C_27
REMARK    6  A    between atoms: C_9  and  N_13
REMARK    7  A    between atoms: C_10  and  N_12
REMARK    8  A    between atoms: N_14  and  C_15
REMARK    9  A    between atoms: C_18  and  S_22
REMARK                            x       y       z     vdW  Elec       q    Type
REMARK                         _______ _______ _______ _____ _____    ______ ____
ROOT
ATOM      1  N   UNL     1      -0.124   0.607  -1.027  0.00  0.00    -0.300 N 
ATOM      2  C   UNL     1      -0.632   0.069  -2.193  0.00  0.00    +0.220 A 
ATOM      3  N   UNL     1       0.131  -0.747  -2.910  0.00  0.00    -0.217 NA
ATOM      4  C   UNL     1      -0.312  -1.285  -4.033  0.00  0.00    +0.072 A 
ATOM      5  C   UNL     1      -1.609  -0.985  -4.466  0.00  0.00    +0.147 A 
ATOM      6  C   UNL     1      -2.390  -0.113  -3.675  0.00  0.00    +0.149 A 
ATOM      7  N   UNL     1      -1.867   0.379  -2.558  0.00  0.00    -0.198 NA
ATOM      8  C   UNL     1       0.567  -2.209  -4.835  0.00  0.00    +0.068 C 
ENDROOT
BRANCH   6   9
ATOM      9  N   UNL     1      -3.675   0.218  -4.055  0.00  0.00    -0.341 N 
ATOM     10  H   UNL     1      -4.061  -0.173  -4.855  0.00  0.00    +0.144 HD
ATOM     11  H   UNL     1      -4.194   0.841  -3.522  0.00  0.00    +0.144 HD
ENDBRANCH   6   9
BRANCH   1  13
ATOM     12  C   UNL     1      -0.733   2.949  -0.673  0.00  0.00    +0.024 C 
ATOM     13  C   UNL     1      -0.949   1.505  -0.215  0.00  0.00    +0.104 C 
ENDBRANCH   1  13
BRANCH   1  14
ATOM     14  C   UNL     1       1.239   0.279  -0.602  0.00  0.00    +0.104 C 
ATOM     15  C   UNL     1       1.210  -0.966   0.286  0.00  0.00    +0.024 C 
ENDBRANCH   1  14
BRANCH   5  16
ATOM     16  N   UNL     1      -2.103  -1.519  -5.617  0.00  0.00    -0.144 NA
ATOM     17  N   UNL     1      -3.186  -2.219  -5.590  0.00  0.00    -0.148 NA
BRANCH  17  18
ATOM     18  C   UNL     1      -3.731  -2.590  -4.393  0.00  0.00    +0.106 A 
ATOM     19  C   UNL     1      -2.903  -2.913  -3.315  0.00  0.00    +0.053 A 
ATOM     20  C   UNL     1      -3.461  -3.287  -2.109  0.00  0.00    +0.070 A 
ATOM     21  C   UNL     1      -4.837  -3.341  -1.965  0.00  0.00    +0.139 A 
ATOM     22  C   UNL     1      -5.663  -3.022  -3.028  0.00  0.00    +0.053 A 
ATOM     23  C   UNL     1      -5.120  -2.641  -4.239  0.00  0.00    +0.070 A 
ATOM     24 CL   UNL     1      -6.159  -2.234  -5.569  0.00  0.00    -0.081 Cl
ATOM     25 CL   UNL     1      -2.434  -3.689  -0.768  0.00  0.00    -0.081 Cl
BRANCH  21  26
ATOM     26  S   UNL     1      -5.540  -3.818  -0.421  0.00  0.00    +0.141 S 
ATOM     27  O   UNL     1      -5.718  -2.602   0.356  0.00  0.00    -0.140 OA
ATOM     28  O   UNL     1      -6.809  -4.466  -0.717  0.00  0.00    -0.140 OA
ATOM     29  O   UNL     1      -4.598  -4.731   0.207  0.00  0.00    -0.043 OA
ENDBRANCH  21  26
ENDBRANCH  17  18
ENDBRANCH   5  16
TORSDOF 6
