REMARK  Name = ZINC58405350
REMARK  10 active torsions:
REMARK  status: ('A' for Active; 'I' for Inactive)
REMARK    1  A    between atoms: C_1  and  C_2
REMARK    2  A    between atoms: C_3  and  C_14
REMARK    3  A    between atoms: C_4  and  N_8
REMARK    4  A    between atoms: N_5  and  C_7
REMARK    5  A    between atoms: C_14  and  N_15
REMARK    6  A    between atoms: N_15  and  C_16
REMARK    7  A    between atoms: C_16  and  C_17
REMARK    8  A    between atoms: C_17  and  C_19
REMARK    9  A    between atoms: C_17  and  O_25
REMARK   10  A    between atoms: C_19  and  N_20
REMARK                            x       y       z     vdW  Elec       q    Type
REMARK                         _______ _______ _______ _____ _____    ______ ____
ROOT
ATOM      1  C   UNL     1       0.004  -0.350  -2.569  0.00  0.00    -0.041 C 
ENDROOT
BRANCH   1   4
ATOM      2  C   UNL     1      -0.018   1.503   0.001  0.00  0.00    +0.068 C 
ATOM      3  C   UNL     1       0.002  -0.004  -0.002  0.00  0.00    +0.063 A 
ATOM      4  C   UNL     1       0.012  -0.820  -1.137  0.00  0.00    -0.002 A 
ATOM      5  C   UNL     1       0.030  -2.116  -0.718  0.00  0.00    +0.121 A 
ATOM      6  N   UNL     1       0.031  -2.107   0.634  0.00  0.00    -0.253 N 
ATOM      7  N   UNL     1       0.019  -0.772   1.057  0.00  0.00    -0.175 NA
ATOM      8  C   UNL     1       0.047  -3.286   1.504  0.00  0.00    +0.174 C 
BRANCH   5   9
ATOM      9  N   UNL     1       0.043  -3.244  -1.534  0.00  0.00    -0.311 N 
ATOM     10  C   UNL     1       1.308  -3.907  -1.888  0.00  0.00    +0.134 C 
ATOM     11  C   UNL     1       1.167  -5.405  -1.595  0.00  0.00    +0.178 C 
ATOM     12  O   UNL     1      -0.011  -5.901  -2.236  0.00  0.00    -0.377 OA
ATOM     13  C   UNL     1      -1.225  -5.311  -1.765  0.00  0.00    +0.178 C 
ATOM     14  C   UNL     1      -1.207  -3.812  -2.062  0.00  0.00    +0.134 C 
ENDBRANCH   5   9
ENDBRANCH   1   4
BRANCH   1  15
ATOM     15  N   UNL     1       1.380  -0.065  -2.998  0.00  0.00    +0.383 N 
ATOM     16  H   UNL     1       1.774   0.654  -2.410  0.00  0.00    -0.085 HD
ATOM     17  H   UNL     1       1.937  -0.903  -2.922  0.00  0.00    -0.085 HD
BRANCH  15  18
ATOM     18  C   UNL     1       1.373   0.393  -4.394  0.00  0.00    -0.052 C 
BRANCH  18  19
ATOM     19  C   UNL     1       2.806   0.690  -4.840  0.00  0.00    +0.081 C 
BRANCH  19  20
ATOM     20  O   UNL     1       3.363   1.709  -4.008  0.00  0.00    -0.395 OA
ATOM     21  H   UNL     1       2.878   2.545  -4.031  0.00  0.00    +0.210 HD
ENDBRANCH  19  20
BRANCH  19  22
ATOM     22  C   UNL     1       2.798   1.167  -6.294  0.00  0.00    -0.049 C 
BRANCH  22  23
ATOM     23  N   UNL     1       4.181   1.338  -6.761  0.00  0.00    +0.381 N 
ATOM     24  C   UNL     1       4.850   0.016  -6.873  0.00  0.00    -0.079 C 
ATOM     25  C   UNL     1       6.009   0.289  -7.864  0.00  0.00    -0.020 C 
ATOM     26  C   UNL     1       5.377   1.276  -8.873  0.00  0.00    -0.020 C 
ATOM     27  C   UNL     1       4.191   1.913  -8.123  0.00  0.00    -0.079 C 
ATOM     28  H   UNL     1       4.691   1.935  -6.127  0.00  0.00    -0.082 HD
ENDBRANCH  22  23
ENDBRANCH  19  22
ENDBRANCH  18  19
ENDBRANCH  15  18
ENDBRANCH   1  15
TORSDOF 8
