REMARK  Name = ZINC33592435
REMARK  2 active torsions:
REMARK  status: ('A' for Active; 'I' for Inactive)
REMARK    1  A    between atoms: C_1  and  C_2
REMARK    2  A    between atoms: C_9  and  C_10
REMARK                            x       y       z     vdW  Elec       q    Type
REMARK                         _______ _______ _______ _____ _____    ______ ____
ROOT
ATOM      1  C   UNL     1       1.275   1.331   0.008  0.00  0.00    +0.044 C 
ATOM      2  C   UNL     1       0.870  -0.121   0.001  0.00  0.00    -0.050 A 
ATOM      3  C   UNL     1       0.698  -0.785  -1.203  0.00  0.00    +0.005 A 
ATOM      4  C   UNL     1       0.328  -2.115  -1.226  0.00  0.00    +0.024 A 
ATOM      5  C   UNL     1       0.124  -2.804  -0.036  0.00  0.00    +0.042 A 
ATOM      6  C   UNL     1       0.300  -2.129   1.180  0.00  0.00    +0.009 A 
ATOM      7  C   UNL     1       0.678  -0.789   1.193  0.00  0.00    +0.014 A 
ATOM      8  C   UNL     1       0.016  -3.111   2.249  0.00  0.00    +0.049 C 
ATOM      9  C   UNL     1       0.058  -2.907   3.595  0.00  0.00    +0.060 C 
ATOM     10  C   UNL     1      -0.326  -4.363   1.537  0.00  0.00    +0.249 C 
ATOM     11  O   UNL     1      -0.627  -5.422   2.054  0.00  0.00    -0.270 OA
ATOM     12  N   UNL     1      -0.245  -4.121   0.217  0.00  0.00    -0.281 N 
ATOM     13  H   UNL     1      -0.422  -4.780  -0.471  0.00  0.00    +0.155 HD
ENDROOT
BRANCH   9  14
ATOM     14  C   UNL     1      -0.033  -4.047   4.512  0.00  0.00    +0.135 A 
ATOM     15  N   UNL     1      -0.138  -3.799   5.858  0.00  0.00    -0.307 N 
ATOM     16  H   UNL     1      -0.151  -2.884   6.180  0.00  0.00    +0.170 HD
ATOM     17  C   UNL     1      -0.224  -4.824   6.738  0.00  0.00    +0.259 A 
ATOM     18  O   UNL     1      -0.318  -4.623   7.934  0.00  0.00    -0.267 OA
ATOM     19  C   UNL     1      -0.200  -6.191   6.193  0.00  0.00    +0.065 A 
ATOM     20  C   UNL     1      -0.283  -7.310   7.016  0.00  0.00    +0.015 A 
ATOM     21  C   UNL     1      -0.257  -8.570   6.457  0.00  0.00    +0.001 A 
ATOM     22  C   UNL     1      -0.148  -8.731   5.082  0.00  0.00    +0.002 A 
ATOM     23  C   UNL     1      -0.063  -7.640   4.249  0.00  0.00    +0.028 A 
ATOM     24  C   UNL     1      -0.089  -6.350   4.791  0.00  0.00    +0.078 A 
ATOM     25  N   UNL     1      -0.015  -5.258   4.009  0.00  0.00    -0.230 NA
ENDBRANCH   9  14
TORSDOF 1
