REMARK  Name = ZINC49043628
REMARK  4 active torsions:
REMARK  status: ('A' for Active; 'I' for Inactive)
REMARK    1  A    between atoms: C_5  and  N_7
REMARK    2  A    between atoms: N_7  and  S_8
REMARK    3  A    between atoms: S_8  and  C_11
REMARK    4  A    between atoms: C_11  and  C_12
REMARK                            x       y       z     vdW  Elec       q    Type
REMARK                         _______ _______ _______ _____ _____    ______ ____
ROOT
ATOM      1  N   UNL     1       1.238  -2.077  -0.020  0.00  0.00    -0.219 N 
ATOM      2  H   UNL     1       1.901  -2.543   0.513  0.00  0.00    +0.173 HD
ENDROOT
BRANCH   1   7
ATOM      3  C   UNL     1       0.260   1.444  -0.422  0.00  0.00    +0.002 A 
ATOM      4  C   UNL     1       1.496   2.052  -0.523  0.00  0.00    +0.005 A 
ATOM      5  C   UNL     1       2.657   1.297  -0.457  0.00  0.00    -0.025 A 
ATOM      6  C   UNL     1       2.573  -0.074  -0.288  0.00  0.00    +0.053 A 
ATOM      7  C   UNL     1       1.324  -0.690  -0.188  0.00  0.00    +0.069 A 
ATOM      8  C   UNL     1       0.170   0.074  -0.255  0.00  0.00    +0.026 A 
ATOM      9  N   UNL     1       3.731  -0.861  -0.209  0.00  0.00    -0.342 N 
ATOM     10  C   UNL     1       5.018  -0.273  -0.604  0.00  0.00    +0.102 C 
ATOM     11  C   UNL     1       5.101   1.130   0.012  0.00  0.00    +0.023 C 
ATOM     12  C   UNL     1       3.986   1.995  -0.577  0.00  0.00    +0.038 C 
ATOM     13  H   UNL     1       3.683  -1.779   0.102  0.00  0.00    +0.146 HD
ENDBRANCH   1   7
BRANCH   1  14
ATOM     14  S   UNL     1       0.005  -2.922  -0.733  0.00  0.00    +0.043 S 
ATOM     15  O   UNL     1       0.279  -4.284  -0.433  0.00  0.00    -0.155 OA
ATOM     16  O   UNL     1      -1.182  -2.301  -0.258  0.00  0.00    -0.155 OA
BRANCH  14  17
ATOM     17  C   UNL     1       0.200  -2.621  -2.511  0.00  0.00    +0.192 C 
BRANCH  17  18
ATOM     18  C   UNL     1      -0.898  -3.362  -3.277  0.00  0.00    +0.012 C 
ATOM     19  C   UNL     1      -0.715  -4.871  -3.099  0.00  0.00    +0.005 C 
ATOM     20  C   UNL     1      -1.813  -5.612  -3.865  0.00  0.00    +0.000 C 
ATOM     21  C   UNL     1      -1.725  -5.259  -5.351  0.00  0.00    +0.000 C 
ATOM     22  C   UNL     1      -1.908  -3.750  -5.529  0.00  0.00    +0.000 C 
ATOM     23  C   UNL     1      -0.810  -3.010  -4.763  0.00  0.00    +0.005 C 
ENDBRANCH  17  18
ENDBRANCH  14  17
ENDBRANCH   1  14
TORSDOF 4
