REMARK  Name = ZINC54908090
REMARK  6 active torsions:
REMARK  status: ('A' for Active; 'I' for Inactive)
REMARK    1  A    between atoms: C_1  and  C_2
REMARK    2  A    between atoms: C_5  and  N_9
REMARK    3  A    between atoms: C_6  and  C_8
REMARK    4  A    between atoms: N_9  and  C_10
REMARK    5  A    between atoms: C_16  and  N_21
REMARK    6  A    between atoms: N_21  and  C_22
REMARK                            x       y       z     vdW  Elec       q    Type
REMARK                         _______ _______ _______ _____ _____    ______ ____
ROOT
ATOM      1  N   UNL     1       0.463  -4.620  -0.328  0.00  0.00    -0.282 N 
ATOM      2  C   UNL     1       1.679  -5.413  -0.129  0.00  0.00    +0.137 C 
ATOM      3  C   UNL     1      -0.777  -5.241  -0.328  0.00  0.00    +0.165 A 
ATOM      4  N   UNL     1      -1.963  -4.697  -0.495  0.00  0.00    -0.229 NA
ATOM      5  C   UNL     1      -3.079  -5.423  -0.470  0.00  0.00    +0.052 A 
ATOM      6  C   UNL     1      -2.892  -6.750  -0.260  0.00  0.00    +0.000 A 
ATOM      7  S   UNL     1      -1.131  -6.875  -0.119  0.00  0.00    -0.058 S 
ATOM      8  C   UNL     1      -3.932  -7.816  -0.177  0.00  0.00    -0.033 C 
ATOM      9  C   UNL     1      -5.300  -7.138  -0.002  0.00  0.00    -0.010 C 
ATOM     10  C   UNL     1      -5.425  -6.005  -1.025  0.00  0.00    +0.005 C 
ATOM     11  C   UNL     1      -4.480  -4.859  -0.659  0.00  0.00    +0.056 C 
ENDROOT
BRANCH   1  16
ATOM     12  C   UNL     1       0.828   0.986  -1.103  0.00  0.00    +0.044 C 
ATOM     13  C   UNL     1       0.731  -0.503  -0.897  0.00  0.00    -0.050 A 
ATOM     14  C   UNL     1       0.771  -1.355  -1.986  0.00  0.00    +0.005 A 
ATOM     15  C   UNL     1       0.682  -2.720  -1.802  0.00  0.00    +0.024 A 
ATOM     16  C   UNL     1       0.553  -3.239  -0.519  0.00  0.00    +0.038 A 
ATOM     17  C   UNL     1       0.514  -2.381   0.573  0.00  0.00    -0.029 A 
ATOM     18  C   UNL     1       0.608  -1.016   0.381  0.00  0.00    +0.008 A 
ATOM     19  C   UNL     1       0.374  -2.939   1.966  0.00  0.00    +0.045 C 
ENDBRANCH   1  16
BRANCH   8  20
ATOM     20  N   UNL     1      -3.658  -8.687   0.973  0.00  0.00    +0.382 N 
ATOM     21  C   UNL     1      -4.603  -9.811   0.971  0.00  0.00    -0.100 C 
ATOM     22  H   UNL     1      -2.715  -9.040   0.911  0.00  0.00    -0.085 HD
ATOM     23  H   UNL     1      -3.764  -8.160   1.827  0.00  0.00    -0.085 HD
ENDBRANCH   8  20
TORSDOF 2
