REMARK  Name = ZINC52882100
REMARK  7 active torsions:
REMARK  status: ('A' for Active; 'I' for Inactive)
REMARK    1  A    between atoms: C_1  and  C_2
REMARK    2  A    between atoms: C_2  and  C_3
REMARK    3  A    between atoms: C_2  and  C_9
REMARK    4  A    between atoms: C_2  and  N_21
REMARK    5  A    between atoms: C_15  and  C_17
REMARK    6  A    between atoms: C_17  and  O_19
REMARK    7  A    between atoms: O_19  and  C_20
REMARK                            x       y       z     vdW  Elec       q    Type
REMARK                         _______ _______ _______ _____ _____    ______ ____
ROOT
ATOM      1  C   UNL     1       1.218  -0.524   0.729  0.00  0.00    +0.042 C 
ATOM      2  C   UNL     1      -0.006  -0.008  -0.031  0.00  0.00    +0.116 C 
ENDROOT
BRANCH   2   3
ATOM      3  C   UNL     1       0.217  -0.172  -1.512  0.00  0.00    +0.240 C 
ATOM      4  O   UNL     1       1.282  -0.582  -1.923  0.00  0.00    -0.273 OA
ATOM      5  N   UNL     1      -0.766   0.136  -2.380  0.00  0.00    -0.286 N 
ATOM      6  C   UNL     1      -2.135   0.548  -2.017  0.00  0.00    +0.109 C 
ATOM      7  C   UNL     1      -2.643   1.356  -3.237  0.00  0.00    +0.021 C 
ATOM      8  C   UNL     1      -2.014   0.568  -4.417  0.00  0.00    +0.035 C 
ATOM      9  C   UNL     1      -0.651   0.124  -3.846  0.00  0.00    +0.185 C 
BRANCH   9  10
ATOM     10  C   UNL     1      -0.328  -1.268  -4.323  0.00  0.00    +0.328 C 
ATOM     11  O   UNL     1      -0.204  -2.167  -3.525  0.00  0.00    -0.249 OA
BRANCH  10  12
ATOM     12  O   UNL     1      -0.177  -1.510  -5.635  0.00  0.00    -0.467 OA
ATOM     13  C   UNL     1       0.129  -2.853  -6.016  0.00  0.00    +0.280 C 
ENDBRANCH  10  12
ENDBRANCH   9  10
ENDBRANCH   2   3
BRANCH   2  14
ATOM     14  C   UNL     1      -1.223  -0.794   0.384  0.00  0.00    -0.019 A 
ATOM     15  C   UNL     1      -1.376  -2.103  -0.032  0.00  0.00    +0.006 A 
ATOM     16  C   UNL     1      -2.492  -2.823   0.348  0.00  0.00    +0.000 A 
ATOM     17  C   UNL     1      -3.456  -2.235   1.145  0.00  0.00    +0.000 A 
ATOM     18  C   UNL     1      -3.303  -0.926   1.562  0.00  0.00    +0.000 A 
ATOM     19  C   UNL     1      -2.184  -0.206   1.185  0.00  0.00    +0.006 A 
ENDBRANCH   2  14
BRANCH   2  20
ATOM     20  N   UNL     1      -0.211   1.413   0.279  0.00  0.00    -0.314 NA
ATOM     21  H   UNL     1       0.630   1.945   0.112  0.00  0.00    +0.119 HD
ATOM     22  H   UNL     1      -0.987   1.789  -0.246  0.00  0.00    +0.119 HD
ENDBRANCH   2  20
TORSDOF 5
