REMARK  Name = ZINC39323832
REMARK  4 active torsions:
REMARK  status: ('A' for Active; 'I' for Inactive)
REMARK    1  A    between atoms: C_1  and  C_2
REMARK    2  A    between atoms: C_2  and  C_3
REMARK    3  A    between atoms: C_9  and  N_19
REMARK    4  A    between atoms: C_10  and  C_17
REMARK                            x       y       z     vdW  Elec       q    Type
REMARK                         _______ _______ _______ _____ _____    ______ ____
ROOT
ATOM      1  C   UNL     1       0.731  -0.503   1.223  0.00  0.00    +0.198 A 
ATOM      2  N   UNL     1       0.181  -0.775   2.376  0.00  0.00    -0.215 NA
ATOM      3  C   UNL     1       1.133  -1.192   3.215  0.00  0.00    +0.113 A 
ATOM      4  C   UNL     1       2.312  -1.175   2.538  0.00  0.00    +0.216 A 
ATOM      5  O   UNL     1       2.053  -0.747   1.299  0.00  0.00    -0.426 OA
ATOM      6  N   UNL     1       3.513  -1.567   3.128  0.00  0.00    -0.272 N 
ATOM      7  C   UNL     1       3.447  -2.226   4.337  0.00  0.00    +0.102 C 
ATOM      8  C   UNL     1       2.310  -2.279   5.074  0.00  0.00    +0.077 C 
ATOM      9  C   UNL     1       1.025  -1.619   4.654  0.00  0.00    +0.052 C 
ATOM     10  C   UNL     1       0.766  -0.393   5.534  0.00  0.00    -0.001 C 
ATOM     11  C   UNL     1       0.583  -0.845   6.985  0.00  0.00    -0.081 C 
ATOM     12  N   UNL     1      -0.557  -1.765   7.075  0.00  0.00    +0.379 N 
ATOM     13  C   UNL     1      -0.285  -2.975   6.290  0.00  0.00    -0.081 C 
ATOM     14  C   UNL     1      -0.135  -2.606   4.812  0.00  0.00    -0.001 C 
ATOM     15  H   UNL     1       4.365  -1.383   2.703  0.00  0.00    +0.156 HD
ATOM     16  H   UNL     1      -0.709  -2.018   8.039  0.00  0.00    -0.086 HD
ATOM     17  H   UNL     1      -1.384  -1.311   6.715  0.00  0.00    -0.086 HD
ENDROOT
BRANCH   7  18
ATOM     18  N   UNL     1       4.574  -2.851   4.812  0.00  0.00    -0.346 N 
ATOM     19  H   UNL     1       5.397  -2.825   4.298  0.00  0.00    +0.144 HD
ATOM     20  H   UNL     1       4.548  -3.320   5.661  0.00  0.00    +0.144 HD
ENDBRANCH   7  18
BRANCH   1  22
ATOM     21  C   UNL     1      -0.019   1.526   0.010  0.00  0.00    +0.013 C 
ATOM     22  C   UNL     1       0.002  -0.004   0.002  0.00  0.00    +0.093 C 
ENDBRANCH   1  22
BRANCH   8  23
ATOM     23  C   UNL     1       2.334  -2.998   6.313  0.00  0.00    +0.099 C 
ATOM     24  N   UNL     1       2.353  -3.568   7.295  0.00  0.00    -0.191 NA
ENDBRANCH   8  23
TORSDOF 3
