REMARK  Name = ZINC34887429
REMARK  7 active torsions:
REMARK  status: ('A' for Active; 'I' for Inactive)
REMARK    1  A    between atoms: C_1  and  C_2
REMARK    2  A    between atoms: C_5  and  C_25
REMARK    3  A    between atoms: N_8  and  S_10
REMARK    4  A    between atoms: S_10  and  N_13
REMARK    5  A    between atoms: C_17  and  N_20
REMARK    6  A    between atoms: N_20  and  S_21
REMARK    7  A    between atoms: S_21  and  C_24
REMARK                            x       y       z     vdW  Elec       q    Type
REMARK                         _______ _______ _______ _____ _____    ______ ____
ROOT
ATOM      1  N   UNL     1       2.514  -3.247  -0.119  0.00  0.00    -0.165 NA
ATOM      2  C   UNL     1       2.026  -4.436  -0.831  0.00  0.00    +0.110 C 
ATOM      3  C   UNL     1       1.455  -4.000  -2.184  0.00  0.00    +0.019 C 
ATOM      4  C   UNL     1       2.514  -3.201  -2.947  0.00  0.00    +0.023 C 
ATOM      5  C   UNL     1       2.881  -1.947  -2.151  0.00  0.00    +0.092 C 
ATOM      6  C   UNL     1       3.463  -2.356  -0.800  0.00  0.00    +0.131 C 
ENDROOT
BRANCH   1   7
ATOM      7  S   UNL     1       1.999  -2.914   1.419  0.00  0.00    +0.100 S 
ATOM      8  O   UNL     1       2.998  -2.098   2.015  0.00  0.00    -0.141 OA
ATOM      9  O   UNL     1       1.587  -4.150   1.986  0.00  0.00    -0.141 OA
BRANCH   7  15
ATOM     10  C   UNL     1      -0.019   1.526   0.010  0.00  0.00    +0.009 C 
ATOM     11  C   UNL     1       0.002  -0.004   0.002  0.00  0.00    +0.002 C 
ATOM     12  C   UNL     1      -1.433  -0.534   0.015  0.00  0.00    +0.009 C 
ATOM     13  C   UNL     1      -1.414  -2.064  -0.027  0.00  0.00    +0.002 C 
ATOM     14  C   UNL     1      -0.692  -2.596   1.215  0.00  0.00    +0.113 C 
ATOM     15  N   UNL     1       0.639  -1.977   1.288  0.00  0.00    -0.166 NA
ATOM     16  C   UNL     1       0.742  -0.512   1.244  0.00  0.00    +0.113 C 
ATOM     17  C   UNL     1      -2.850  -2.592  -0.049  0.00  0.00    +0.009 C 
ENDBRANCH   7  15
ENDBRANCH   1   7
BRANCH   5  18
ATOM     18  N   UNL     1       3.871  -1.166  -2.897  0.00  0.00    -0.190 NA
ATOM     19  H   UNL     1       4.814  -1.378  -2.819  0.00  0.00    +0.148 HD
BRANCH  18  20
ATOM     20  S   UNL     1       3.380   0.078  -3.874  0.00  0.00    +0.027 S 
ATOM     21  O   UNL     1       4.577   0.584  -4.447  0.00  0.00    -0.158 OA
ATOM     22  O   UNL     1       2.365  -0.485  -4.695  0.00  0.00    -0.158 OA
ATOM     23  C   UNL     1       2.661   1.302  -2.744  0.00  0.00    +0.214 C 
ENDBRANCH  18  20
ENDBRANCH   5  18
TORSDOF 4
