REMARK  Name = ZINC65531887
REMARK  6 active torsions:
REMARK  status: ('A' for Active; 'I' for Inactive)
REMARK    1  A    between atoms: C_1  and  C_2
REMARK    2  A    between atoms: C_2  and  C_3
REMARK    3  A    between atoms: C_5  and  C_10
REMARK    4  A    between atoms: C_7  and  C_9
REMARK    5  A    between atoms: C_12  and  C_26
REMARK    6  A    between atoms: N_16  and  C_17
REMARK                            x       y       z     vdW  Elec       q    Type
REMARK                         _______ _______ _______ _____ _____    ______ ____
ROOT
ATOM      1  C   UNL     1       1.085  -2.522   4.321  0.00  0.00    +0.005 C 
ATOM      2  C   UNL     1       0.617  -1.651   5.502  0.00  0.00    +0.074 C 
ATOM      3  N   UNL     1      -0.676  -2.231   5.938  0.00  0.00    -0.327 NA
ATOM      4  C   UNL     1      -0.626  -3.641   5.473  0.00  0.00    +0.007 C 
ATOM      5  N   UNL     1       0.036  -3.555   4.144  0.00  0.00    +0.402 N 
ATOM      6  H   UNL     1      -0.774  -2.184   6.941  0.00  0.00    +0.120 HD
ATOM      7  H   UNL     1      -0.626  -3.267   3.439  0.00  0.00    -0.078 HD
ENDROOT
BRANCH   5   8
ATOM      8  C   UNL     1       0.641  -4.845   3.787  0.00  0.00    +0.022 C 
ATOM      9  C   UNL     1      -0.457  -5.894   3.599  0.00  0.00    -0.006 C 
ATOM     10  C   UNL     1       0.089  -7.292   3.829  0.00  0.00    +0.000 C 
ATOM     11  C   UNL     1       1.100  -7.734   2.787  0.00  0.00    +0.019 C 
ATOM     12  C   UNL     1       2.381  -6.902   2.882  0.00  0.00    +0.104 C 
ATOM     13  N   UNL     1       2.212  -5.683   2.073  0.00  0.00    -0.317 N 
ATOM     14  C   UNL     1       1.406  -4.705   2.487  0.00  0.00    +0.200 C 
ATOM     15  O   UNL     1       1.281  -3.703   1.817  0.00  0.00    -0.278 OA
ATOM     16  H   UNL     1       2.692  -5.590   1.236  0.00  0.00    +0.149 HD
ENDBRANCH   5   8
BRANCH   1  19
ATOM     17  C   UNL     1       0.767  -0.679   1.181  0.00  0.00    +0.107 A 
ATOM     18  N   UNL     1       0.243  -1.492   2.123  0.00  0.00    -0.347 N 
ATOM     19  C   UNL     1       1.208  -1.686   3.074  0.00  0.00    +0.027 A 
ATOM     20  H   UNL     1      -0.652  -1.867   2.126  0.00  0.00    +0.167 HD
ATOM     21  C   UNL     1       2.289  -0.986   2.680  0.00  0.00    +0.058 A 
ATOM     22  N   UNL     1       1.994  -0.385   1.518  0.00  0.00    -0.238 NA
ATOM     23  C   UNL     1       3.602  -0.897   3.414  0.00  0.00    +0.067 C 
BRANCH  17  25
ATOM     24  C   UNL     1       0.104   1.332  -0.110  0.00  0.00    +0.012 C 
ATOM     25  C   UNL     1       0.057  -0.197  -0.058  0.00  0.00    +0.071 C 
ENDBRANCH  17  25
ENDBRANCH   1  19
BRANCH   2  26
ATOM     26  C   UNL     1       1.621  -1.711   6.624  0.00  0.00    -0.032 A 
ATOM     27  C   UNL     1       2.548  -0.698   6.777  0.00  0.00    +0.005 A 
ATOM     28  C   UNL     1       3.470  -0.753   7.806  0.00  0.00    +0.000 A 
ATOM     29  C   UNL     1       3.463  -1.821   8.683  0.00  0.00    +0.000 A 
ATOM     30  C   UNL     1       2.535  -2.834   8.531  0.00  0.00    +0.000 A 
ATOM     31  C   UNL     1       1.611  -2.777   7.504  0.00  0.00    +0.005 A 
ENDBRANCH   2  26
TORSDOF 4
