REMARK  Name = ZINC62894968
REMARK  7 active torsions:
REMARK  status: ('A' for Active; 'I' for Inactive)
REMARK    1  A    between atoms: C_1  and  C_2
REMARK    2  A    between atoms: C_2  and  C_3
REMARK    3  A    between atoms: C_3  and  C_4
REMARK    4  A    between atoms: C_4  and  C_9
REMARK    5  A    between atoms: C_17  and  C_19
REMARK    6  A    between atoms: C_19  and  C_20
REMARK    7  A    between atoms: C_19  and  C_21
REMARK                            x       y       z     vdW  Elec       q    Type
REMARK                         _______ _______ _______ _____ _____    ______ ____
ROOT
ATOM      1  C   UNL     1       1.399  -2.489   0.183  0.00  0.00    +0.220 C 
ATOM      2  O   UNL     1       2.443  -3.102   0.115  0.00  0.00    -0.275 OA
ATOM      3  N   UNL     1       0.737  -2.413   1.355  0.00  0.00    -0.298 N 
ATOM      4  C   UNL     1      -0.483  -1.602   1.474  0.00  0.00    +0.127 C 
ATOM      5  C   UNL     1      -1.614  -2.494   2.001  0.00  0.00    +0.126 C 
ATOM      6  N   UNL     1      -1.128  -3.220   3.182  0.00  0.00    -0.298 N 
ATOM      7  C   UNL     1       0.092  -4.031   3.063  0.00  0.00    +0.126 C 
ATOM      8  C   UNL     1       1.220  -3.144   2.535  0.00  0.00    +0.127 C 
ATOM      9  C   UNL     1      -1.789  -3.144   4.354  0.00  0.00    +0.218 C 
ATOM     10  O   UNL     1      -1.335  -3.679   5.343  0.00  0.00    -0.275 OA
ENDROOT
BRANCH   1  11
ATOM     11  C   UNL     1       0.840  -1.813  -1.042  0.00  0.00    +0.030 C 
ATOM     12  C   UNL     1       1.834  -1.914  -2.230  0.00  0.00    -0.005 C 
ATOM     13  C   UNL     1       2.794  -0.735  -1.935  0.00  0.00    -0.082 C 
ATOM     14  N   UNL     1       1.927   0.332  -1.392  0.00  0.00    +0.380 N 
ATOM     15  C   UNL     1       0.720  -0.291  -0.819  0.00  0.00    -0.067 C 
ATOM     16  H   UNL     1       2.422   0.838  -0.673  0.00  0.00    -0.086 HD
ATOM     17  H   UNL     1       1.664   0.965  -2.132  0.00  0.00    -0.086 HD
BRANCH  11  18
ATOM     18  C   UNL     1      -0.516  -2.413  -1.419  0.00  0.00    +0.014 C 
BRANCH  18  20
ATOM     19  C   UNL     1      -1.766  -4.545  -1.785  0.00  0.00    +0.004 C 
ATOM     20  C   UNL     1      -0.388  -3.934  -1.526  0.00  0.00    -0.002 C 
ENDBRANCH  18  20
ENDBRANCH  11  18
ENDBRANCH   1  11
BRANCH   9  21
ATOM     21  C   UNL     1      -3.094  -2.394   4.436  0.00  0.00    +0.069 C 
ATOM     22  C   UNL     1      -4.160  -3.134   3.626  0.00  0.00    +0.017 C 
ATOM     23  C   UNL     1      -3.538  -2.300   5.897  0.00  0.00    +0.017 C 
ENDBRANCH   9  21
TORSDOF 4
