REMARK  Name = ZINC02163781
REMARK  10 active torsions:
REMARK  status: ('A' for Active; 'I' for Inactive)
REMARK    1  A    between atoms: C_1  and  C_2
REMARK    2  A    between atoms: C_2  and  C_30
REMARK    3  A    between atoms: C_6  and  C_14
REMARK    4  A    between atoms: C_8  and  C_12
REMARK    5  A    between atoms: C_9  and  N_11
REMARK    6  A    between atoms: C_16  and  O_25
REMARK    7  A    between atoms: C_17  and  O_21
REMARK    8  A    between atoms: O_21  and  C_22
REMARK    9  A    between atoms: C_22  and  C_23
REMARK   10  A    between atoms: O_25  and  C_26
REMARK                            x       y       z     vdW  Elec       q    Type
REMARK                         _______ _______ _______ _____ _____    ______ ____
ROOT
ATOM      1  C   UNL     1       3.999   0.999  -1.637  0.00  0.00    +0.012 C 
ATOM      2  C   UNL     1       4.134   2.039  -0.523  0.00  0.00    -0.021 C 
ATOM      3  C   UNL     1       3.157   3.189  -0.772  0.00  0.00    +0.081 C 
ATOM      4  C   UNL     1       1.740   2.663  -0.764  0.00  0.00    +0.115 C 
ATOM      5  C   UNL     1       1.405   1.606  -0.003  0.00  0.00    +0.046 C 
ATOM      6  C   UNL     1      -0.013   1.086   0.008  0.00  0.00    +0.101 C 
ATOM      7  C   UNL     1      -0.753   1.581  -1.203  0.00  0.00    +0.098 C 
ATOM      8  C   UNL     1      -0.289   2.646  -1.902  0.00  0.00    +0.198 C 
ATOM      9  O   UNL     1       0.831   3.287  -1.536  0.00  0.00    -0.445 OA
ATOM     10  C   UNL     1       2.357   0.952   0.803  0.00  0.00    +0.164 C 
ATOM     11  O   UNL     1       2.011   0.013   1.492  0.00  0.00    -0.292 OA
ATOM     12  C   UNL     1       3.794   1.396   0.826  0.00  0.00    +0.086 C 
ATOM     13  C   UNL     1       5.566   2.578  -0.494  0.00  0.00    +0.012 C 
ENDROOT
BRANCH   6  14
ATOM     14  C   UNL     1      -0.713   1.569   1.252  0.00  0.00    -0.030 A 
ATOM     15  C   UNL     1      -1.212   0.656   2.162  0.00  0.00    +0.054 A 
ATOM     16  C   UNL     1      -1.856   1.098   3.306  0.00  0.00    +0.163 A 
ATOM     17  C   UNL     1      -1.999   2.463   3.537  0.00  0.00    +0.177 A 
ATOM     18  C   UNL     1      -1.497   3.374   2.621  0.00  0.00    +0.063 A 
ATOM     19  C   UNL     1      -0.850   2.925   1.483  0.00  0.00    +0.023 A 
ATOM     20 BR   UNL     1      -1.688   5.229   2.930  0.00  0.00    -0.046 Br
BRANCH  16  21
ATOM     21  O   UNL     1      -2.347   0.200   4.202  0.00  0.00    -0.491 OA
ATOM     22  C   UNL     1      -2.164  -1.184   3.900  0.00  0.00    +0.277 C 
ENDBRANCH  16  21
BRANCH  17  23
ATOM     23  O   UNL     1      -2.631   2.902   4.658  0.00  0.00    -0.475 OA
BRANCH  23  24
ATOM     24  C   UNL     1      -1.821   3.123   5.815  0.00  0.00    +0.317 C 
BRANCH  24  25
ATOM     25  C   UNL     1      -2.667   3.592   6.924  0.00  0.00    -0.065 C 
ATOM     26  C   UNL     1      -3.342   3.966   7.809  0.00  0.00    +0.007 C 
ENDBRANCH  24  25
ENDBRANCH  23  24
ENDBRANCH  17  23
ENDBRANCH   6  14
BRANCH   8  27
ATOM     27  N   UNL     1      -0.980   3.076  -3.007  0.00  0.00    -0.328 N 
ATOM     28  H   UNL     1      -0.657   3.836  -3.515  0.00  0.00    +0.145 HD
ATOM     29  H   UNL     1      -1.791   2.619  -3.280  0.00  0.00    +0.145 HD
ENDBRANCH   8  27
BRANCH   7  30
ATOM     30  C   UNL     1      -1.956   0.924  -1.620  0.00  0.00    +0.101 C 
ATOM     31  N   UNL     1      -2.909   0.404  -1.951  0.00  0.00    -0.191 NA
ENDBRANCH   7  30
TORSDOF 7
