REMARK  Name = ZINC66481576
REMARK  7 active torsions:
REMARK  status: ('A' for Active; 'I' for Inactive)
REMARK    1  A    between atoms: N_9  and  C_11
REMARK    2  A    between atoms: C_11  and  C_12
REMARK    3  A    between atoms: C_12  and  C_14
REMARK    4  A    between atoms: C_12  and  O_24
REMARK    5  A    between atoms: C_14  and  S_15
REMARK    6  A    between atoms: S_15  and  C_16
REMARK    7  A    between atoms: C_20  and  N_22
REMARK                            x       y       z     vdW  Elec       q    Type
REMARK                         _______ _______ _______ _____ _____    ______ ____
ROOT
ATOM      1  C   UNL     1       5.939  -2.100   1.067  0.00  0.00    +0.108 C 
ENDROOT
BRANCH   1   2
ATOM      2  O   UNL     1       6.000  -0.711   0.736  0.00  0.00    -0.393 OA
ATOM      3  H   UNL     1       6.219  -0.536  -0.189  0.00  0.00    +0.210 HD
ENDBRANCH   1   2
BRANCH   1   4
ATOM      4  C   UNL     1       4.866  -2.780   0.214  0.00  0.00    -0.046 C 
BRANCH   4  13
ATOM      5  C   UNL     1      -1.367  -1.283   0.465  0.00  0.00    +0.000 A 
ATOM      6  C   UNL     1      -1.086  -1.829  -0.773  0.00  0.00    +0.000 A 
ATOM      7  C   UNL     1       0.187  -2.284  -1.052  0.00  0.00    +0.002 A 
ATOM      8  C   UNL     1       1.188  -2.196  -0.095  0.00  0.00    -0.061 A 
ATOM      9  C   UNL     1       0.907  -1.649   1.139  0.00  0.00    -0.048 A 
ATOM     10  C   UNL     1      -0.372  -1.194   1.418  0.00  0.00    +0.004 A 
ATOM     11  C   UNL     1       1.966  -1.527   2.204  0.00  0.00    +0.017 C 
ATOM     12  C   UNL     1       3.153  -2.428   1.859  0.00  0.00    -0.074 C 
ATOM     13  N   UNL     1       3.563  -2.153   0.474  0.00  0.00    +0.384 N 
ATOM     14  C   UNL     1       2.561  -2.709  -0.440  0.00  0.00    -0.043 C 
ATOM     15  H   UNL     1       3.632  -1.157   0.333  0.00  0.00    -0.081 HD
ENDBRANCH   4  13
ENDBRANCH   1   4
BRANCH   1  16
ATOM     16  C   UNL     1       7.296  -2.750   0.794  0.00  0.00    +0.106 C 
BRANCH  16  17
ATOM     17  S   UNL     1       8.540  -2.045   1.911  0.00  0.00    -0.083 S 
BRANCH  17  18
ATOM     18  C   UNL     1      10.027  -2.885   1.477  0.00  0.00    +0.192 A 
ATOM     19  N   UNL     1       9.999  -3.790   0.509  0.00  0.00    -0.207 NA
ATOM     20  C   UNL     1      11.102  -4.443   0.154  0.00  0.00    +0.122 A 
ATOM     21  C   UNL     1      12.296  -4.166   0.814  0.00  0.00    +0.086 A 
ATOM     22  C   UNL     1      12.287  -3.210   1.826  0.00  0.00    +0.122 A 
ATOM     23  N   UNL     1      11.146  -2.592   2.123  0.00  0.00    -0.207 NA
ATOM     24  N   UNL     1      11.064  -5.388  -0.860  0.00  0.00    -0.343 N 
ATOM     25  H   UNL     1      10.229  -5.577  -1.315  0.00  0.00    +0.144 HD
ATOM     26  H   UNL     1      11.872  -5.861  -1.113  0.00  0.00    +0.144 HD
BRANCH  22  27
ATOM     27  N   UNL     1      13.452  -2.901   2.511  0.00  0.00    -0.343 N 
ATOM     28  H   UNL     1      14.280  -3.353   2.286  0.00  0.00    +0.144 HD
ATOM     29  H   UNL     1      13.438  -2.234   3.215  0.00  0.00    +0.144 HD
ENDBRANCH  22  27
ENDBRANCH  17  18
ENDBRANCH  16  17
ENDBRANCH   1  16
TORSDOF 7
