REMARK  Name = ZINC66266844
REMARK  5 active torsions:
REMARK  status: ('A' for Active; 'I' for Inactive)
REMARK    1  A    between atoms: C_1  and  C_2
REMARK    2  A    between atoms: C_2  and  C_3
REMARK    3  A    between atoms: C_3  and  C_4
REMARK    4  A    between atoms: C_10  and  C_12
REMARK    5  A    between atoms: C_12  and  N_14
REMARK                            x       y       z     vdW  Elec       q    Type
REMARK                         _______ _______ _______ _____ _____    ______ ____
ROOT
ATOM      1  C   UNL     1       1.468  -2.387  -0.563  0.00  0.00    +0.217 C 
ATOM      2  O   UNL     1       0.927  -3.155   0.203  0.00  0.00    -0.276 OA
ATOM      3  N   UNL     1       1.710  -2.762  -1.835  0.00  0.00    -0.280 N 
ATOM      4  C   UNL     1       2.251  -1.824  -2.837  0.00  0.00    +0.178 C 
ATOM      5  S   UNL     1       2.200  -2.803  -4.397  0.00  0.00    -0.139 S 
ATOM      6  C   UNL     1       1.048  -4.123  -3.806  0.00  0.00    +0.102 C 
ATOM      7  C   UNL     1       1.458  -4.123  -2.301  0.00  0.00    +0.175 C 
ENDROOT
BRANCH   7   8
ATOM      8  C   UNL     1       0.346  -4.729  -1.484  0.00  0.00    +0.260 C 
ATOM      9  O   UNL     1      -0.544  -4.024  -1.051  0.00  0.00    -0.272 OA
BRANCH   8  10
ATOM     10  N   UNL     1       0.339  -6.037  -1.236  0.00  0.00    -0.158 NA
ATOM     11  C   UNL     1      -0.689  -6.586  -0.601  0.00  0.00    +0.146 C 
ATOM     12  N   UNL     1      -1.732  -5.925  -0.050  0.00  0.00    -0.325 N 
ATOM     13  C   UNL     1      -2.787  -6.661   0.616  0.00  0.00    +0.114 C 
ATOM     14  C   UNL     1      -2.517  -8.180   0.577  0.00  0.00    +0.095 C 
ATOM     15  S   UNL     1      -0.930  -8.225  -0.343  0.00  0.00    -0.092 S 
ATOM     16  H   UNL     1      -1.774  -4.957  -0.101  0.00  0.00    +0.148 HD
ENDBRANCH   8  10
ENDBRANCH   7   8
BRANCH   1  17
ATOM     17  C   UNL     1       1.869  -1.012  -0.094  0.00  0.00    +0.096 C 
BRANCH  17  19
ATOM     18  C   UNL     1       1.890   0.553   1.853  0.00  0.00    +0.004 C 
ATOM     19  C   UNL     1       1.483  -0.843   1.377  0.00  0.00    +0.006 C 
ENDBRANCH  17  19
ENDBRANCH   1  17
TORSDOF 4
