REMARK  Name = ZINC49012131
REMARK  6 active torsions:
REMARK  status: ('A' for Active; 'I' for Inactive)
REMARK    1  A    between atoms: C_1  and  C_2
REMARK    2  A    between atoms: C_4  and  C_20
REMARK    3  A    between atoms: C_7  and  C_8
REMARK    4  A    between atoms: N_11  and  C_12
REMARK    5  A    between atoms: N_11  and  C_13
REMARK    6  A    between atoms: C_13  and  C_14
REMARK                            x       y       z     vdW  Elec       q    Type
REMARK                         _______ _______ _______ _____ _____    ______ ____
ROOT
ATOM      1  C   UNL     1      -2.659  -0.838  -1.377  0.00  0.00    +0.044 C 
ATOM      2  C   UNL     1      -1.336  -1.210  -0.759  0.00  0.00    -0.035 A 
ATOM      3  C   UNL     1      -0.146  -0.897  -1.392  0.00  0.00    +0.027 A 
ATOM      4  C   UNL     1       1.053  -1.252  -0.800  0.00  0.00    +0.041 A 
ATOM      5  N   UNL     1       1.084  -1.882   0.358  0.00  0.00    -0.236 NA
ATOM      6  C   UNL     1      -0.025  -2.205   1.005  0.00  0.00    +0.132 A 
ATOM      7  C   UNL     1      -1.281  -1.873   0.471  0.00  0.00    +0.055 A 
ATOM      8  N   UNL     1       0.054  -2.866   2.217  0.00  0.00    -0.317 N 
ATOM      9  C   UNL     1       0.231  -2.106   3.457  0.00  0.00    +0.130 C 
ATOM     10  C   UNL     1       2.348  -0.911  -1.491  0.00  0.00    +0.065 C 
ENDROOT
BRANCH   7  11
ATOM     11  C   UNL     1      -2.521  -2.224   1.191  0.00  0.00    +0.098 C 
ATOM     12  N   UNL     1      -3.318  -1.262   1.655  0.00  0.00    -0.387 N 
ATOM     13  N   UNL     1      -2.843  -3.504   1.378  0.00  0.00    -0.344 N 
ATOM     14  H   UNL     1      -3.083  -0.331   1.519  0.00  0.00    +0.157 HD
ATOM     15  H   UNL     1      -2.263  -4.205   1.041  0.00  0.00    +0.144 HD
ATOM     16  H   UNL     1      -3.658  -3.735   1.851  0.00  0.00    +0.144 HD
ATOM     17  H   UNL     1      -4.132  -1.493   2.128  0.00  0.00    +0.157 HD
ENDBRANCH   7  11
BRANCH   8  18
ATOM     18  C   UNL     1      -0.039  -4.328   2.262  0.00  0.00    +0.109 C 
BRANCH  18  19
ATOM     19  C   UNL     1       1.368  -4.928   2.296  0.00  0.00    +0.006 C 
ATOM     20  C   UNL     1       2.081  -4.630   0.976  0.00  0.00    +0.005 C 
ATOM     21  C   UNL     1       3.489  -5.230   1.010  0.00  0.00    +0.000 C 
ATOM     22  C   UNL     1       3.393  -6.744   1.208  0.00  0.00    +0.000 C 
ATOM     23  C   UNL     1       2.679  -7.042   2.528  0.00  0.00    +0.000 C 
ATOM     24  C   UNL     1       1.272  -6.442   2.494  0.00  0.00    +0.005 C 
ENDBRANCH  18  19
ENDBRANCH   8  18
TORSDOF 3
