REMARK  Name = ZINC65373054
REMARK  5 active torsions:
REMARK  status: ('A' for Active; 'I' for Inactive)
REMARK    1  A    between atoms: C_1  and  C_2
REMARK    2  A    between atoms: N_8  and  C_9
REMARK    3  A    between atoms: C_9  and  C_10
REMARK    4  A    between atoms: C_10  and  N_11
REMARK    5  A    between atoms: C_18  and  O_25
REMARK                            x       y       z     vdW  Elec       q    Type
REMARK                         _______ _______ _______ _____ _____    ______ ____
ROOT
ATOM      1  N   UNL     1       0.063  -2.475   6.034  0.00  0.00    -0.290 N 
ATOM      2  C   UNL     1       1.318  -2.087   6.703  0.00  0.00    +0.203 C 
ATOM      3  C   UNL     1       1.176  -0.662   7.198  0.00  0.00    +0.234 C 
ATOM      4  O   UNL     1       2.071   0.146   7.068  0.00  0.00    -0.274 OA
ATOM      5  N   UNL     1      -0.007  -0.329   7.798  0.00  0.00    -0.288 N 
ATOM      6  C   UNL     1      -0.226   1.065   8.157  0.00  0.00    +0.111 C 
ATOM      7  C   UNL     1      -1.429   1.212   9.088  0.00  0.00    +0.050 C 
ATOM      8  C   UNL     1      -2.602   0.447   8.455  0.00  0.00    +0.118 C 
ATOM      9  C   UNL     1      -2.298  -1.046   8.571  0.00  0.00    +0.063 C 
ATOM     10  C   UNL     1      -0.967  -1.404   7.970  0.00  0.00    +0.164 C 
ATOM     11  C   UNL     1      -1.102  -2.153   6.666  0.00  0.00    +0.237 C 
ATOM     12  O   UNL     1      -2.184  -2.455   6.209  0.00  0.00    -0.274 OA
ENDROOT
BRANCH   8  13
ATOM     13  O   UNL     1      -2.732   0.811   7.079  0.00  0.00    -0.392 OA
ATOM     14  H   UNL     1      -2.899   1.752   6.936  0.00  0.00    +0.210 HD
ENDBRANCH   8  13
BRANCH   1  15
ATOM     15  C   UNL     1       0.067  -3.170   4.745  0.00  0.00    +0.127 C 
BRANCH  15  16
ATOM     16  C   UNL     1       0.048  -2.142   3.611  0.00  0.00    +0.122 C 
BRANCH  16  24
ATOM     17  C   UNL     1      -0.018   1.503   0.010  0.00  0.00    +0.044 C 
ATOM     18  C   UNL     1       0.002  -0.004   0.002  0.00  0.00    -0.046 A 
ATOM     19  C   UNL     1       0.006  -0.708  -1.196  0.00  0.00    +0.021 A 
ATOM     20  C   UNL     1       0.025  -2.087  -1.169  0.00  0.00    +0.084 A 
ATOM     21  N   UNL     1       0.040  -2.742  -0.023  0.00  0.00    -0.350 N 
ATOM     22  C   UNL     1       0.036  -2.108   1.139  0.00  0.00    +0.096 A 
ATOM     23  C   UNL     1       0.023  -0.717   1.187  0.00  0.00    +0.045 A 
ATOM     24  N   UNL     1       0.052  -2.838   2.322  0.00  0.00    -0.329 N 
ATOM     25  H   UNL     1       0.065  -3.807   2.294  0.00  0.00    +0.147 HD
ATOM     26  H   UNL     1       0.054  -3.712  -0.033  0.00  0.00    +0.166 HD
ENDBRANCH  16  24
ENDBRANCH  15  16
ENDBRANCH   1  15
TORSDOF 4
