REMARK  Name = ZINC43618856
REMARK  9 active torsions:
REMARK  status: ('A' for Active; 'I' for Inactive)
REMARK    1  A    between atoms: C_1  and  C_2
REMARK    2  A    between atoms: C_18  and  C_20
REMARK    3  A    between atoms: C_20  and  N_21
REMARK    4  A    between atoms: N_21  and  C_22
REMARK    5  A    between atoms: C_22  and  C_23
REMARK    6  A    between atoms: C_23  and  O_24
REMARK    7  A    between atoms: C_23  and  O_26
REMARK    8  A    between atoms: O_24  and  C_25
REMARK    9  A    between atoms: O_26  and  C_27
REMARK                            x       y       z     vdW  Elec       q    Type
REMARK                         _______ _______ _______ _____ _____    ______ ____
ROOT
ATOM      1  C   UNL     1       0.461   1.740   0.913  0.00  0.00    +0.011 C 
ATOM      2  C   UNL     1       0.488   0.210   0.921  0.00  0.00    -0.023 C 
ATOM      3  C   UNL     1       1.411  -0.293  -0.188  0.00  0.00    +0.007 C 
ATOM      4  C   UNL     1       2.811   0.295  -0.004  0.00  0.00    +0.003 C 
ATOM      5  C   UNL     1       3.401  -0.198   1.322  0.00  0.00    +0.037 C 
ATOM      6  C   UNL     1       2.448   0.176   2.459  0.00  0.00    +0.096 C 
ATOM      7  C   UNL     1       1.002  -0.289   2.279  0.00  0.00    +0.030 C 
ATOM      8  C   UNL     1       0.133   0.338   3.368  0.00  0.00    +0.014 C 
ATOM      9  C   UNL     1      -1.319  -0.034   3.206  0.00  0.00    +0.042 C 
ATOM     10  C   UNL     1      -1.871   0.206   1.786  0.00  0.00    +0.181 C 
ATOM     11  C   UNL     1      -0.926  -0.328   0.722  0.00  0.00    +0.052 C 
ATOM     12  O   UNL     1      -3.035  -0.667   1.784  0.00  0.00    -0.461 OA
ATOM     13  C   UNL     1      -2.675  -1.828   2.372  0.00  0.00    +0.309 C 
ATOM     14  O   UNL     1      -3.150  -2.914   2.135  0.00  0.00    -0.251 OA
ATOM     15  C   UNL     1      -1.571  -1.546   3.366  0.00  0.00    +0.087 C 
ATOM     16  C   UNL     1       3.012   0.228   3.878  0.00  0.00    +0.196 C 
ATOM     17  O   UNL     1       2.674   1.407   3.143  0.00  0.00    -0.368 OA
ENDROOT
BRANCH  15  18
ATOM     18  C   UNL     1      -2.044  -1.868   4.785  0.00  0.00    -0.067 C 
BRANCH  18  19
ATOM     19  N   UNL     1      -2.161  -3.323   4.944  0.00  0.00    +0.383 N 
ATOM     20  H   UNL     1      -2.828  -3.682   4.277  0.00  0.00    -0.086 HD
ATOM     21  H   UNL     1      -1.262  -3.752   4.783  0.00  0.00    -0.086 HD
BRANCH  19  22
ATOM     22  C   UNL     1      -2.615  -3.633   6.306  0.00  0.00    -0.020 C 
BRANCH  22  23
ATOM     23  C   UNL     1      -2.736  -5.149   6.471  0.00  0.00    +0.233 C 
BRANCH  23  24
ATOM     24  O   UNL     1      -3.682  -5.656   5.528  0.00  0.00    -0.356 OA
ATOM     25  C   UNL     1      -4.093  -7.001   5.783  0.00  0.00    +0.197 C 
ENDBRANCH  23  24
BRANCH  23  26
ATOM     26  O   UNL     1      -1.463  -5.756   6.244  0.00  0.00    -0.356 OA
ATOM     27  C   UNL     1      -1.307  -7.031   6.872  0.00  0.00    +0.197 C 
ENDBRANCH  23  26
ENDBRANCH  22  23
ENDBRANCH  19  22
ENDBRANCH  18  19
ENDBRANCH  15  18
TORSDOF 6
