REMARK  Name = ZINC41010711
REMARK  5 active torsions:
REMARK  status: ('A' for Active; 'I' for Inactive)
REMARK    1  A    between atoms: C_1  and  C_2
REMARK    2  A    between atoms: C_4  and  C_7
REMARK    3  A    between atoms: C_7  and  N_8
REMARK    4  A    between atoms: N_8  and  C_9
REMARK    5  A    between atoms: N_14  and  C_17
REMARK                            x       y       z     vdW  Elec       q    Type
REMARK                         _______ _______ _______ _____ _____    ______ ____
ROOT
ATOM      1  C   UNL     1      -3.584  -4.249   1.375  0.00  0.00    +0.026 C 
ATOM      2  C   UNL     1      -4.031  -4.558   2.818  0.00  0.00    +0.090 C 
ATOM      3  C   UNL     1      -5.457  -4.053   2.864  0.00  0.00    +0.221 C 
ATOM      4  O   UNL     1      -6.189  -4.102   3.829  0.00  0.00    -0.275 OA
ATOM      5  N   UNL     1      -5.782  -3.543   1.669  0.00  0.00    -0.240 N 
ATOM      6  C   UNL     1      -4.802  -3.603   0.753  0.00  0.00    +0.208 C 
ATOM      7  O   UNL     1      -4.879  -3.202  -0.389  0.00  0.00    -0.277 OA
ENDROOT
BRANCH   5   8
ATOM      8  C   UNL     1      -7.099  -2.970   1.384  0.00  0.00    +0.084 C 
ATOM      9  C   UNL     1      -7.358  -1.792   2.326  0.00  0.00    +0.023 C 
ATOM     10  C   UNL     1      -8.734  -1.193   2.028  0.00  0.00    +0.002 C 
ATOM     11  C   UNL     1      -9.811  -2.260   2.237  0.00  0.00    +0.000 C 
ATOM     12  C   UNL     1      -9.552  -3.437   1.294  0.00  0.00    +0.002 C 
ATOM     13  C   UNL     1      -8.176  -4.036   1.592  0.00  0.00    +0.023 C 
ENDBRANCH   5   8
BRANCH   1  14
ATOM     14  N   UNL     1      -2.448  -3.317   1.375  0.00  0.00    +0.391 N 
ATOM     15  H   UNL     1      -1.691  -3.709   1.915  0.00  0.00    -0.084 HD
ATOM     16  H   UNL     1      -2.733  -2.439   1.783  0.00  0.00    -0.084 HD
BRANCH  14  17
ATOM     17  C   UNL     1      -1.999  -3.093  -0.006  0.00  0.00    -0.025 C 
BRANCH  17  21
ATOM     18  C   UNL     1      -0.018   1.503   0.010  0.00  0.00    +0.073 C 
ATOM     19  C   UNL     1       0.002  -0.004   0.002  0.00  0.00    +0.075 A 
ATOM     20  N   UNL     1      -1.013  -0.832   0.002  0.00  0.00    -0.251 NA
ATOM     21  C   UNL     1      -0.834  -2.137  -0.006  0.00  0.00    +0.032 A 
ATOM     22  C   UNL     1       0.449  -2.582  -0.014  0.00  0.00    +0.068 A 
ATOM     23  S   UNL     1       1.335  -1.032  -0.017  0.00  0.00    -0.081 S 
ENDBRANCH  17  21
ENDBRANCH  14  17
ENDBRANCH   1  14
TORSDOF 4
