REMARK  Name = ZINC40755334
REMARK  7 active torsions:
REMARK  status: ('A' for Active; 'I' for Inactive)
REMARK    1  A    between atoms: C_1  and  C_2
REMARK    2  A    between atoms: C_5  and  N_9
REMARK    3  A    between atoms: C_6  and  C_8
REMARK    4  A    between atoms: C_11  and  N_28
REMARK    5  A    between atoms: C_12  and  N_16
REMARK    6  A    between atoms: N_16  and  C_17
REMARK    7  A    between atoms: C_24  and  C_27
REMARK                            x       y       z     vdW  Elec       q    Type
REMARK                         _______ _______ _______ _____ _____    ______ ____
ROOT
ATOM      1  N   UNL     1      -0.725  -4.163  -0.029  0.00  0.00    -0.298 N 
ATOM      2  C   UNL     1      -0.601  -4.854  -1.229  0.00  0.00    +0.149 A 
ATOM      3  C   UNL     1      -0.532  -6.249  -1.240  0.00  0.00    +0.106 A 
ATOM      4  C   UNL     1      -0.408  -6.893  -2.473  0.00  0.00    +0.149 A 
ATOM      5  N   UNL     1      -0.362  -6.158  -3.582  0.00  0.00    -0.219 NA
ATOM      6  C   UNL     1      -0.430  -4.843  -3.527  0.00  0.00    +0.225 A 
ATOM      7  N   UNL     1      -0.552  -4.197  -2.385  0.00  0.00    -0.219 NA
ATOM      8  H   UNL     1      -0.864  -4.649   0.799  0.00  0.00    +0.154 HD
ENDROOT
BRANCH   1  13
ATOM      9  C   UNL     1      -0.413   1.500   0.027  0.00  0.00    +0.044 C 
ATOM     10  C   UNL     1      -0.495  -0.005   0.012  0.00  0.00    -0.050 A 
ATOM     11  C   UNL     1       0.146  -0.722  -0.982  0.00  0.00    +0.005 A 
ATOM     12  C   UNL     1       0.072  -2.100  -0.999  0.00  0.00    +0.024 A 
ATOM     13  C   UNL     1      -0.647  -2.768  -0.015  0.00  0.00    +0.035 A 
ATOM     14  C   UNL     1      -1.289  -2.045   0.983  0.00  0.00    -0.029 A 
ATOM     15  C   UNL     1      -1.207  -0.666   0.996  0.00  0.00    +0.008 A 
ATOM     16  C   UNL     1      -2.070  -2.765   2.052  0.00  0.00    +0.045 C 
ENDBRANCH   1  13
BRANCH   3  17
ATOM     17  N   UNL     1      -0.584  -6.983  -0.045  0.00  0.00    -0.353 N 
ATOM     18  H   UNL     1      -0.670  -6.522   0.804  0.00  0.00    +0.143 HD
ATOM     19  H   UNL     1      -0.535  -7.952  -0.069  0.00  0.00    +0.143 HD
ENDBRANCH   3  17
BRANCH   4  20
ATOM     20  N   UNL     1      -0.335  -8.279  -2.541  0.00  0.00    -0.296 N 
ATOM     21  H   UNL     1      -0.287  -8.803  -1.726  0.00  0.00    +0.154 HD
BRANCH  20  22
ATOM     22  C   UNL     1      -0.330  -8.917  -3.781  0.00  0.00    +0.059 A 
ATOM     23  C   UNL     1      -0.929  -8.322  -4.870  0.00  0.00    +0.025 A 
ATOM     24  C   UNL     1      -0.932  -8.949  -6.113  0.00  0.00    +0.003 A 
ATOM     25  C   UNL     1      -0.344 -10.165  -6.287  0.00  0.00    +0.010 A 
ATOM     26  C   UNL     1       0.278 -10.803  -5.201  0.00  0.00    +0.002 A 
ATOM     27  C   UNL     1       0.293 -10.175  -3.932  0.00  0.00    +0.092 A 
ATOM     28  N   UNL     1       0.888 -10.778  -2.898  0.00  0.00    -0.250 NA
ATOM     29  C   UNL     1       1.468 -11.946  -3.032  0.00  0.00    +0.039 A 
ATOM     30  C   UNL     1       1.495 -12.615  -4.253  0.00  0.00    +0.023 A 
ATOM     31  C   UNL     1       0.894 -12.061  -5.348  0.00  0.00    +0.012 A 
ATOM     32  C   UNL     1       2.124 -12.581  -1.833  0.00  0.00    +0.065 C 
ENDBRANCH  20  22
ENDBRANCH   4  20
TORSDOF 4
