REMARK  Name = ZINC37813005
REMARK  6 active torsions:
REMARK  status: ('A' for Active; 'I' for Inactive)
REMARK    1  A    between atoms: C_1  and  C_2
REMARK    2  A    between atoms: C_2  and  C_3
REMARK    3  A    between atoms: C_3  and  C_4
REMARK    4  A    between atoms: C_4  and  C_5
REMARK    5  A    between atoms: C_5  and  C_7
REMARK    6  A    between atoms: C_5  and  N_22
REMARK                            x       y       z     vdW  Elec       q    Type
REMARK                         _______ _______ _______ _____ _____    ______ ____
ROOT
ATOM      1  C   UNL     1      -2.831  -4.094  -0.117  0.00  0.00    +0.201 C 
ATOM      2  O   UNL     1      -2.965  -4.791   0.867  0.00  0.00    -0.277 OA
ATOM      3  N   UNL     1      -2.666  -4.662  -1.328  0.00  0.00    -0.300 N 
ATOM      4  C   UNL     1      -2.496  -3.830  -2.527  0.00  0.00    +0.126 C 
ATOM      5  C   UNL     1      -1.196  -4.242  -3.229  0.00  0.00    +0.127 C 
ATOM      6  N   UNL     1      -1.182  -5.704  -3.373  0.00  0.00    -0.297 N 
ATOM      7  C   UNL     1      -1.352  -6.536  -2.174  0.00  0.00    +0.127 C 
ATOM      8  C   UNL     1      -2.647  -6.125  -1.472  0.00  0.00    +0.126 C 
ATOM      9  C   UNL     1      -1.013  -6.288  -4.617  0.00  0.00    +0.218 A 
ATOM     10  N   UNL     1      -0.857  -5.511  -5.680  0.00  0.00    -0.222 NA
ATOM     11  C   UNL     1      -0.693  -6.036  -6.883  0.00  0.00    +0.131 A 
ATOM     12  C   UNL     1      -0.686  -7.416  -7.023  0.00  0.00    +0.054 A 
ATOM     13  C   UNL     1      -0.851  -8.198  -5.890  0.00  0.00    +0.131 A 
ATOM     14  N   UNL     1      -1.005  -7.609  -4.716  0.00  0.00    -0.222 NA
ATOM     15 BR   UNL     1      -0.455  -8.213  -8.723  0.00  0.00    -0.047 Br
ENDROOT
BRANCH   1  16
ATOM     16  C   UNL     1      -2.848  -2.593   0.015  0.00  0.00    +0.013 C 
BRANCH  16  17
ATOM     17  N   UNL     1      -3.498  -2.220   1.279  0.00  0.00    +0.386 N 
ATOM     18  H   UNL     1      -2.986  -2.620   2.051  0.00  0.00    -0.089 HD
ATOM     19  H   UNL     1      -3.510  -1.215   1.367  0.00  0.00    -0.089 HD
ATOM     20  H   UNL     1      -4.444  -2.569   1.286  0.00  0.00    -0.089 HD
ENDBRANCH  16  17
BRANCH  16  21
ATOM     21  C   UNL     1      -1.413  -2.063   0.004  0.00  0.00    -0.007 C 
BRANCH  21  22
ATOM     22  C   UNL     1      -1.433  -0.534   0.013  0.00  0.00    -0.001 C 
BRANCH  22  24
ATOM     23  C   UNL     1      -0.019   1.526   0.010  0.00  0.00    +0.004 C 
ATOM     24  C   UNL     1       0.002  -0.004   0.002  0.00  0.00    -0.003 C 
ENDBRANCH  22  24
ENDBRANCH  21  22
ENDBRANCH  16  21
ENDBRANCH   1  16
TORSDOF 5
