REMARK  Name = ZINC65481310
REMARK  13 active torsions:
REMARK  status: ('A' for Active; 'I' for Inactive)
REMARK    1  A    between atoms: C_1  and  C_2
REMARK    2  A    between atoms: C_2  and  N_3
REMARK    3  A    between atoms: N_3  and  C_4
REMARK    4  A    between atoms: N_3  and  C_6
REMARK    5  A    between atoms: C_4  and  C_5
REMARK    6  A    between atoms: C_6  and  C_7
REMARK    7  A    between atoms: C_6  and  C_22
REMARK    8  A    between atoms: C_7  and  N_8
REMARK    9  A    between atoms: N_11  and  C_12
REMARK   10  A    between atoms: C_14  and  C_20
REMARK   11  A    between atoms: C_14  and  C_21
REMARK   12  A    between atoms: C_16  and  C_18
REMARK   13  A    between atoms: C_16  and  C_19
REMARK                            x       y       z     vdW  Elec       q    Type
REMARK                         _______ _______ _______ _____ _____    ______ ____
ROOT
ATOM      1  N   UNL     1       0.706  -1.964  -3.941  0.00  0.00    -0.301 N 
ATOM      2  C   UNL     1       1.593  -2.620  -4.716  0.00  0.00    +0.300 C 
ATOM      3  O   UNL     1       2.192  -2.025  -5.590  0.00  0.00    -0.253 OA
ATOM      4  N   UNL     1       1.814  -3.935  -4.522  0.00  0.00    -0.297 N 
ATOM      5  H   UNL     1       0.228  -2.439  -3.243  0.00  0.00    +0.150 HD
ATOM      6  H   UNL     1       1.336  -4.410  -3.825  0.00  0.00    +0.151 HD
ENDROOT
BRANCH   4   7
ATOM      7  C   UNL     1       2.780  -4.649  -5.367  0.00  0.00    +0.072 C 
ATOM      8  C   UNL     1       4.177  -4.509  -4.761  0.00  0.00    +0.009 C 
ATOM      9  C   UNL     1       5.193  -5.258  -5.623  0.00  0.00    -0.072 C 
ATOM     10  N   UNL     1       4.814  -6.647  -5.835  0.00  0.00    +0.386 N 
ATOM     11  C   UNL     1       3.438  -6.921  -6.218  0.00  0.00    -0.072 C 
ATOM     12  C   UNL     1       2.418  -6.134  -5.401  0.00  0.00    +0.009 C 
ATOM     13  C   UNL     1       3.207  -6.680  -7.713  0.00  0.00    -0.010 C 
ATOM     14  C   UNL     1       3.173  -8.423  -5.958  0.00  0.00    -0.010 C 
ATOM     15  C   UNL     1       6.537  -5.253  -4.858  0.00  0.00    -0.010 C 
ATOM     16  C   UNL     1       5.419  -4.516  -6.940  0.00  0.00    -0.010 C 
ATOM     17  H   UNL     1       5.431  -7.044  -6.548  0.00  0.00    -0.084 HD
ATOM     18  H   UNL     1       5.020  -7.170  -4.981  0.00  0.00    -0.084 HD
ENDBRANCH   4   7
BRANCH   1  19
ATOM     19  C   UNL     1       0.466  -0.535  -4.151  0.00  0.00    +0.098 C 
BRANCH  19  20
ATOM     20  C   UNL     1      -0.517  -0.022  -3.096  0.00  0.00    +0.016 C 
BRANCH  20  21
ATOM     21  C   UNL     1      -0.697   1.465  -3.258  0.00  0.00    +0.093 A 
ATOM     22  C   UNL     1      -1.779   2.075  -3.774  0.00  0.00    +0.043 A 
ATOM     23  C   UNL     1      -1.523   3.465  -3.736  0.00  0.00    +0.041 A 
ATOM     24  C   UNL     1      -0.300   3.621  -3.199  0.00  0.00    +0.195 A 
ATOM     25  O   UNL     1       0.194   2.407  -2.905  0.00  0.00    -0.469 OA
ENDBRANCH  20  21
BRANCH  20  26
ATOM     26  N   UNL     1       0.012  -0.309  -1.755  0.00  0.00    +0.387 N 
ATOM     27  H   UNL     1       0.065  -1.307  -1.621  0.00  0.00    -0.081 HD
BRANCH  26  29
ATOM     28  C   UNL     1       2.403  -0.760  -2.030  0.00  0.00    -0.017 C 
ATOM     29  C   UNL     1       1.353   0.275  -1.623  0.00  0.00    -0.081 C 
ENDBRANCH  26  29
BRANCH  26  30
ATOM     30  C   UNL     1      -0.879   0.275  -0.743  0.00  0.00    -0.081 C 
ATOM     31  C   UNL     1      -2.238  -0.425  -0.795  0.00  0.00    -0.017 C 
ENDBRANCH  26  30
ENDBRANCH  20  26
ENDBRANCH  19  20
ENDBRANCH   1  19
TORSDOF 7
