REMARK  Name = ZINC40647059
REMARK  4 active torsions:
REMARK  status: ('A' for Active; 'I' for Inactive)
REMARK    1  A    between atoms: C_5  and  C_7
REMARK    2  A    between atoms: N_9  and  N_10
REMARK    3  A    between atoms: C_12  and  N_25
REMARK    4  A    between atoms: C_13  and  N_17
REMARK                            x       y       z     vdW  Elec       q    Type
REMARK                         _______ _______ _______ _____ _____    ______ ____
ROOT
ATOM      1  N   UNL     1       0.123  -4.257  -0.006  0.00  0.00    -0.246 N 
ATOM      2  C   UNL     1      -1.065  -4.972  -0.003  0.00  0.00    +0.171 A 
ATOM      3  C   UNL     1      -1.051  -6.364  -0.010  0.00  0.00    +0.207 A 
ATOM      4  C   UNL     1      -2.270  -7.035  -0.006  0.00  0.00    +0.160 A 
ATOM      5  N   UNL     1      -3.398  -6.327   0.004  0.00  0.00    -0.218 NA
ATOM      6  C   UNL     1      -3.369  -5.010   0.010  0.00  0.00    +0.225 A 
ATOM      7  N   UNL     1      -2.236  -4.338   0.012  0.00  0.00    -0.217 NA
ATOM      8  H   UNL     1       0.971  -4.727  -0.017  0.00  0.00    +0.172 HD
ENDROOT
BRANCH   4   9
ATOM      9  N   UNL     1      -2.310  -8.423  -0.013  0.00  0.00    -0.282 N 
ATOM     10  C   UNL     1      -3.530  -9.085   0.101  0.00  0.00    +0.124 A 
ATOM     11  C   UNL     1      -3.554 -10.472   0.203  0.00  0.00    +0.045 A 
ATOM     12  C   UNL     1      -4.772 -11.117   0.316  0.00  0.00    +0.025 A 
ATOM     13  C   UNL     1      -5.930 -10.349   0.324  0.00  0.00    +0.059 A 
ATOM     14  C   UNL     1      -5.832  -8.975   0.219  0.00  0.00    +0.132 A 
ATOM     15  N   UNL     1      -4.655  -8.387   0.117  0.00  0.00    -0.239 NA
ATOM     16 CL   UNL     1      -7.485 -11.109   0.463  0.00  0.00    -0.082 Cl
ATOM     17  H   UNL     1      -1.488  -8.931  -0.097  0.00  0.00    +0.155 HD
ENDBRANCH   4   9
BRANCH   1  20
ATOM     18  C   UNL     1       1.252  -2.161   0.004  0.00  0.00    +0.261 C 
ATOM     19  O   UNL     1       2.315  -2.750  -0.010  0.00  0.00    -0.269 OA
ATOM     20  N   UNL     1       0.097  -2.857   0.007  0.00  0.00    -0.231 N 
ATOM     21  H   UNL     1      -0.752  -2.387   0.018  0.00  0.00    +0.173 HD
BRANCH  18  26
ATOM     22  C   UNL     1      -0.014   1.374   0.043  0.00  0.00    +0.001 A 
ATOM     23  C   UNL     1       1.173   2.086   0.041  0.00  0.00    +0.001 A 
ATOM     24  C   UNL     1       2.386   1.421   0.026  0.00  0.00    +0.016 A 
ATOM     25  C   UNL     1       2.419   0.040   0.014  0.00  0.00    +0.030 A 
ATOM     26  C   UNL     1       1.224  -0.684   0.017  0.00  0.00    +0.052 A 
ATOM     27  C   UNL     1       0.004  -0.005   0.032  0.00  0.00    +0.014 A 
ATOM     28 BR   UNL     1       4.077  -0.868  -0.007  0.00  0.00    -0.050 Br
ENDBRANCH  18  26
ENDBRANCH   1  20
BRANCH   3  29
ATOM     29  N   UNL     1       0.227  -7.111  -0.021  0.00  0.00    +0.063 N 
ATOM     30  O   UNL     1       0.755  -7.421   1.021  0.00  0.00    -0.126 OA
ATOM     31  O   UNL     1       0.742  -7.411  -1.073  0.00  0.00    -0.126 OA
ENDBRANCH   3  29
TORSDOF 4
