REMARK  Name = ZINC55064480
REMARK  10 active torsions:
REMARK  status: ('A' for Active; 'I' for Inactive)
REMARK    1  A    between atoms: C_1  and  C_2
REMARK    2  A    between atoms: C_2  and  C_3
REMARK    3  A    between atoms: C_3  and  C_5
REMARK    4  A    between atoms: C_3  and  N_6
REMARK    5  A    between atoms: N_9  and  C_12
REMARK    6  A    between atoms: C_12  and  C_14
REMARK    7  A    between atoms: C_12  and  C_16
REMARK    8  A    between atoms: C_14  and  N_15
REMARK    9  A    between atoms: C_18  and  C_23
REMARK   10  A    between atoms: C_20  and  C_22
REMARK                            x       y       z     vdW  Elec       q    Type
REMARK                         _______ _______ _______ _____ _____    ______ ____
ROOT
ATOM      1  C   UNL     1      -1.339   1.122  -6.359  0.00  0.00    +0.069 C 
ENDROOT
BRANCH   1   2
ATOM      2  C   UNL     1      -0.832   0.453  -7.611  0.00  0.00    -0.032 A 
ATOM      3  C   UNL     1       0.524   0.422  -7.877  0.00  0.00    +0.008 A 
ATOM      4  C   UNL     1       0.990  -0.192  -9.025  0.00  0.00    -0.050 A 
ATOM      5  C   UNL     1       0.099  -0.775  -9.906  0.00  0.00    +0.006 A 
ATOM      6  C   UNL     1      -1.257  -0.745  -9.640  0.00  0.00    -0.050 A 
ATOM      7  C   UNL     1      -1.722  -0.135  -8.490  0.00  0.00    +0.008 A 
ATOM      8  C   UNL     1      -2.228  -1.380 -10.601  0.00  0.00    +0.044 C 
ATOM      9  C   UNL     1       2.468  -0.224  -9.315  0.00  0.00    +0.044 C 
ENDBRANCH   1   2
BRANCH   1  13
ATOM     10  N   UNL     1       0.195  -0.219  -2.656  0.00  0.00    +0.383 N 
ATOM     11  C   UNL     1       0.145   1.228  -2.899  0.00  0.00    -0.063 C 
ATOM     12  C   UNL     1      -0.853   1.523  -4.021  0.00  0.00    +0.066 C 
ATOM     13  N   UNL     1      -0.436   0.818  -5.241  0.00  0.00    -0.301 NA
ATOM     14  C   UNL     1      -0.358  -0.630  -5.006  0.00  0.00    +0.066 C 
ATOM     15  C   UNL     1       0.636  -0.908  -3.876  0.00  0.00    -0.063 C 
ATOM     16  H   UNL     1      -0.724  -0.548  -2.397  0.00  0.00    -0.081 HD
BRANCH  10  17
ATOM     17  C   UNL     1       1.139  -0.500  -1.566  0.00  0.00    -0.072 C 
ATOM     18  C   UNL     1       2.555  -0.128  -2.010  0.00  0.00    -0.013 C 
BRANCH  17  20
ATOM     19  C   UNL     1      -0.287  -2.332  -0.642  0.00  0.00    +0.002 C 
ATOM     20  C   UNL     1       1.089  -1.989  -1.218  0.00  0.00    -0.019 C 
ENDBRANCH  17  20
ENDBRANCH  10  17
ENDBRANCH   1  13
BRANCH   1  21
ATOM     21  C   UNL     1      -1.392   2.635  -6.576  0.00  0.00    -0.063 C 
BRANCH  21  22
ATOM     22  N   UNL     1      -2.374   2.946  -7.623  0.00  0.00    +0.379 N 
ATOM     23  H   UNL     1      -2.135   2.446  -8.466  0.00  0.00    -0.090 HD
ATOM     24  H   UNL     1      -3.293   2.668  -7.316  0.00  0.00    -0.090 HD
ATOM     25  H   UNL     1      -2.366   3.938  -7.808  0.00  0.00    -0.090 HD
ENDBRANCH  21  22
ENDBRANCH   1  21
TORSDOF 6
