REMARK  Name = ZINC61642050
REMARK  11 active torsions:
REMARK  status: ('A' for Active; 'I' for Inactive)
REMARK    1  A    between atoms: C_1  and  C_2
REMARK    2  A    between atoms: C_2  and  C_3
REMARK    3  A    between atoms: C_3  and  C_5
REMARK    4  A    between atoms: C_3  and  N_24
REMARK    5  A    between atoms: C_5  and  C_7
REMARK    6  A    between atoms: C_5  and  N_14
REMARK    7  A    between atoms: C_12  and  C_13
REMARK    8  A    between atoms: C_18  and  C_20
REMARK    9  A    between atoms: C_20  and  N_21
REMARK   10  A    between atoms: N_21  and  C_22
REMARK   11  A    between atoms: N_21  and  C_23
REMARK                            x       y       z     vdW  Elec       q    Type
REMARK                         _______ _______ _______ _____ _____    ______ ____
ROOT
ATOM      1  C   UNL     1      -1.685  -2.144  -0.135  0.00  0.00    +0.073 C 
ENDROOT
BRANCH   1   2
ATOM      2  C   UNL     1      -2.849  -3.032  -0.491  0.00  0.00    -0.029 A 
ATOM      3  C   UNL     1      -3.846  -2.563  -1.325  0.00  0.00    +0.005 A 
ATOM      4  C   UNL     1      -4.914  -3.378  -1.652  0.00  0.00    +0.000 A 
ATOM      5  C   UNL     1      -4.984  -4.663  -1.145  0.00  0.00    +0.000 A 
ATOM      6  C   UNL     1      -3.986  -5.132  -0.312  0.00  0.00    +0.003 A 
ATOM      7  C   UNL     1      -2.916  -4.318   0.012  0.00  0.00    -0.046 A 
ATOM      8  C   UNL     1      -1.825  -4.832   0.916  0.00  0.00    +0.044 C 
ENDBRANCH   1   2
BRANCH   1   9
ATOM      9  N   UNL     1      -1.157  -1.516  -1.353  0.00  0.00    -0.296 NA
ATOM     10  C   UNL     1      -1.564  -2.271  -2.557  0.00  0.00    +0.085 C 
ATOM     11  C   UNL     1      -0.376  -2.122  -3.539  0.00  0.00    +0.017 C 
ATOM     12  C   UNL     1       0.837  -2.178  -2.574  0.00  0.00    +0.018 C 
ATOM     13  C   UNL     1       0.316  -1.449  -1.317  0.00  0.00    +0.041 C 
BRANCH  13  14
ATOM     14  C   UNL     1       0.838  -2.144  -0.058  0.00  0.00    -0.061 C 
BRANCH  14  15
ATOM     15  N   UNL     1       2.298  -1.996   0.013  0.00  0.00    +0.377 N 
ATOM     16  C   UNL     1       2.640  -0.574   0.152  0.00  0.00    -0.097 C 
ATOM     17  C   UNL     1       2.809  -2.739   1.173  0.00  0.00    -0.097 C 
ATOM     18  H   UNL     1       2.714  -2.361  -0.831  0.00  0.00    -0.083 HD
ENDBRANCH  14  15
ENDBRANCH  13  14
ENDBRANCH   1   9
BRANCH   1  19
ATOM     19  C   UNL     1      -2.151  -1.058   0.837  0.00  0.00    -0.053 C 
BRANCH  19  20
ATOM     20  N   UNL     1      -2.559  -1.678   2.105  0.00  0.00    +0.381 N 
ATOM     21  H   UNL     1      -2.944  -0.972   2.716  0.00  0.00    -0.090 HD
ATOM     22  H   UNL     1      -3.258  -2.383   1.925  0.00  0.00    -0.090 HD
ATOM     23  H   UNL     1      -1.757  -2.103   2.545  0.00  0.00    -0.090 HD
ENDBRANCH  19  20
BRANCH  19  25
ATOM     24  C   UNL     1      -1.528   1.123   1.886  0.00  0.00    +0.002 C 
ATOM     25  C   UNL     1      -1.005  -0.077   1.095  0.00  0.00    -0.018 C 
ENDBRANCH  19  25
ENDBRANCH   1  19
TORSDOF 7
