REMARK  Name = ZINC22436969
REMARK  5 active torsions:
REMARK  status: ('A' for Active; 'I' for Inactive)
REMARK    1  A    between atoms: C_1  and  C_2
REMARK    2  A    between atoms: C_3  and  N_9
REMARK    3  A    between atoms: C_10  and  C_14
REMARK    4  A    between atoms: C_14  and  N_21
REMARK    5  A    between atoms: C_17  and  C_20
REMARK                            x       y       z     vdW  Elec       q    Type
REMARK                         _______ _______ _______ _____ _____    ______ ____
ROOT
ATOM      1  N   UNL     1       2.520   0.676  -0.761  0.00  0.00    -0.198 N 
ATOM      2  C   UNL     1       3.838   0.576  -1.039  0.00  0.00    +0.145 A 
ATOM      3  N   UNL     1       4.004  -0.509  -1.749  0.00  0.00    -0.114 NA
ATOM      4  N   UNL     1       2.881  -1.103  -1.938  0.00  0.00    -0.023 NA
ATOM      5  N   UNL     1       1.929  -0.448  -1.364  0.00  0.00    -0.039 NA
ENDROOT
BRANCH   1   8
ATOM      6  C   UNL     1      -0.081   0.145   0.266  0.00  0.00    +0.047 C 
ATOM      7  C   UNL     1       0.611   1.464   0.495  0.00  0.00    -0.007 A 
ATOM      8  C   UNL     1       1.879   1.683  -0.024  0.00  0.00    +0.073 A 
ATOM      9  C   UNL     1       2.513   2.899   0.189  0.00  0.00    +0.028 A 
ATOM     10  C   UNL     1       1.880   3.889   0.916  0.00  0.00    +0.004 A 
ATOM     11  C   UNL     1       0.617   3.669   1.431  0.00  0.00    +0.020 A 
ATOM     12  C   UNL     1      -0.018   2.458   1.221  0.00  0.00    +0.046 A 
ATOM     13 CL   UNL     1      -1.605   2.185   1.871  0.00  0.00    -0.083 Cl
ENDBRANCH   1   8
BRANCH   2  14
ATOM     14  C   UNL     1       4.917   1.538  -0.612  0.00  0.00    -0.008 C 
ATOM     15  C   UNL     1       4.892   2.769  -1.520  0.00  0.00    -0.005 C 
ATOM     16  C   UNL     1       5.987   3.745  -1.087  0.00  0.00    +0.002 C 
ATOM     17  C   UNL     1       7.351   3.061  -1.193  0.00  0.00    -0.014 C 
ATOM     18  C   UNL     1       7.377   1.830  -0.285  0.00  0.00    +0.002 C 
ATOM     19  C   UNL     1       6.281   0.854  -0.719  0.00  0.00    -0.005 C 
ATOM     20  C   UNL     1       7.595   2.631  -2.641  0.00  0.00    +0.007 C 
BRANCH  14  21
ATOM     21  N   UNL     1       4.683   1.950   0.778  0.00  0.00    +0.387 N 
ATOM     22  H   UNL     1       5.471   2.652   1.090  0.00  0.00    -0.089 HD
ATOM     23  H   UNL     1       4.701   1.065   1.431  0.00  0.00    -0.089 HD
ATOM     24  H   UNL     1       3.702   2.442   0.855  0.00  0.00    -0.089 HD
ENDBRANCH  14  21
ENDBRANCH   2  14
TORSDOF 3
