REMARK  Name = ZINC59311431
REMARK  10 active torsions:
REMARK  status: ('A' for Active; 'I' for Inactive)
REMARK    1  A    between atoms: C_1  and  C_2
REMARK    2  A    between atoms: C_2  and  C_23
REMARK    3  A    between atoms: N_3  and  N_4
REMARK    4  A    between atoms: C_7  and  S_10
REMARK    5  A    between atoms: S_10  and  C_11
REMARK    6  A    between atoms: C_11  and  C_12
REMARK    7  A    between atoms: N_14  and  C_15
REMARK    8  A    between atoms: C_20  and  S_21
REMARK    9  A    between atoms: S_21  and  C_22
REMARK   10  A    between atoms: C_26  and  N_29
REMARK                            x       y       z     vdW  Elec       q    Type
REMARK                         _______ _______ _______ _____ _____    ______ ____
ROOT
ATOM      1  N   UNL     1       0.090   0.033   2.337  0.00  0.00    -0.205 N 
ATOM      2  C   UNL     1       0.101  -0.665   3.531  0.00  0.00    +0.232 A 
ATOM      3  N   UNL     1       0.116  -1.974   3.663  0.00  0.00    -0.186 NA
ATOM      4  C   UNL     1       0.123  -2.297   4.960  0.00  0.00    +0.211 A 
ATOM      5  N   UNL     1       0.112  -1.195   5.673  0.00  0.00    -0.144 NA
ATOM      6  N   UNL     1       0.103  -0.122   4.768  0.00  0.00    -0.245 N 
ATOM      7  H   UNL     1       0.083   1.003   2.342  0.00  0.00    +0.177 HD
ATOM      8  H   UNL     1       0.097   0.823   4.987  0.00  0.00    +0.192 HD
ENDROOT
BRANCH   1  11
ATOM      9  C   UNL     1       0.068   1.500   0.007  0.00  0.00    +0.068 C 
ATOM     10  C   UNL     1       0.079  -0.007  -0.001  0.00  0.00    +0.063 C 
ATOM     11  N   UNL     1       0.089  -0.661   1.120  0.00  0.00    -0.184 NA
BRANCH  10  12
ATOM     12  C   UNL     1       0.078  -0.738  -1.281  0.00  0.00    -0.002 A 
ATOM     13  C   UNL     1       0.073  -0.036  -2.489  0.00  0.00    +0.012 A 
ATOM     14  C   UNL     1       0.072  -0.727  -3.684  0.00  0.00    +0.033 A 
ATOM     15  C   UNL     1       0.075  -2.110  -3.687  0.00  0.00    +0.126 A 
ATOM     16  C   UNL     1       0.080  -2.812  -2.494  0.00  0.00    +0.033 A 
ATOM     17  C   UNL     1       0.088  -2.135  -1.292  0.00  0.00    +0.012 A 
BRANCH  15  18
ATOM     18  N   UNL     1       0.074  -2.844  -4.973  0.00  0.00    +0.056 N 
ATOM     19  O   UNL     1       0.069  -2.234  -6.017  0.00  0.00    -0.126 OA
ATOM     20  O   UNL     1       0.077  -4.053  -4.979  0.00  0.00    -0.126 OA
ENDBRANCH  15  18
ENDBRANCH  10  12
ENDBRANCH   1  11
BRANCH   4  21
ATOM     21  S   UNL     1       0.144  -3.935   5.608  0.00  0.00    -0.075 S 
BRANCH  21  22
ATOM     22  C   UNL     1       0.146  -3.696   7.407  0.00  0.00    +0.173 C 
BRANCH  22  23
ATOM     23  C   UNL     1       0.163  -5.038   8.092  0.00  0.00    +0.228 C 
ATOM     24  O   UNL     1       0.173  -6.056   7.432  0.00  0.00    -0.275 OA
ATOM     25  N   UNL     1       0.167  -5.107   9.438  0.00  0.00    -0.284 N 
ATOM     26  H   UNL     1       0.225  -4.295   9.965  0.00  0.00    +0.155 HD
BRANCH  25  27
ATOM     27  C   UNL     1       0.088  -6.352  10.076  0.00  0.00    +0.047 A 
ATOM     28  C   UNL     1       0.694  -7.463   9.509  0.00  0.00    +0.024 A 
ATOM     29  C   UNL     1       0.615  -8.691  10.140  0.00  0.00    +0.002 A 
ATOM     30  C   UNL     1      -0.067  -8.816  11.336  0.00  0.00    +0.001 A 
ATOM     31  C   UNL     1      -0.674  -7.714  11.909  0.00  0.00    +0.016 A 
ATOM     32  C   UNL     1      -0.596  -6.477  11.286  0.00  0.00    +0.029 A 
BRANCH  32  33
ATOM     33  S   UNL     1      -1.363  -5.069  12.016  0.00  0.00    -0.127 S 
ATOM     34  C   UNL     1      -2.107  -5.715  13.539  0.00  0.00    +0.090 C 
ENDBRANCH  32  33
ENDBRANCH  25  27
ENDBRANCH  22  23
ENDBRANCH  21  22
ENDBRANCH   4  21
TORSDOF 8
