REMARK  Name = ZINC46280440
REMARK  13 active torsions:
REMARK  status: ('A' for Active; 'I' for Inactive)
REMARK    1  A    between atoms: C_1  and  C_2
REMARK    2  A    between atoms: C_2  and  N_3
REMARK    3  A    between atoms: N_3  and  C_4
REMARK    4  A    between atoms: N_3  and  C_6
REMARK    5  A    between atoms: C_4  and  C_5
REMARK    6  A    between atoms: C_6  and  C_8
REMARK    7  A    between atoms: C_6  and  C_9
REMARK    8  A    between atoms: C_9  and  N_10
REMARK    9  A    between atoms: N_13  and  N_14
REMARK   10  A    between atoms: C_15  and  C_17
REMARK   11  A    between atoms: C_19  and  C_29
REMARK   12  A    between atoms: N_20  and  C_23
REMARK   13  A    between atoms: C_21  and  C_22
REMARK                            x       y       z     vdW  Elec       q    Type
REMARK                         _______ _______ _______ _____ _____    ______ ____
ROOT
ATOM      1  N   UNL     1       5.156  -0.310  -3.411  0.00  0.00    -0.229 N 
ATOM      2  C   UNL     1       6.407   0.185  -3.489  0.00  0.00    +0.262 C 
ATOM      3  O   UNL     1       6.964   0.264  -4.567  0.00  0.00    -0.269 OA
ATOM      4  H   UNL     1       4.712  -0.374  -2.551  0.00  0.00    +0.173 HD
ENDROOT
BRANCH   2   5
ATOM      5  C   UNL     1       7.100   0.629  -2.268  0.00  0.00    +0.059 A 
ATOM      6  C   UNL     1       6.579   0.596  -0.897  0.00  0.00    +0.036 A 
ATOM      7  C   UNL     1       7.548   1.097  -0.111  0.00  0.00    +0.022 A 
ATOM      8  N   UNL     1       8.619   1.433  -0.889  0.00  0.00    -0.317 N 
ATOM      9  C   UNL     1       8.362   1.150  -2.183  0.00  0.00    +0.033 A 
ATOM     10  C   UNL     1       9.303   1.374  -3.339  0.00  0.00    +0.064 C 
ATOM     11  C   UNL     1       7.466   1.260   1.385  0.00  0.00    +0.064 C 
BRANCH   8  12
ATOM     12  C   UNL     1       9.816   1.985  -0.412  0.00  0.00    +0.047 A 
ATOM     13  C   UNL     1      10.180   3.275  -0.775  0.00  0.00    +0.026 A 
ATOM     14  C   UNL     1      11.359   3.817  -0.303  0.00  0.00    +0.002 A 
ATOM     15  C   UNL     1      12.177   3.076   0.531  0.00  0.00    +0.000 A 
ATOM     16  C   UNL     1      11.817   1.792   0.894  0.00  0.00    +0.002 A 
ATOM     17  C   UNL     1      10.636   1.246   0.430  0.00  0.00    +0.026 A 
ENDBRANCH   8  12
ENDBRANCH   2   5
BRANCH   1  21
ATOM     18  N   UNL     1       2.629  -1.316  -3.300  0.00  0.00    -0.300 N 
ATOM     19  C   UNL     1       3.246  -1.228  -4.495  0.00  0.00    +0.316 C 
ATOM     20  O   UNL     1       2.673  -1.595  -5.503  0.00  0.00    -0.251 OA
ATOM     21  N   UNL     1       4.497  -0.733  -4.573  0.00  0.00    -0.218 N 
ATOM     22  H   UNL     1       3.085  -1.024  -2.496  0.00  0.00    +0.150 HD
ATOM     23  H   UNL     1       4.941  -0.670  -5.433  0.00  0.00    +0.174 HD
BRANCH  18  24
ATOM     24  C   UNL     1       1.269  -1.854  -3.216  0.00  0.00    +0.090 C 
BRANCH  24  25
ATOM     25  C   UNL     1       0.756  -1.723  -1.780  0.00  0.00    -0.054 C 
ATOM     26  C   UNL     1      -0.709  -2.158  -1.719  0.00  0.00    -0.012 C 
BRANCH  25  27
ATOM     27  N   UNL     1       0.870  -0.324  -1.346  0.00  0.00    +0.382 N 
ATOM     28  H   UNL     1       1.819  -0.008  -1.475  0.00  0.00    -0.081 HD
BRANCH  27  30
ATOM     29  C   UNL     1       0.187   1.984  -1.796  0.00  0.00    -0.017 C 
ATOM     30  C   UNL     1      -0.037   0.511  -2.144  0.00  0.00    -0.082 C 
ENDBRANCH  27  30
BRANCH  27  31
ATOM     31  C   UNL     1       0.508  -0.221   0.074  0.00  0.00    -0.082 C 
ATOM     32  C   UNL     1       1.540  -0.973   0.919  0.00  0.00    -0.017 C 
ENDBRANCH  27  31
ENDBRANCH  25  27
ENDBRANCH  24  25
ENDBRANCH  18  24
ENDBRANCH   1  21
TORSDOF 8
