REMARK  Name = ZINC42859244
REMARK  6 active torsions:
REMARK  status: ('A' for Active; 'I' for Inactive)
REMARK    1  A    between atoms: C_1  and  N_2
REMARK    2  A    between atoms: N_2  and  C_3
REMARK    3  A    between atoms: N_2  and  S_9
REMARK    4  A    between atoms: C_3  and  C_4
REMARK    5  A    between atoms: S_9  and  C_12
REMARK    6  A    between atoms: C_15  and  N_18
REMARK                            x       y       z     vdW  Elec       q    Type
REMARK                         _______ _______ _______ _____ _____    ______ ____
ROOT
ATOM      1  S   UNL     1      -0.000  -0.824  -1.437  0.00  0.00    +0.061 S 
ATOM      2  O   UNL     1      -0.531  -2.115  -1.167  0.00  0.00    -0.153 OA
ATOM      3  O   UNL     1      -0.572   0.049  -2.401  0.00  0.00    -0.153 OA
ENDROOT
BRANCH   1   4
ATOM      4  C   UNL     1       1.682  -1.059  -1.905  0.00  0.00    +0.106 A 
ATOM      5  C   UNL     1       2.322  -0.108  -2.677  0.00  0.00    +0.030 A 
ATOM      6  C   UNL     1       3.641  -0.289  -3.046  0.00  0.00    +0.024 A 
ATOM      7  C   UNL     1       4.324  -1.429  -2.641  0.00  0.00    +0.025 A 
ATOM      8  C   UNL     1       3.677  -2.383  -1.865  0.00  0.00    +0.024 A 
ATOM      9  C   UNL     1       2.360  -2.192  -1.495  0.00  0.00    +0.030 A 
BRANCH   7  10
ATOM     10  N   UNL     1       5.657  -1.615  -3.013  0.00  0.00    -0.358 N 
ATOM     11  H   UNL     1       6.107  -0.949  -3.555  0.00  0.00    +0.142 HD
ATOM     12  H   UNL     1       6.133  -2.412  -2.729  0.00  0.00    +0.142 HD
ENDBRANCH   7  10
ENDBRANCH   1   4
BRANCH   1  14
ATOM     13  C   UNL     1      -0.018   1.461   0.010  0.00  0.00    +0.132 C 
ATOM     14  N   UNL     1       0.002  -0.004   0.002  0.00  0.00    -0.174 NA
BRANCH  14  15
ATOM     15  C   UNL     1       0.024  -0.743   1.267  0.00  0.00    +0.165 C 
BRANCH  15  16
ATOM     16  C   UNL     1      -1.384  -0.909   1.776  0.00  0.00    +0.064 A 
ATOM     17  C   UNL     1      -2.103  -2.032   1.522  0.00  0.00    +0.071 A 
ATOM     18  S   UNL     1      -3.632  -1.641   2.359  0.00  0.00    -0.084 S 
ATOM     19  C   UNL     1      -3.199  -0.118   2.931  0.00  0.00    +0.156 A 
ATOM     20  N   UNL     1      -1.972   0.027   2.494  0.00  0.00    -0.251 NA
ENDBRANCH  15  16
ENDBRANCH  14  15
ENDBRANCH   1  14
TORSDOF 5
