REMARK  Name = ZINC09424557
REMARK  15 active torsions:
REMARK  status: ('A' for Active; 'I' for Inactive)
REMARK    1  A    between atoms: C_1  and  C_2
REMARK    2  A    between atoms: C_4  and  N_11
REMARK    3  A    between atoms: C_5  and  O_9
REMARK    4  A    between atoms: O_9  and  C_10
REMARK    5  A    between atoms: C_12  and  C_14
REMARK    6  A    between atoms: C_14  and  S_15
REMARK    7  A    between atoms: S_15  and  C_16
REMARK    8  A    between atoms: C_19  and  C_22
REMARK    9  A    between atoms: N_20  and  N_21
REMARK   10  A    between atoms: C_24  and  O_32
REMARK   11  A    between atoms: C_25  and  O_30
REMARK   12  A    between atoms: C_26  and  O_28
REMARK   13  A    between atoms: O_28  and  C_29
REMARK   14  A    between atoms: O_30  and  C_31
REMARK   15  A    between atoms: O_32  and  C_33
REMARK                            x       y       z     vdW  Elec       q    Type
REMARK                         _______ _______ _______ _____ _____    ______ ____
ROOT
ATOM      1  C   UNL     1      -0.349  -0.017   0.074  0.00  0.00    +0.209 A 
ATOM      2  N   UNL     1       0.600  -0.926   0.077  0.00  0.00    -0.121 NA
ATOM      3  N   UNL     1       0.084  -2.103   0.099  0.00  0.00    -0.127 NA
ATOM      4  C   UNL     1      -1.226  -2.018   0.103  0.00  0.00    +0.182 A 
ATOM      5  N   UNL     1      -1.544  -0.680   0.087  0.00  0.00    -0.224 N 
ENDROOT
BRANCH   4   6
ATOM      6  C   UNL     1      -2.179  -3.148   0.122  0.00  0.00    +0.028 A 
ATOM      7  C   UNL     1      -1.757  -4.412   0.535  0.00  0.00    +0.061 A 
ATOM      8  C   UNL     1      -2.652  -5.467   0.556  0.00  0.00    +0.166 A 
ATOM      9  C   UNL     1      -3.970  -5.271   0.155  0.00  0.00    +0.204 A 
ATOM     10  C   UNL     1      -4.392  -4.013  -0.262  0.00  0.00    +0.166 A 
ATOM     11  C   UNL     1      -3.502  -2.954  -0.280  0.00  0.00    +0.061 A 
BRANCH  10  12
ATOM     12  O   UNL     1      -5.680  -3.824  -0.653  0.00  0.00    -0.491 OA
ATOM     13  C   UNL     1      -6.045  -2.507  -1.070  0.00  0.00    +0.277 C 
ENDBRANCH  10  12
BRANCH   9  14
ATOM     14  O   UNL     1      -4.846  -6.311   0.171  0.00  0.00    -0.488 OA
ATOM     15  C   UNL     1      -4.943  -7.096  -1.019  0.00  0.00    +0.277 C 
ENDBRANCH   9  14
BRANCH   8  16
ATOM     16  O   UNL     1      -2.242  -6.699   0.963  0.00  0.00    -0.491 OA
ATOM     17  C   UNL     1      -0.876  -6.829   1.361  0.00  0.00    +0.277 C 
ENDBRANCH   8  16
ENDBRANCH   4   6
BRANCH   5  18
ATOM     18  N   UNL     1      -2.794  -0.129   0.085  0.00  0.00    -0.295 N 
ATOM     19  H   UNL     1      -3.097   0.076  -0.856  0.00  0.00    +0.163 HD
ATOM     20  H   UNL     1      -3.455  -0.729   0.555  0.00  0.00    +0.163 HD
ENDBRANCH   5  18
BRANCH   1  21
ATOM     21  S   UNL     1      -0.124   1.730   0.050  0.00  0.00    -0.075 S 
BRANCH  21  22
ATOM     22  C   UNL     1       1.684   1.813   0.042  0.00  0.00    +0.173 C 
BRANCH  22  24
ATOM     23  N   UNL     1       3.433   3.562   0.013  0.00  0.00    -0.282 N 
ATOM     24  C   UNL     1       2.121   3.255   0.021  0.00  0.00    +0.228 C 
ATOM     25  O   UNL     1       1.291   4.140   0.013  0.00  0.00    -0.275 OA
ATOM     26  H   UNL     1       4.096   2.858  -0.064  0.00  0.00    +0.155 HD
BRANCH  23  30
ATOM     27  C   UNL     1       2.518   8.168   1.473  0.00  0.00    +0.045 C 
ATOM     28  C   UNL     1       3.418   7.153   0.817  0.00  0.00    -0.030 A 
ATOM     29  C   UNL     1       3.014   5.835   0.718  0.00  0.00    +0.031 A 
ATOM     30  C   UNL     1       3.841   4.900   0.113  0.00  0.00    +0.076 A 
ATOM     31  C   UNL     1       5.080   5.291  -0.388  0.00  0.00    +0.143 A 
ATOM     32  C   UNL     1       5.476   6.615  -0.290  0.00  0.00    +0.067 A 
ATOM     33  C   UNL     1       4.646   7.543   0.314  0.00  0.00    +0.047 A 
ATOM     34 CL   UNL     1       5.148   9.200   0.442  0.00  0.00    -0.083 Cl
BRANCH  31  35
ATOM     35  O   UNL     1       5.897   4.377  -0.977  0.00  0.00    -0.493 OA
ATOM     36  C   UNL     1       7.153   4.851  -1.468  0.00  0.00    +0.277 C 
ENDBRANCH  31  35
ENDBRANCH  23  30
ENDBRANCH  22  24
ENDBRANCH  21  22
ENDBRANCH   1  21
TORSDOF 10
