REMARK  Name = ZINC35043900
REMARK  9 active torsions:
REMARK  status: ('A' for Active; 'I' for Inactive)
REMARK    1  A    between atoms: C_1  and  C_2
REMARK    2  A    between atoms: C_5  and  N_12
REMARK    3  A    between atoms: C_8  and  C_10
REMARK    4  A    between atoms: C_8  and  C_11
REMARK    5  A    between atoms: N_12  and  C_13
REMARK    6  A    between atoms: C_13  and  C_15
REMARK    7  A    between atoms: C_13  and  C_16
REMARK    8  A    between atoms: C_19  and  O_23
REMARK    9  A    between atoms: O_23  and  C_24
REMARK                            x       y       z     vdW  Elec       q    Type
REMARK                         _______ _______ _______ _____ _____    ______ ____
ROOT
ATOM      1  N   UNL     1       1.337  -2.660  -2.462  0.00  0.00    +0.385 N 
ATOM      2  H   UNL     1       2.296  -2.355  -2.534  0.00  0.00    -0.085 HD
ATOM      3  H   UNL     1       1.308  -3.667  -2.399  0.00  0.00    -0.085 HD
ENDROOT
BRANCH   1   7
ATOM      4  C   UNL     1       0.447   1.570  -0.056  0.00  0.00    +0.007 C 
ATOM      5  C   UNL     1       0.268   0.051  -0.033  0.00  0.00    -0.015 C 
ATOM      6  C   UNL     1       0.905  -0.557  -1.284  0.00  0.00    -0.013 C 
ATOM      7  C   UNL     1       0.726  -2.077  -1.261  0.00  0.00    -0.070 C 
ATOM      8  C   UNL     1       1.402  -2.651  -0.014  0.00  0.00    -0.010 C 
ATOM      9  C   UNL     1       0.765  -2.043   1.237  0.00  0.00    -0.036 C 
ATOM     10  C   UNL     1       0.944  -0.524   1.214  0.00  0.00    +0.009 C 
ATOM     11  C   UNL     1      -0.727  -2.380   1.265  0.00  0.00    +0.011 C 
ATOM     12  C   UNL     1       1.441  -2.617   2.484  0.00  0.00    +0.011 C 
ENDBRANCH   1   7
BRANCH   1  13
ATOM     13  C   UNL     1       0.594  -2.223  -3.652  0.00  0.00    -0.044 C 
ATOM     14  C   UNL     1       1.310  -2.716  -4.910  0.00  0.00    -0.009 C 
BRANCH  13  15
ATOM     15  C   UNL     1      -0.800  -2.792  -3.611  0.00  0.00    -0.060 A 
ATOM     16  C   UNL     1      -1.004  -4.088  -3.172  0.00  0.00    +0.005 A 
ATOM     17  C   UNL     1      -2.281  -4.613  -3.134  0.00  0.00    +0.047 A 
ATOM     18  C   UNL     1      -3.360  -3.840  -3.536  0.00  0.00    +0.134 A 
ATOM     19  C   UNL     1      -3.154  -2.540  -3.977  0.00  0.00    +0.060 A 
ATOM     20  C   UNL     1      -1.874  -2.018  -4.008  0.00  0.00    +0.021 A 
ATOM     21 BR   UNL     1      -4.622  -1.483  -4.527  0.00  0.00    -0.047 Br
BRANCH  18  22
ATOM     22  O   UNL     1      -4.617  -4.355  -3.500  0.00  0.00    -0.494 OA
ATOM     23  C   UNL     1      -4.755  -5.700  -3.037  0.00  0.00    +0.277 C 
ENDBRANCH  18  22
ENDBRANCH  13  15
ENDBRANCH   1  13
TORSDOF 4
