REMARK  Name = ZINC57482739
REMARK  9 active torsions:
REMARK  status: ('A' for Active; 'I' for Inactive)
REMARK    1  A    between atoms: C_1  and  C_2
REMARK    2  A    between atoms: C_6  and  O_8
REMARK    3  A    between atoms: O_8  and  C_9
REMARK    4  A    between atoms: C_9  and  C_10
REMARK    5  A    between atoms: C_10  and  C_12
REMARK    6  A    between atoms: C_10  and  O_30
REMARK    7  A    between atoms: C_12  and  N_13
REMARK    8  A    between atoms: N_16  and  C_17
REMARK    9  A    between atoms: C_17  and  C_18
REMARK                            x       y       z     vdW  Elec       q    Type
REMARK                         _______ _______ _______ _____ _____    ______ ____
ROOT
ATOM      1  N   UNL     1       0.180  -6.896   4.939  0.00  0.00    -0.297 N 
ATOM      2  C   UNL     1       0.327  -8.225   5.109  0.00  0.00    +0.300 C 
ATOM      3  O   UNL     1       0.445  -8.953   4.142  0.00  0.00    -0.253 OA
ATOM      4  N   UNL     1       0.345  -8.747   6.352  0.00  0.00    -0.295 N 
ATOM      5  H   UNL     1       0.086  -6.316   5.710  0.00  0.00    +0.150 HD
ATOM      6  H   UNL     1       0.252  -8.166   7.123  0.00  0.00    +0.151 HD
ENDROOT
BRANCH   1   7
ATOM      7  C   UNL     1       0.160  -6.329   3.588  0.00  0.00    +0.140 C 
BRANCH   7   8
ATOM      8  C   UNL     1      -0.018  -4.812   3.675  0.00  0.00    +0.169 C 
BRANCH   8   9
ATOM      9  O   UNL     1      -1.250  -4.514   4.334  0.00  0.00    -0.387 OA
ATOM     10  H   UNL     1      -2.031  -4.868   3.887  0.00  0.00    +0.210 HD
ENDBRANCH   8   9
BRANCH   8  11
ATOM     11  C   UNL     1      -0.038  -4.219   2.264  0.00  0.00    +0.261 C 
BRANCH  11  12
ATOM     12  O   UNL     1      -0.088  -2.793   2.347  0.00  0.00    -0.489 OA
BRANCH  12  18
ATOM     13  C   UNL     1      -0.236   1.480  -0.006  0.00  0.00    +0.044 C 
ATOM     14  C   UNL     1      -0.183  -0.026  -0.013  0.00  0.00    -0.047 A 
ATOM     15  C   UNL     1      -0.159  -0.712  -1.214  0.00  0.00    +0.003 A 
ATOM     16  C   UNL     1      -0.111  -2.093  -1.223  0.00  0.00    +0.004 A 
ATOM     17  C   UNL     1      -0.087  -2.793  -0.032  0.00  0.00    +0.045 A 
ATOM     18  C   UNL     1      -0.111  -2.108   1.174  0.00  0.00    +0.121 A 
ATOM     19  C   UNL     1      -0.153  -0.721   1.181  0.00  0.00    +0.049 A 
ENDBRANCH  12  18
ENDBRANCH  11  12
ENDBRANCH   8  11
ENDBRANCH   7   8
ENDBRANCH   1   7
BRANCH   4  20
ATOM     20  C   UNL     1       0.506 -10.191   6.537  0.00  0.00    +0.142 C 
BRANCH  20  21
ATOM     21  C   UNL     1       0.493 -10.513   8.009  0.00  0.00    -0.014 A 
ATOM     22  C   UNL     1       1.676 -10.520   8.737  0.00  0.00    +0.010 A 
ATOM     23  C   UNL     1       1.620 -10.820  10.085  0.00  0.00    +0.042 A 
ATOM     24  C   UNL     1       0.387 -11.104  10.665  0.00  0.00    +0.099 A 
ATOM     25  N   UNL     1      -0.719 -11.088   9.937  0.00  0.00    -0.349 N 
ATOM     26  C   UNL     1      -0.696 -10.799   8.650  0.00  0.00    +0.089 A 
ATOM     27  N   UNL     1       0.317 -11.409  12.019  0.00  0.00    -0.317 N 
ATOM     28  C   UNL     1      -0.984 -11.583  12.680  0.00  0.00    +0.106 C 
ATOM     29  C   UNL     1      -0.997 -12.939  13.393  0.00  0.00    +0.019 C 
ATOM     30  C   UNL     1       0.205 -13.026  14.337  0.00  0.00    +0.003 C 
ATOM     31  C   UNL     1       1.500 -12.918  13.528  0.00  0.00    +0.019 C 
ATOM     32  C   UNL     1       1.541 -11.568  12.816  0.00  0.00    +0.106 C 
ATOM     33  H   UNL     1      -1.567 -11.289  10.362  0.00  0.00    +0.167 HD
ENDBRANCH  20  21
ENDBRANCH   4  20
TORSDOF 8
