REMARK  Name = ZINC40766539
REMARK  9 active torsions:
REMARK  status: ('A' for Active; 'I' for Inactive)
REMARK    1  A    between atoms: C_1  and  C_2
REMARK    2  A    between atoms: C_7  and  C_9
REMARK    3  A    between atoms: C_7  and  N_20
REMARK    4  A    between atoms: C_9  and  N_10
REMARK    5  A    between atoms: C_13  and  C_17
REMARK    6  A    between atoms: C_17  and  C_18
REMARK    7  A    between atoms: C_17  and  C_19
REMARK    8  A    between atoms: N_20  and  C_21
REMARK    9  A    between atoms: N_20  and  C_22
REMARK                            x       y       z     vdW  Elec       q    Type
REMARK                         _______ _______ _______ _____ _____    ______ ____
ROOT
ATOM      1  C   UNL     1       1.614  -2.497   2.325  0.00  0.00    +0.091 C 
ENDROOT
BRANCH   1   2
ATOM      2  N   UNL     1       3.004  -2.105   2.079  0.00  0.00    -0.330 N 
ATOM      3  C   UNL     1       3.997  -2.475   2.972  0.00  0.00    +0.122 A 
ATOM      4  C   UNL     1       3.685  -3.227   4.107  0.00  0.00    +0.067 A 
ATOM      5  C   UNL     1       4.710  -3.571   4.967  0.00  0.00    +0.049 A 
ATOM      6  N   UNL     1       5.946  -3.179   4.689  0.00  0.00    -0.240 NA
ATOM      7  C   UNL     1       6.207  -2.471   3.610  0.00  0.00    +0.223 A 
ATOM      8  N   UNL     1       5.261  -2.125   2.759  0.00  0.00    -0.221 NA
ATOM      9  H   UNL     1       3.230  -1.586   1.291  0.00  0.00    +0.147 HD
BRANCH   5  10
ATOM     10  C   UNL     1       4.426  -4.381   6.205  0.00  0.00    +0.032 C 
ATOM     11  C   UNL     1       3.992  -3.447   7.337  0.00  0.00    +0.014 C 
ATOM     12  C   UNL     1       3.308  -5.383   5.914  0.00  0.00    +0.014 C 
ENDBRANCH   5  10
ENDBRANCH   1   2
BRANCH   1  18
ATOM     13  C   UNL     1      -0.018   1.440  -0.285  0.00  0.00    +0.007 C 
ATOM     14  C   UNL     1      -0.073  -0.084  -0.157  0.00  0.00    -0.015 C 
ATOM     15  C   UNL     1       0.447  -0.723  -1.446  0.00  0.00    +0.003 C 
ATOM     16  C   UNL     1       0.392  -2.247  -1.318  0.00  0.00    -0.001 C 
ATOM     17  C   UNL     1       1.263  -2.691  -0.141  0.00  0.00    -0.010 C 
ATOM     18  C   UNL     1       0.743  -2.052   1.148  0.00  0.00    -0.050 C 
ATOM     19  C   UNL     1       0.798  -0.529   1.020  0.00  0.00    -0.007 C 
BRANCH  18  20
ATOM     20  N   UNL     1      -0.645  -2.475   1.379  0.00  0.00    +0.381 N 
ATOM     21  C   UNL     1      -0.701  -3.939   1.476  0.00  0.00    -0.096 C 
ATOM     22  C   UNL     1      -1.135  -1.882   2.630  0.00  0.00    -0.096 C 
ATOM     23  H   UNL     1      -1.222  -2.166   0.612  0.00  0.00    -0.082 HD
ENDBRANCH  18  20
ENDBRANCH   1  18
TORSDOF 4
