REMARK  Name = ZINC66481828
REMARK  8 active torsions:
REMARK  status: ('A' for Active; 'I' for Inactive)
REMARK    1  A    between atoms: C_1  and  C_2
REMARK    2  A    between atoms: C_2  and  C_3
REMARK    3  A    between atoms: C_3  and  C_25
REMARK    4  A    between atoms: N_6  and  C_10
REMARK    5  A    between atoms: C_10  and  C_11
REMARK    6  A    between atoms: C_11  and  C_13
REMARK    7  A    between atoms: C_11  and  O_24
REMARK    8  A    between atoms: C_13  and  N_14
REMARK                            x       y       z     vdW  Elec       q    Type
REMARK                         _______ _______ _______ _____ _____    ______ ____
ROOT
ATOM      1  C   UNL     1       3.400  -3.764  -0.382  0.00  0.00    +0.116 C 
ENDROOT
BRANCH   1   2
ATOM      2  O   UNL     1       4.375  -2.931  -1.012  0.00  0.00    -0.392 OA
ATOM      3  H   UNL     1       5.254  -2.984  -0.613  0.00  0.00    +0.210 HD
ENDBRANCH   1   2
BRANCH   1   4
ATOM      4  C   UNL     1       3.255  -3.359   1.087  0.00  0.00    +0.147 C 
BRANCH   4   8
ATOM      5  C   UNL     1       1.314  -0.199   1.294  0.00  0.00    +0.109 C 
ATOM      6  C   UNL     1       1.398  -1.710   1.220  0.00  0.00    +0.246 C 
ATOM      7  O   UNL     1       0.475  -2.496   1.210  0.00  0.00    -0.273 OA
ATOM      8  N   UNL     1       2.713  -2.000   1.167  0.00  0.00    -0.222 N 
ATOM      9  C   UNL     1       3.464  -0.892   1.196  0.00  0.00    +0.309 C 
ATOM     10  O   UNL     1       4.679  -0.898   1.160  0.00  0.00    -0.252 OA
ATOM     11  N   UNL     1       2.723   0.228   1.272  0.00  0.00    -0.285 N 
ATOM     12  C   UNL     1       0.638   0.243   2.594  0.00  0.00    +0.041 C 
ATOM     13  H   UNL     1       3.053   1.140   1.305  0.00  0.00    +0.151 HD
BRANCH   5  15
ATOM     14  C   UNL     1       0.694   1.883   0.059  0.00  0.00    +0.006 C 
ATOM     15  C   UNL     1       0.563   0.358   0.083  0.00  0.00    +0.031 C 
ENDBRANCH   5  15
ENDBRANCH   4   8
ENDBRANCH   1   4
BRANCH   1  16
ATOM     16  C   UNL     1       3.846  -5.225  -0.465  0.00  0.00    -0.045 C 
BRANCH  16  17
ATOM     17  N   UNL     1       3.982  -5.616  -1.875  0.00  0.00    +0.384 N 
ATOM     18  C   UNL     1       2.659  -5.613  -2.517  0.00  0.00    -0.074 C 
ATOM     19  C   UNL     1       2.851  -5.717  -4.030  0.00  0.00    +0.017 C 
ATOM     20  C   UNL     1       3.765  -6.872  -4.351  0.00  0.00    -0.048 A 
ATOM     21  C   UNL     1       3.797  -7.353  -5.650  0.00  0.00    +0.004 A 
ATOM     22  C   UNL     1       4.625  -8.408  -5.982  0.00  0.00    +0.000 A 
ATOM     23  C   UNL     1       5.425  -8.985  -5.013  0.00  0.00    +0.000 A 
ATOM     24  C   UNL     1       5.392  -8.507  -3.719  0.00  0.00    +0.002 A 
ATOM     25  C   UNL     1       4.560  -7.449  -3.384  0.00  0.00    -0.061 A 
ATOM     26  C   UNL     1       4.550  -6.964  -1.958  0.00  0.00    -0.043 C 
ATOM     27  H   UNL     1       4.590  -4.964  -2.348  0.00  0.00    -0.081 HD
ENDBRANCH  16  17
ENDBRANCH   1  16
TORSDOF 6
