REMARK  Name = ZINC55133695
REMARK  5 active torsions:
REMARK  status: ('A' for Active; 'I' for Inactive)
REMARK    1  A    between atoms: C_1  and  C_2
REMARK    2  A    between atoms: C_5  and  N_24
REMARK    3  A    between atoms: C_9  and  C_11
REMARK    4  A    between atoms: C_18  and  C_20
REMARK    5  A    between atoms: N_22  and  C_23
REMARK                            x       y       z     vdW  Elec       q    Type
REMARK                         _______ _______ _______ _____ _____    ______ ____
ROOT
ATOM      1  C   UNL     1      -0.018  -0.126   2.476  0.00  0.00    +0.220 C 
ATOM      2  O   UNL     1      -0.961   0.629   2.370  0.00  0.00    -0.275 OA
ATOM      3  N   UNL     1       0.421  -0.490   3.697  0.00  0.00    -0.290 N 
ATOM      4  C   UNL     1       1.622  -1.323   3.844  0.00  0.00    +0.108 C 
ATOM      5  C   UNL     1       1.273  -2.545   4.700  0.00  0.00    +0.019 C 
ATOM      6  C   UNL     1       0.666  -2.078   6.025  0.00  0.00    +0.004 C 
ATOM      7  C   UNL     1      -0.621  -1.296   5.751  0.00  0.00    +0.032 C 
ATOM      8  C   UNL     1      -0.290  -0.056   4.907  0.00  0.00    +0.162 C 
ENDROOT
BRANCH   1  15
ATOM      9  C   UNL     1       0.242   1.511   0.074  0.00  0.00    +0.008 C 
ATOM     10  C   UNL     1       0.052  -0.006  -0.000  0.00  0.00    -0.004 C 
ATOM     11  C   UNL     1       0.745  -0.545  -1.254  0.00  0.00    -0.012 C 
ATOM     12  C   UNL     1       0.555  -2.062  -1.328  0.00  0.00    -0.075 C 
ATOM     13  C   UNL     1       1.167  -2.714  -0.086  0.00  0.00    -0.016 C 
ATOM     14  C   UNL     1       0.475  -2.174   1.167  0.00  0.00    +0.011 C 
ATOM     15  C   UNL     1       0.664  -0.658   1.241  0.00  0.00    +0.078 C 
BRANCH  12  16
ATOM     16  N   UNL     1       1.220  -2.580  -2.531  0.00  0.00    +0.380 N 
ATOM     17  H   UNL     1       2.205  -2.365  -2.490  0.00  0.00    -0.090 HD
ATOM     18  H   UNL     1       1.095  -3.580  -2.580  0.00  0.00    -0.090 HD
ATOM     19  H   UNL     1       0.816  -2.150  -3.350  0.00  0.00    -0.090 HD
ENDBRANCH  12  16
ENDBRANCH   1  15
BRANCH   8  20
ATOM     20  C   UNL     1      -1.565   0.648   4.519  0.00  0.00    +0.233 C 
ATOM     21  O   UNL     1      -2.429   0.049   3.915  0.00  0.00    -0.274 OA
ATOM     22  N   UNL     1      -1.745   1.944   4.844  0.00  0.00    -0.317 N 
ATOM     23  C   UNL     1      -2.984   2.628   4.467  0.00  0.00    +0.128 C 
ATOM     24  H   UNL     1      -1.054   2.423   5.328  0.00  0.00    +0.148 HD
ENDBRANCH   8  20
TORSDOF 3
