REMARK  Name = ZINC53861517
REMARK  6 active torsions:
REMARK  status: ('A' for Active; 'I' for Inactive)
REMARK    1  A    between atoms: C_1  and  C_2
REMARK    2  A    between atoms: C_2  and  N_3
REMARK    3  A    between atoms: N_3  and  C_4
REMARK    4  A    between atoms: C_11  and  C_13
REMARK    5  A    between atoms: C_13  and  N_14
REMARK    6  A    between atoms: C_19  and  C_21
REMARK                            x       y       z     vdW  Elec       q    Type
REMARK                         _______ _______ _______ _____ _____    ______ ____
ROOT
ATOM      1  C   UNL     1       0.733  -1.960   1.184  0.00  0.00    -0.070 C 
ATOM      2  C   UNL     1       1.533  -2.441  -0.041  0.00  0.00    -0.016 C 
ATOM      3  C   UNL     1       1.981  -3.910   0.077  0.00  0.00    -0.002 C 
ATOM      4  C   UNL     1       0.904  -4.796   0.643  0.00  0.00    -0.000 C 
ATOM      5  C   UNL     1       1.114  -4.909   2.167  0.00  0.00    +0.000 C 
ATOM      6  C   UNL     1       0.602  -3.751   2.885  0.00  0.00    -0.000 C 
ATOM      7  C   UNL     1       1.321  -2.446   2.481  0.00  0.00    -0.042 C 
ENDROOT
BRANCH   1   8
ATOM      8  N   UNL     1       0.713  -0.491   1.192  0.00  0.00    +0.381 N 
ATOM      9  H   UNL     1       1.659  -0.141   1.185  0.00  0.00    -0.086 HD
ATOM     10  H   UNL     1       0.240  -0.165   2.022  0.00  0.00    -0.086 HD
BRANCH   8  12
ATOM     11  C   UNL     1      -0.019   1.526   0.010  0.00  0.00    -0.017 C 
ATOM     12  C   UNL     1       0.002  -0.004   0.002  0.00  0.00    -0.086 C 
ENDBRANCH   8  12
ENDBRANCH   1   8
BRANCH   7  13
ATOM     13  C   UNL     1       1.113  -1.388   3.567  0.00  0.00    -0.077 C 
BRANCH  13  14
ATOM     14  N   UNL     1       1.792  -1.813   4.799  0.00  0.00    +0.382 N 
ATOM     15  C   UNL     1       3.240  -1.863   4.566  0.00  0.00    -0.078 C 
ATOM     16  C   UNL     1       3.945  -2.382   5.821  0.00  0.00    -0.019 C 
ATOM     17  C   UNL     1       3.648  -1.442   6.992  0.00  0.00    -0.003 C 
ATOM     18  C   UNL     1       2.131  -1.339   7.179  0.00  0.00    -0.016 C 
ATOM     19  C   UNL     1       1.494  -0.859   5.874  0.00  0.00    -0.072 C 
ATOM     20  C   UNL     1      -0.022  -0.754   6.056  0.00  0.00    -0.013 C 
ATOM     21  H   UNL     1       1.464  -2.729   5.064  0.00  0.00    -0.081 HD
ENDBRANCH  13  14
ENDBRANCH   7  13
TORSDOF 4
