REMARK  Name = ZINC32994478
REMARK  18 active torsions:
REMARK  status: ('A' for Active; 'I' for Inactive)
REMARK    1  A    between atoms: C_1  and  C_2
REMARK    2  A    between atoms: C_2  and  C_3
REMARK    3  A    between atoms: C_3  and  C_4
REMARK    4  A    between atoms: C_4  and  N_5
REMARK    5  A    between atoms: N_5  and  C_6
REMARK    6  A    between atoms: C_7  and  N_19
REMARK    7  A    between atoms: N_8  and  C_15
REMARK    8  A    between atoms: C_15  and  C_16
REMARK    9  A    between atoms: C_16  and  C_17
REMARK   10  A    between atoms: C_16  and  C_18
REMARK   11  A    between atoms: C_20  and  C_22
REMARK   12  A    between atoms: N_27  and  C_29
REMARK   13  A    between atoms: C_29  and  C_30
REMARK   14  A    between atoms: C_30  and  C_31
REMARK   15  A    between atoms: C_34  and  O_39
REMARK   16  A    between atoms: C_35  and  O_37
REMARK   17  A    between atoms: O_37  and  C_38
REMARK   18  A    between atoms: O_39  and  C_40
REMARK                            x       y       z     vdW  Elec       q    Type
REMARK                         _______ _______ _______ _____ _____    ______ ____
ROOT
ATOM      1  N   UNL     1      -0.321   2.440  -3.473  0.00  0.00    -0.264 N 
ATOM      2  C   UNL     1       0.209   1.779  -2.424  0.00  0.00    +0.225 C 
ATOM      3  O   UNL     1       1.399   1.541  -2.395  0.00  0.00    -0.275 OA
ENDROOT
BRANCH   1   4
ATOM      4  C   UNL     1       0.519   2.942  -4.489  0.00  0.00    +0.140 A 
ATOM      5  C   UNL     1       1.505   3.861  -4.194  0.00  0.00    +0.127 A 
ATOM      6  N   UNL     1       2.312   4.329  -5.205  0.00  0.00    -0.280 N 
ATOM      7  C   UNL     1       2.135   3.904  -6.469  0.00  0.00    +0.331 A 
ATOM      8  O   UNL     1       2.856   4.333  -7.349  0.00  0.00    -0.246 OA
ATOM      9  N   UNL     1       1.177   3.012  -6.776  0.00  0.00    -0.273 N 
ATOM     10  H   UNL     1       1.050   2.677  -7.817  0.00  0.00    +0.173 HD
ATOM     11  C   UNL     1       0.363   2.519  -5.822  0.00  0.00    +0.277 A 
ATOM     12  O   UNL     1      -0.504   1.712  -6.112  0.00  0.00    -0.266 OA
BRANCH   5  13
ATOM     13  N   UNL     1       1.683   4.300  -2.904  0.00  0.00    -0.343 N 
ATOM     14  H   UNL     1       2.471   5.033  -2.675  0.00  0.00    +0.144 HD
ATOM     15  H   UNL     1       1.036   3.919  -2.099  0.00  0.00    +0.144 HD
ENDBRANCH   5  13
BRANCH   6  16
ATOM     16  C   UNL     1       3.366   5.301  -4.905  0.00  0.00    +0.131 C 
BRANCH  16  17
ATOM     17  C   UNL     1       2.804   6.719  -5.034  0.00  0.00    +0.003 C 
ATOM     18  C   UNL     1       1.732   6.942  -3.966  0.00  0.00    +0.009 C 
ATOM     19  C   UNL     1       3.933   7.734  -4.843  0.00  0.00    +0.009 C 
ENDBRANCH  16  17
ENDBRANCH   6  16
ENDBRANCH   1   4
BRANCH   2  20
ATOM     20  C   UNL     1      -0.675   1.336  -1.287  0.00  0.00    +0.101 C 
ATOM     21  C   UNL     1      -1.218   2.553  -0.502  0.00  0.00    +0.110 C 
ATOM     22  C   UNL     1      -1.223   2.093   0.939  0.00  0.00    +0.216 C 
ATOM     23  O   UNL     1      -1.830   2.634   1.839  0.00  0.00    -0.276 OA
ATOM     24  N   UNL     1      -0.455   0.997   1.078  0.00  0.00    -0.300 N 
ATOM     25  C   UNL     1       0.145   0.602  -0.202  0.00  0.00    +0.121 C 
BRANCH  24  26
ATOM     26  C   UNL     1      -0.245   0.287   2.342  0.00  0.00    +0.112 C 
BRANCH  26  27
ATOM     27  C   UNL     1       0.972   0.875   3.061  0.00  0.00    +0.054 C 
BRANCH  27  28
ATOM     28  C   UNL     1       1.188   0.144   4.362  0.00  0.00    -0.042 A 
ATOM     29  C   UNL     1       1.997  -0.976   4.397  0.00  0.00    +0.007 A 
ATOM     30  C   UNL     1       2.198  -1.649   5.588  0.00  0.00    +0.049 A 
ATOM     31  C   UNL     1       1.589  -1.201   6.749  0.00  0.00    +0.161 A 
ATOM     32  C   UNL     1       0.775  -0.073   6.713  0.00  0.00    +0.162 A 
ATOM     33  C   UNL     1       0.581   0.600   5.517  0.00  0.00    +0.053 A 
BRANCH  32  34
ATOM     34  O   UNL     1       0.174   0.371   7.850  0.00  0.00    -0.491 OA
ATOM     35  C   UNL     1      -0.647   1.535   7.737  0.00  0.00    +0.277 C 
ENDBRANCH  32  34
BRANCH  31  36
ATOM     36  O   UNL     1       1.786  -1.861   7.921  0.00  0.00    -0.491 OA
ATOM     37  C   UNL     1       2.635  -3.011   7.883  0.00  0.00    +0.277 C 
ENDBRANCH  31  36
ENDBRANCH  27  28
ENDBRANCH  26  27
ENDBRANCH  24  26
ENDBRANCH   2  20
BRANCH   1  38
ATOM     38  C   UNL     1      -1.771   2.637  -3.558  0.00  0.00    +0.114 C 
BRANCH  38  39
ATOM     39  C   UNL     1      -2.132   4.014  -2.997  0.00  0.00    +0.019 C 
BRANCH  39  41
ATOM     40  C   UNL     1      -4.008   5.596  -2.525  0.00  0.00    +0.004 C 
ATOM     41  C   UNL     1      -3.646   4.219  -3.086  0.00  0.00    -0.002 C 
ENDBRANCH  39  41
ENDBRANCH  38  39
ENDBRANCH   1  38
TORSDOF 13
