REMARK  Name = ZINC37146889
REMARK  9 active torsions:
REMARK  status: ('A' for Active; 'I' for Inactive)
REMARK    1  A    between atoms: C_1  and  C_2
REMARK    2  A    between atoms: C_2  and  C_3
REMARK    3  A    between atoms: C_3  and  C_4
REMARK    4  A    between atoms: C_3  and  C_5
REMARK    5  A    between atoms: C_3  and  C_6
REMARK    6  A    between atoms: C_10  and  C_23
REMARK    7  A    between atoms: C_12  and  N_15
REMARK    8  A    between atoms: C_18  and  C_21
REMARK    9  A    between atoms: C_21  and  O_22
REMARK                            x       y       z     vdW  Elec       q    Type
REMARK                         _______ _______ _______ _____ _____    ______ ____
ROOT
ATOM      1  C   UNL     1       0.661  -1.744   2.238  0.00  0.00    -0.007 C 
ATOM      2  C   UNL     1       1.175  -1.693   0.798  0.00  0.00    +0.005 C 
ATOM      3  C   UNL     1       1.145  -3.099   0.197  0.00  0.00    +0.017 C 
ATOM      4  C   UNL     1       2.038  -4.027   1.024  0.00  0.00    +0.078 C 
ATOM      5  C   UNL     1       1.524  -4.077   2.464  0.00  0.00    -0.051 C 
ATOM      6  C   UNL     1       1.553  -2.671   3.066  0.00  0.00    -0.010 C 
ENDROOT
BRANCH   5   7
ATOM      7  N   UNL     1       0.145  -4.586   2.475  0.00  0.00    +0.382 N 
ATOM      8  C   UNL     1       0.164  -6.047   2.337  0.00  0.00    -0.078 C 
ATOM      9  C   UNL     1      -1.271  -6.574   2.266  0.00  0.00    -0.013 C 
ATOM     10  C   UNL     1      -2.015  -6.190   3.548  0.00  0.00    +0.011 C 
ATOM     11  C   UNL     1      -1.963  -4.669   3.720  0.00  0.00    -0.013 C 
ATOM     12  C   UNL     1      -0.503  -4.213   3.738  0.00  0.00    -0.078 C 
ATOM     13  H   UNL     1      -0.366  -4.184   1.704  0.00  0.00    -0.081 HD
BRANCH  10  14
ATOM     14  C   UNL     1      -3.472  -6.645   3.451  0.00  0.00    +0.159 C 
BRANCH  14  15
ATOM     15  O   UNL     1      -4.135  -6.391   4.691  0.00  0.00    -0.395 OA
ATOM     16  H   UNL     1      -5.065  -6.655   4.701  0.00  0.00    +0.209 HD
ENDBRANCH  14  15
ENDBRANCH  10  14
ENDBRANCH   5   7
BRANCH   1  17
ATOM     17  C   UNL     1       0.690  -0.337   2.840  0.00  0.00    -0.032 C 
ATOM     18  C   UNL     1       2.125   0.192   2.829  0.00  0.00    +0.011 C 
ATOM     19  C   UNL     1       0.176  -0.388   4.280  0.00  0.00    +0.011 C 
BRANCH  17  21
ATOM     20  C   UNL     1      -0.173   1.997   2.614  0.00  0.00    +0.004 C 
ATOM     21  C   UNL     1      -0.202   0.590   2.013  0.00  0.00    +0.003 C 
ENDBRANCH  17  21
ENDBRANCH   1  17
BRANCH   4  22
ATOM     22  C   UNL     1       2.009  -5.380   0.445  0.00  0.00    +0.064 C 
ATOM     23  N   UNL     1       1.988  -6.424  -0.002  0.00  0.00    -0.196 NA
ENDBRANCH   4  22
TORSDOF 6
