REMARK  Name = ZINC67129389
REMARK  6 active torsions:
REMARK  status: ('A' for Active; 'I' for Inactive)
REMARK    1  A    between atoms: C_1  and  C_2
REMARK    2  A    between atoms: C_8  and  N_10
REMARK    3  A    between atoms: C_11  and  C_13
REMARK    4  A    between atoms: C_13  and  N_14
REMARK    5  A    between atoms: C_16  and  O_24
REMARK    6  A    between atoms: C_19  and  C_21
REMARK                            x       y       z     vdW  Elec       q    Type
REMARK                         _______ _______ _______ _____ _____    ______ ____
ROOT
ATOM      1  N   UNL     1       0.986   0.635   5.958  0.00  0.00    +0.395 N 
ATOM      2  C   UNL     1       1.978   1.709   5.728  0.00  0.00    -0.045 C 
ATOM      3  C   UNL     1       2.305   2.323   7.101  0.00  0.00    +0.097 C 
ATOM      4  C   UNL     1       1.419   1.556   8.109  0.00  0.00    +0.023 C 
ATOM      5  C   UNL     1       0.283   0.997   7.215  0.00  0.00    +0.022 C 
ATOM      6  H   UNL     1       1.452  -0.253   6.063  0.00  0.00    -0.080 HD
ENDROOT
BRANCH   5   7
ATOM      7  C   UNL     1      -0.339  -0.223   7.846  0.00  0.00    +0.197 C 
ATOM      8  O   UNL     1      -0.221  -1.307   7.315  0.00  0.00    -0.278 OA
ATOM      9  N   UNL     1      -1.026  -0.108   9.000  0.00  0.00    -0.331 N 
ATOM     10  H   UNL     1      -1.120   0.759   9.424  0.00  0.00    +0.145 HD
ATOM     11  H   UNL     1      -1.426  -0.893   9.406  0.00  0.00    +0.145 HD
ENDBRANCH   5   7
BRANCH   3  12
ATOM     12  O   UNL     1       3.688   2.136   7.411  0.00  0.00    -0.394 OA
ATOM     13  H   UNL     1       3.952   2.504   8.266  0.00  0.00    +0.210 HD
ENDBRANCH   3  12
BRANCH   1  14
ATOM     14  C   UNL     1       0.033   0.579   4.842  0.00  0.00    +0.020 C 
BRANCH  14  16
ATOM     15  N   UNL     1       0.056  -0.038   2.447  0.00  0.00    -0.314 N 
ATOM     16  C   UNL     1       0.738   0.093   3.602  0.00  0.00    +0.197 C 
ATOM     17  O   UNL     1       1.919  -0.179   3.644  0.00  0.00    -0.278 OA
ATOM     18  H   UNL     1      -0.888   0.180   2.413  0.00  0.00    +0.149 HD
BRANCH  15  25
ATOM     19  C   UNL     1      -0.019   1.526   0.010  0.00  0.00    +0.009 C 
ATOM     20  C   UNL     1       0.002  -0.004   0.002  0.00  0.00    +0.006 C 
ATOM     21  C   UNL     1      -1.433  -0.534   0.013  0.00  0.00    +0.005 C 
ATOM     22  C   UNL     1      -1.413  -2.063   0.004  0.00  0.00    +0.000 C 
ATOM     23  C   UNL     1      -0.673  -2.570   1.244  0.00  0.00    +0.002 C 
ATOM     24  C   UNL     1       0.763  -2.041   1.233  0.00  0.00    +0.022 C 
ATOM     25  C   UNL     1       0.742  -0.511   1.242  0.00  0.00    +0.076 C 
ENDBRANCH  15  25
ENDBRANCH  14  16
ENDBRANCH   1  14
TORSDOF 5
