REMARK  Name = ZINC57926974
REMARK  3 active torsions:
REMARK  status: ('A' for Active; 'I' for Inactive)
REMARK    1  A    between atoms: C_1  and  C_2
REMARK    2  A    between atoms: C_2  and  C_3
REMARK    3  A    between atoms: C_2  and  C_4
REMARK                            x       y       z     vdW  Elec       q    Type
REMARK                         _______ _______ _______ _____ _____    ______ ____
ROOT
ATOM      1  C   UNL     1      -1.433  -0.534   0.013  0.00  0.00    +0.160 C 
ATOM      2  C   UNL     1      -2.163  -0.039  -1.210  0.00  0.00    +0.238 C 
ATOM      3  O   UNL     1      -2.752   1.020  -1.168  0.00  0.00    -0.273 OA
ATOM      4  N   UNL     1      -2.167  -0.758  -2.348  0.00  0.00    -0.282 N 
ATOM      5  C   UNL     1      -1.534  -2.008  -2.407  0.00  0.00    +0.058 A 
ATOM      6  C   UNL     1      -1.280  -2.615  -3.627  0.00  0.00    +0.074 A 
ATOM      7  C   UNL     1      -0.658  -3.853  -3.668  0.00  0.00    +0.168 A 
ATOM      8  C   UNL     1      -0.289  -4.489  -2.486  0.00  0.00    +0.168 A 
ATOM      9  C   UNL     1      -0.540  -3.883  -1.264  0.00  0.00    +0.074 A 
ATOM     10  C   UNL     1      -1.159  -2.646  -1.224  0.00  0.00    +0.053 A 
ATOM     11  N   UNL     1      -1.415  -2.004   0.000  0.00  0.00    -0.331 N 
ATOM     12  O   UNL     1       0.297  -5.683  -2.797  0.00  0.00    -0.453 OA
ATOM     13  C   UNL     1      -0.085  -5.955  -4.158  0.00  0.00    +0.466 C 
ATOM     14  O   UNL     1      -0.302  -4.648  -4.721  0.00  0.00    -0.453 OA
ATOM     15  H   UNL     1      -2.612  -0.408  -3.135  0.00  0.00    +0.155 HD
ATOM     16  H   UNL     1      -1.576  -2.513   0.810  0.00  0.00    +0.147 HD
ENDROOT
BRANCH   1  18
ATOM     17  C   UNL     1      -0.019   1.526   0.010  0.00  0.00    +0.009 C 
ATOM     18  C   UNL     1       0.002  -0.004   0.002  0.00  0.00    +0.012 C 
ATOM     19  C   UNL     1       0.742  -0.511   1.242  0.00  0.00    +0.009 C 
ENDBRANCH   1  18
TORSDOF 1
