REMARK  Name = ZINC63699098
REMARK  4 active torsions:
REMARK  status: ('A' for Active; 'I' for Inactive)
REMARK    1  A    between atoms: C_1  and  C_2
REMARK    2  A    between atoms: C_7  and  C_12
REMARK    3  A    between atoms: C_18  and  C_23
REMARK    4  A    between atoms: C_23  and  C_24
REMARK                            x       y       z     vdW  Elec       q    Type
REMARK                         _______ _______ _______ _____ _____    ______ ____
ROOT
ATOM      1  C   UNL     1       1.313  -5.080   1.946  0.00  0.00    +0.080 A 
ATOM      2  C   UNL     1       1.216  -6.274   2.583  0.00  0.00    +0.026 A 
ATOM      3  C   UNL     1       2.456  -6.962   2.957  0.00  0.00    +0.018 A 
ATOM      4  C   UNL     1       2.426  -8.196   3.615  0.00  0.00    +0.011 A 
ATOM      5  C   UNL     1       3.598  -8.813   3.950  0.00  0.00    +0.001 A 
ATOM      6  C   UNL     1       4.816  -8.226   3.643  0.00  0.00    +0.007 A 
ATOM      7  C   UNL     1       4.867  -7.009   2.995  0.00  0.00    -0.001 A 
ATOM      8  C   UNL     1       3.689  -6.363   2.644  0.00  0.00    +0.143 A 
ATOM      9  O   UNL     1       3.716  -5.173   2.009  0.00  0.00    -0.422 OA
ATOM     10  C   UNL     1       2.586  -4.540   1.658  0.00  0.00    +0.344 A 
ATOM     11  O   UNL     1       2.659  -3.470   1.082  0.00  0.00    -0.245 OA
ENDROOT
BRANCH   1  18
ATOM     12  C   UNL     1      -0.018   1.503   0.010  0.00  0.00    +0.044 C 
ATOM     13  C   UNL     1       0.002  -0.004   0.002  0.00  0.00    -0.048 A 
ATOM     14  C   UNL     1       0.005  -0.672  -1.235  0.00  0.00    +0.005 A 
ATOM     15  C   UNL     1       0.022  -2.017  -1.335  0.00  0.00    +0.027 A 
ATOM     16  C   UNL     1       0.040  -2.834  -0.114  0.00  0.00    +0.060 A 
ATOM     17  N   UNL     1       0.057  -4.120   0.090  0.00  0.00    -0.359 N 
ATOM     18  C   UNL     1       0.067  -4.335   1.542  0.00  0.00    +0.213 C 
ATOM     19  N   UNL     1       0.053  -3.002   2.159  0.00  0.00    -0.359 N 
ATOM     20  C   UNL     1       0.037  -2.127   1.195  0.00  0.00    +0.061 A 
ATOM     21  C   UNL     1       0.022  -0.657   1.181  0.00  0.00    +0.030 A 
ATOM     22  H   UNL     1       0.062  -4.809  -0.593  0.00  0.00    +0.162 HD
ATOM     23  H   UNL     1       0.055  -2.810   3.109  0.00  0.00    +0.162 HD
ENDBRANCH   1  18
BRANCH   7  24
ATOM     24  C   UNL     1       6.198  -6.383   2.668  0.00  0.00    +0.065 C 
BRANCH  24  25
ATOM     25  C   UNL     1       6.577  -5.411   3.756  0.00  0.00    -0.030 C 
ATOM     26  C   UNL     1       7.727  -5.533   4.372  0.00  0.00    +0.004 C 
ENDBRANCH  24  25
ENDBRANCH   7  24
TORSDOF 3
