REMARK  Name = ZINC39530756
REMARK  6 active torsions:
REMARK  status: ('A' for Active; 'I' for Inactive)
REMARK    1  A    between atoms: C_1  and  C_2
REMARK    2  A    between atoms: C_2  and  C_3
REMARK    3  A    between atoms: C_2  and  S_4
REMARK    4  A    between atoms: S_4  and  C_7
REMARK    5  A    between atoms: C_9  and  O_21
REMARK    6  A    between atoms: C_12  and  N_13
REMARK                            x       y       z     vdW  Elec       q    Type
REMARK                         _______ _______ _______ _____ _____    ______ ____
ROOT
ATOM      1  C   UNL     1       0.231   0.132   2.904  0.00  0.00    +0.113 A 
ATOM      2  C   UNL     1      -0.345  -0.657   3.881  0.00  0.00    +0.074 A 
ATOM      3  C   UNL     1      -1.424  -0.181   4.610  0.00  0.00    +0.119 A 
ATOM      4  C   UNL     1      -1.926   1.088   4.360  0.00  0.00    +0.047 A 
ATOM      5  C   UNL     1      -1.352   1.878   3.384  0.00  0.00    +0.028 A 
ATOM      6  C   UNL     1      -0.267   1.405   2.657  0.00  0.00    +0.055 A 
ENDROOT
BRANCH   6   7
ATOM      7  N   UNL     1       0.320   2.207   1.672  0.00  0.00    -0.323 N 
ATOM      8  C   UNL     1      -0.350   2.429   0.382  0.00  0.00    +0.120 C 
ATOM      9  C   UNL     1       0.645   2.120  -0.742  0.00  0.00    +0.102 C 
ATOM     10  N   UNL     1       1.870   2.904  -0.536  0.00  0.00    -0.285 NA
ATOM     11  C   UNL     1       2.539   2.526   0.716  0.00  0.00    +0.252 C 
ATOM     12  C   UNL     1       1.619   2.856   1.902  0.00  0.00    +0.158 C 
ATOM     13  F   UNL     1       3.735   3.242   0.841  0.00  0.00    -0.227 F 
ATOM     14  H   UNL     1       2.495   2.811  -1.322  0.00  0.00    +0.125 HD
ENDBRANCH   6   7
BRANCH   1  15
ATOM     15  S   UNL     1       1.603  -0.472   1.978  0.00  0.00    +0.001 S 
ATOM     16  O   UNL     1       1.439   0.086   0.681  0.00  0.00    -0.169 OA
ATOM     17  O   UNL     1       1.577  -1.880   2.169  0.00  0.00    -0.169 OA
BRANCH  15  19
ATOM     18  C   UNL     1       3.020  -0.072   4.283  0.00  0.00    +0.032 C 
ATOM     19  C   UNL     1       3.062   0.241   2.786  0.00  0.00    +0.130 C 
ATOM     20  C   UNL     1       4.329  -0.360   2.174  0.00  0.00    +0.032 C 
ENDBRANCH  15  19
ENDBRANCH   1  15
BRANCH   3  21
ATOM     21  O   UNL     1      -1.991  -0.959   5.571  0.00  0.00    -0.507 OA
ATOM     22  H   UNL     1      -1.601  -0.847   6.449  0.00  0.00    +0.292 HD
ENDBRANCH   3  21
TORSDOF 4
