REMARK  Name = ZINC53852171
REMARK  5 active torsions:
REMARK  status: ('A' for Active; 'I' for Inactive)
REMARK    1  A    between atoms: C_1  and  C_2
REMARK    2  A    between atoms: C_5  and  C_8
REMARK    3  A    between atoms: C_17  and  C_19
REMARK    4  A    between atoms: C_23  and  S_25
REMARK    5  A    between atoms: S_25  and  N_28
REMARK                            x       y       z     vdW  Elec       q    Type
REMARK                         _______ _______ _______ _____ _____    ______ ____
ROOT
ATOM      1  C   UNL     1       0.059  -4.252  -0.021  0.00  0.00    +0.022 A 
ATOM      2  C   UNL     1       0.070  -5.109   1.039  0.00  0.00    +0.044 A 
ATOM      3  C   UNL     1       0.088  -6.490   0.819  0.00  0.00    +0.086 A 
ATOM      4  C   UNL     1       0.093  -6.892  -0.531  0.00  0.00    +0.102 A 
ATOM      5  S   UNL     1       0.066  -5.359  -1.422  0.00  0.00    -0.081 S 
ATOM      6  C   UNL     1       0.110  -8.240  -0.891  0.00  0.00    +0.266 A 
ATOM      7  O   UNL     1       0.114  -8.575  -2.063  0.00  0.00    -0.267 OA
ATOM      8  N   UNL     1       0.121  -9.167   0.098  0.00  0.00    -0.306 N 
ATOM      9  H   UNL     1       0.133 -10.113  -0.117  0.00  0.00    +0.170 HD
ATOM     10  C   UNL     1       0.116  -8.752   1.401  0.00  0.00    +0.142 A 
ATOM     11  N   UNL     1       0.100  -7.494   1.746  0.00  0.00    -0.228 NA
ENDROOT
BRANCH   1  16
ATOM     12  C   UNL     1      -0.018   1.503   0.010  0.00  0.00    +0.044 C 
ATOM     13  C   UNL     1       0.002  -0.004   0.002  0.00  0.00    -0.050 A 
ATOM     14  C   UNL     1       0.006  -0.686  -1.202  0.00  0.00    +0.004 A 
ATOM     15  C   UNL     1       0.024  -2.066  -1.216  0.00  0.00    +0.009 A 
ATOM     16  C   UNL     1       0.040  -2.773  -0.013  0.00  0.00    -0.011 A 
ATOM     17  C   UNL     1       0.036  -2.079   1.197  0.00  0.00    +0.009 A 
ATOM     18  C   UNL     1       0.023  -0.699   1.198  0.00  0.00    +0.004 A 
ENDBRANCH   1  16
BRANCH  10  19
ATOM     19  C   UNL     1       0.129  -9.775   2.468  0.00  0.00    +0.019 A 
ATOM     20  C   UNL     1       0.151 -11.132   2.138  0.00  0.00    +0.011 A 
ATOM     21  C   UNL     1       0.164 -12.082   3.138  0.00  0.00    +0.003 A 
ATOM     22  C   UNL     1       0.153 -11.693   4.466  0.00  0.00    +0.028 A 
ATOM     23  C   UNL     1       0.130 -10.351   4.800  0.00  0.00    +0.106 A 
ATOM     24  C   UNL     1       0.124  -9.390   3.809  0.00  0.00    +0.040 A 
BRANCH  23  25
ATOM     25  S   UNL     1       0.117  -9.867   6.494  0.00  0.00    +0.056 S 
ATOM     26  O   UNL     1      -0.455  -8.567   6.540  0.00  0.00    -0.153 OA
ATOM     27  O   UNL     1      -0.418 -10.961   7.225  0.00  0.00    -0.153 OA
BRANCH  25  28
ATOM     28  N   UNL     1       1.695  -9.706   6.970  0.00  0.00    -0.204 NA
ATOM     29  H   UNL     1       2.412  -9.876   6.338  0.00  0.00    +0.144 HD
ATOM     30  H   UNL     1       1.903  -9.443   7.880  0.00  0.00    +0.144 HD
ENDBRANCH  25  28
ENDBRANCH  23  25
ENDBRANCH  10  19
TORSDOF 4
