REMARK  Name = ZINC51250920
REMARK  11 active torsions:
REMARK  status: ('A' for Active; 'I' for Inactive)
REMARK    1  A    between atoms: C_1  and  C_2
REMARK    2  A    between atoms: C_2  and  C_3
REMARK    3  A    between atoms: C_3  and  N_4
REMARK    4  A    between atoms: N_4  and  C_5
REMARK    5  A    between atoms: C_5  and  C_6
REMARK    6  A    between atoms: C_6  and  C_7
REMARK    7  A    between atoms: C_6  and  C_8
REMARK    8  A    between atoms: C_6  and  C_10
REMARK    9  A    between atoms: C_8  and  C_9
REMARK   10  A    between atoms: C_10  and  N_11
REMARK   11  A    between atoms: C_19  and  C_21
REMARK                            x       y       z     vdW  Elec       q    Type
REMARK                         _______ _______ _______ _____ _____    ______ ____
ROOT
ATOM      1  C   UNL     1      -4.132  -4.941   0.308  0.00  0.00    -0.073 C 
ENDROOT
BRANCH   1   2
ATOM      2  N   UNL     1      -5.170  -4.900  -0.731  0.00  0.00    +0.385 N 
ATOM      3  C   UNL     1      -4.629  -5.462  -1.976  0.00  0.00    -0.073 C 
ATOM      4  C   UNL     1      -5.585  -5.119  -3.132  0.00  0.00    +0.024 C 
ATOM      5  C   UNL     1      -6.971  -5.443  -2.681  0.00  0.00    -0.010 A 
ATOM      6  C   UNL     1      -7.366  -5.703  -1.402  0.00  0.00    -0.051 A 
ATOM      7  C   UNL     1      -8.716  -5.987  -1.214  0.00  0.00    +0.010 A 
ATOM      8  C   UNL     1      -9.561  -5.992  -2.273  0.00  0.00    +0.045 A 
ATOM      9  S   UNL     1      -8.463  -5.585  -3.623  0.00  0.00    -0.101 S 
ATOM     10  C   UNL     1      -6.337  -5.665  -0.277  0.00  0.00    -0.040 C 
ATOM     11  C   UNL     1      -6.946  -4.990   0.954  0.00  0.00    -0.008 C 
ATOM     12  H   UNL     1      -5.442  -3.942  -0.890  0.00  0.00    -0.081 HD
ENDBRANCH   1   2
BRANCH   1  13
ATOM     13  C   UNL     1      -3.257  -3.689   0.204  0.00  0.00    -0.062 C 
ATOM     14  C   UNL     1      -2.657  -3.602  -1.200  0.00  0.00    +0.007 C 
BRANCH  13  15
ATOM     15  C   UNL     1      -2.131  -3.767   1.237  0.00  0.00    -0.001 C 
ATOM     16  C   UNL     1      -2.731  -3.911   2.637  0.00  0.00    +0.004 C 
ENDBRANCH  13  15
BRANCH  13  17
ATOM     17  C   UNL     1      -4.110  -2.448   0.473  0.00  0.00    -0.078 C 
BRANCH  17  18
ATOM     18  N   UNL     1      -3.270  -1.246   0.373  0.00  0.00    +0.379 N 
ATOM     19  H   UNL     1      -2.874  -1.188  -0.553  0.00  0.00    -0.086 HD
ATOM     20  H   UNL     1      -2.527  -1.298   1.054  0.00  0.00    -0.086 HD
BRANCH  18  21
ATOM     21  C   UNL     1      -4.089  -0.054   0.631  0.00  0.00    -0.083 C 
BRANCH  21  23
ATOM     22  C   UNL     1      -4.067   2.439   0.796  0.00  0.00    +0.002 C 
ATOM     23  C   UNL     1      -3.215   1.197   0.527  0.00  0.00    -0.022 C 
ENDBRANCH  21  23
ENDBRANCH  18  21
ENDBRANCH  17  18
ENDBRANCH  13  17
ENDBRANCH   1  13
TORSDOF 7
