REMARK  Name = ZINC50865410
REMARK  4 active torsions:
REMARK  status: ('A' for Active; 'I' for Inactive)
REMARK    1  A    between atoms: C_1  and  C_2
REMARK    2  A    between atoms: C_2  and  N_3
REMARK    3  A    between atoms: C_8  and  C_10
REMARK    4  A    between atoms: C_13  and  O_16
REMARK                            x       y       z     vdW  Elec       q    Type
REMARK                         _______ _______ _______ _____ _____    ______ ____
ROOT
ATOM      1  N   UNL     1       0.688  -0.476  -1.203  0.00  0.00    -0.329 N 
ATOM      2  C   UNL     1       0.831  -1.836  -1.431  0.00  0.00    +0.126 A 
ATOM      3  C   UNL     1       1.490  -2.296  -2.579  0.00  0.00    +0.012 A 
ATOM      4  C   UNL     1       1.614  -3.652  -2.766  0.00  0.00    +0.024 A 
ATOM      5  N   UNL     1       1.100  -4.478  -1.859  0.00  0.00    -0.343 N 
ATOM      6  C   UNL     1       0.480  -4.017  -0.784  0.00  0.00    +0.140 A 
ATOM      7  N   UNL     1       0.349  -2.716  -0.563  0.00  0.00    -0.214 NA
ATOM      8  C   UNL     1       2.318  -4.245  -3.957  0.00  0.00    +0.053 C 
ATOM      9  C   UNL     1       2.451  -3.207  -5.070  0.00  0.00    +0.006 C 
ATOM     10  C   UNL     1       3.062  -1.932  -4.477  0.00  0.00    +0.005 C 
ATOM     11  C   UNL     1       2.029  -1.286  -3.554  0.00  0.00    +0.040 C 
ATOM     12  H   UNL     1       1.042   0.162  -1.842  0.00  0.00    +0.147 HD
ATOM     13  H   UNL     1       1.180  -5.436  -1.989  0.00  0.00    +0.167 HD
ENDROOT
BRANCH   6  14
ATOM     14  C   UNL     1      -0.075  -4.978   0.199  0.00  0.00    +0.018 A 
ATOM     15  C   UNL     1       0.062  -6.349  -0.011  0.00  0.00    +0.015 A 
ATOM     16  C   UNL     1      -0.455  -7.240   0.906  0.00  0.00    +0.046 A 
ATOM     17  C   UNL     1      -1.112  -6.773   2.036  0.00  0.00    +0.117 A 
ATOM     18  C   UNL     1      -1.251  -5.407   2.247  0.00  0.00    +0.046 A 
ATOM     19  C   UNL     1      -0.731  -4.511   1.338  0.00  0.00    +0.015 A 
BRANCH  17  20
ATOM     20  O   UNL     1      -1.622  -7.653   2.936  0.00  0.00    -0.507 OA
ATOM     21  H   UNL     1      -1.004  -7.899   3.639  0.00  0.00    +0.292 HD
ENDBRANCH  17  20
ENDBRANCH   6  14
BRANCH   1  23
ATOM     22  C   UNL     1      -0.019   1.526   0.010  0.00  0.00    +0.024 C 
ATOM     23  C   UNL     1       0.002  -0.004   0.002  0.00  0.00    +0.099 C 
ENDBRANCH   1  23
TORSDOF 3
