REMARK  Name = ZINC30345408
REMARK  8 active torsions:
REMARK  status: ('A' for Active; 'I' for Inactive)
REMARK    1  A    between atoms: C_1  and  C_2
REMARK    2  A    between atoms: C_2  and  C_20
REMARK    3  A    between atoms: N_5  and  C_9
REMARK    4  A    between atoms: C_9  and  C_10
REMARK    5  A    between atoms: N_15  and  C_16
REMARK    6  A    between atoms: C_16  and  C_17
REMARK    7  A    between atoms: C_16  and  C_18
REMARK    8  A    between atoms: C_16  and  C_19
REMARK                            x       y       z     vdW  Elec       q    Type
REMARK                         _______ _______ _______ _____ _____    ______ ____
ROOT
ATOM      1  C   UNL     1      -6.963   5.843   1.182  0.00  0.00    +0.050 C 
ATOM      2  C   UNL     1      -5.872   6.801   0.701  0.00  0.00    +0.168 C 
ATOM      3  C   UNL     1      -4.508   6.337   1.173  0.00  0.00    +0.254 C 
ATOM      4  O   UNL     1      -4.136   6.205   2.319  0.00  0.00    -0.272 OA
ATOM      5  N   UNL     1      -3.797   6.101   0.053  0.00  0.00    -0.215 N 
ATOM      6  C   UNL     1      -4.512   6.353  -1.049  0.00  0.00    +0.310 C 
ATOM      7  O   UNL     1      -4.083   6.218  -2.178  0.00  0.00    -0.252 OA
ATOM      8  N   UNL     1      -5.760   6.769  -0.767  0.00  0.00    -0.279 N 
ATOM      9  H   UNL     1      -6.618   7.059  -1.391  0.00  0.00    +0.152 HD
ENDROOT
BRANCH   2  10
ATOM     10  C   UNL     1      -6.151   8.203   1.181  0.00  0.00    +0.138 A 
ATOM     11  C   UNL     1      -6.909   9.098   0.535  0.00  0.00    +0.056 A 
ATOM     12  C   UNL     1      -6.904  10.311   1.361  0.00  0.00    +0.020 A 
ATOM     13  C   UNL     1      -7.490  11.571   1.248  0.00  0.00    +0.011 A 
ATOM     14  C   UNL     1      -7.275  12.508   2.220  0.00  0.00    +0.001 A 
ATOM     15  C   UNL     1      -6.479  12.214   3.317  0.00  0.00    +0.004 A 
ATOM     16  C   UNL     1      -5.890  10.974   3.446  0.00  0.00    +0.047 A 
ATOM     17  C   UNL     1      -6.096  10.007   2.469  0.00  0.00    +0.135 A 
ATOM     18  O   UNL     1      -5.669   8.737   2.317  0.00  0.00    -0.457 OA
ENDBRANCH   2  10
BRANCH   5  19
ATOM     19  C   UNL     1      -2.409   5.631   0.044  0.00  0.00    +0.214 C 
BRANCH  19  20
ATOM     20  C   UNL     1      -2.389   4.124   0.036  0.00  0.00    +0.238 C 
ATOM     21  O   UNL     1      -3.430   3.504   0.037  0.00  0.00    -0.274 OA
ATOM     22  N   UNL     1      -1.212   3.466   0.027  0.00  0.00    -0.239 N 
ATOM     23  C   UNL     1      -1.194   2.119   0.019  0.00  0.00    +0.306 C 
ATOM     24  O   UNL     1      -2.238   1.497   0.021  0.00  0.00    -0.252 OA
ATOM     25  N   UNL     1      -0.018   1.461   0.010  0.00  0.00    -0.294 N 
ATOM     26  H   UNL     1      -0.267   4.029   0.025  0.00  0.00    +0.159 HD
ATOM     27  H   UNL     1       0.927   2.024   0.009  0.00  0.00    +0.151 HD
BRANCH  25  28
ATOM     28  C   UNL     1       0.002  -0.004   0.002  0.00  0.00    +0.028 C 
ATOM     29  C   UNL     1      -0.724  -0.517  -1.243  0.00  0.00    +0.031 C 
ATOM     30  C   UNL     1       1.451  -0.494  -0.015  0.00  0.00    +0.031 C 
ATOM     31  C   UNL     1      -0.700  -0.530   1.255  0.00  0.00    +0.031 C 
ENDBRANCH  25  28
ENDBRANCH  19  20
ENDBRANCH   5  19
TORSDOF 4
