REMARK  Name = ZINC41038407
REMARK  7 active torsions:
REMARK  status: ('A' for Active; 'I' for Inactive)
REMARK    1  A    between atoms: C_1  and  C_2
REMARK    2  A    between atoms: C_2  and  C_3
REMARK    3  A    between atoms: C_9  and  O_11
REMARK    4  A    between atoms: O_11  and  C_12
REMARK    5  A    between atoms: C_12  and  C_14
REMARK    6  A    between atoms: C_14  and  N_22
REMARK    7  A    between atoms: C_19  and  C_21
REMARK                            x       y       z     vdW  Elec       q    Type
REMARK                         _______ _______ _______ _____ _____    ______ ____
ROOT
ATOM      1  C   UNL     1       0.771  -3.767   0.261  0.00  0.00    +0.296 C 
ATOM      2  O   UNL     1      -0.239  -4.213  -0.229  0.00  0.00    -0.252 OA
ENDROOT
BRANCH   1   3
ATOM      3  C   UNL     1       1.376  -4.426   1.473  0.00  0.00    +0.031 C 
ATOM      4  C   UNL     1       2.519  -5.346   1.037  0.00  0.00    -0.002 C 
ATOM      5  C   UNL     1       1.977  -6.418   0.090  0.00  0.00    -0.001 C 
ATOM      6  C   UNL     1       0.907  -7.241   0.810  0.00  0.00    +0.000 C 
ATOM      7  C   UNL     1      -0.236  -6.322   1.246  0.00  0.00    +0.002 C 
ATOM      8  C   UNL     1       0.306  -5.249   2.193  0.00  0.00    -0.015 C 
ATOM      9  C   UNL     1      -0.837  -4.330   2.630  0.00  0.00    +0.006 C 
BRANCH   3  10
ATOM     10  N   UNL     1       1.896  -3.396   2.382  0.00  0.00    +0.389 N 
ATOM     11  H   UNL     1       1.143  -2.790   2.670  0.00  0.00    -0.088 HD
ATOM     12  H   UNL     1       2.301  -3.838   3.194  0.00  0.00    -0.088 HD
ATOM     13  H   UNL     1       2.602  -2.854   1.907  0.00  0.00    -0.088 HD
ENDBRANCH   3  10
ENDBRANCH   1   3
BRANCH   1  14
ATOM     14  O   UNL     1       1.355  -2.683  -0.276  0.00  0.00    -0.462 OA
BRANCH  14  20
ATOM     15  C   UNL     1       0.997  -0.604  -1.454  0.00  0.00    +0.030 C 
ATOM     16  C   UNL     1       2.506  -0.358  -1.521  0.00  0.00    +0.007 C 
ATOM     17  C   UNL     1       3.072  -1.003  -2.788  0.00  0.00    +0.001 C 
ATOM     18  C   UNL     1       2.802  -2.509  -2.757  0.00  0.00    +0.004 C 
ATOM     19  C   UNL     1       1.293  -2.755  -2.690  0.00  0.00    +0.045 C 
ATOM     20  C   UNL     1       0.727  -2.110  -1.424  0.00  0.00    +0.179 C 
BRANCH  15  22
ATOM     21  C   UNL     1       0.590   1.560  -0.274  0.00  0.00    +0.004 C 
ATOM     22  C   UNL     1       0.431   0.041  -0.188  0.00  0.00    +0.004 C 
ENDBRANCH  15  22
ENDBRANCH  14  20
ENDBRANCH   1  14
TORSDOF 5
