REMARK  Name = ZINC20055463
REMARK  6 active torsions:
REMARK  status: ('A' for Active; 'I' for Inactive)
REMARK    1  A    between atoms: C_1  and  C_2
REMARK    2  A    between atoms: C_7  and  N_12
REMARK    3  A    between atoms: C_9  and  C_11
REMARK    4  A    between atoms: N_12  and  C_13
REMARK    5  A    between atoms: C_13  and  C_14
REMARK    6  A    between atoms: N_16  and  C_17
REMARK                            x       y       z     vdW  Elec       q    Type
REMARK                         _______ _______ _______ _____ _____    ______ ____
ROOT
ATOM      1  N   UNL     1      -3.611   1.792   0.029  0.00  0.00    +0.387 N 
ATOM      2  H   UNL     1      -3.549   2.428  -0.866  0.00  0.00    -0.085 HD
ATOM      3  H   UNL     1      -3.541   2.419   0.930  0.00  0.00    -0.085 HD
ENDROOT
BRANCH   1   9
ATOM      4  C   UNL     1      -7.195   4.139  -0.333  0.00  0.00    +0.008 C 
ATOM      5  C   UNL     1      -6.108   3.245   0.266  0.00  0.00    -0.013 C 
ATOM      6  C   UNL     1      -6.485   2.878   1.703  0.00  0.00    +0.003 C 
ATOM      7  C   UNL     1      -5.398   1.983   2.303  0.00  0.00    -0.001 C 
ATOM      8  C   UNL     1      -5.270   0.708   1.468  0.00  0.00    -0.015 C 
ATOM      9  C   UNL     1      -4.893   1.074   0.031  0.00  0.00    -0.068 C 
ATOM     10  C   UNL     1      -5.980   1.969  -0.569  0.00  0.00    -0.025 C 
ATOM     11  C   UNL     1      -5.603   2.336  -2.005  0.00  0.00    +0.006 C 
ENDBRANCH   1   9
BRANCH   1  12
ATOM     12  C   UNL     1      -2.482   0.853   0.018  0.00  0.00    +0.015 C 
BRANCH  12  13
ATOM     13  C   UNL     1      -1.187   1.624   0.017  0.00  0.00    +0.196 C 
ATOM     14  O   UNL     1      -1.204   2.837   0.023  0.00  0.00    -0.278 OA
ATOM     15  N   UNL     1      -0.011   0.966   0.007  0.00  0.00    -0.314 N 
ATOM     16  H   UNL     1       0.004  -0.134   0.006  0.00  0.00    +0.149 HD
BRANCH  15  17
ATOM     17  C   UNL     1       1.248   1.716  -0.001  0.00  0.00    +0.073 C 
ATOM     18  C   UNL     1       1.660   2.041  -1.451  0.00  0.00    +0.022 C 
ATOM     19  C   UNL     1       3.203   1.904  -1.448  0.00  0.00    +0.002 C 
ATOM     20  C   UNL     1       3.436   0.690  -0.514  0.00  0.00    +0.002 C 
ATOM     21  C   UNL     1       2.377   0.856   0.595  0.00  0.00    +0.022 C 
ENDBRANCH  15  17
ENDBRANCH  12  13
ENDBRANCH   1  12
TORSDOF 4
