REMARK  Name = ZINC03421525
REMARK  4 active torsions:
REMARK  status: ('A' for Active; 'I' for Inactive)
REMARK    1  A    between atoms: C_7  and  C_12
REMARK    2  A    between atoms: C_12  and  S_13
REMARK    3  A    between atoms: S_13  and  C_14
REMARK    4  A    between atoms: C_18  and  N_20
REMARK                            x       y       z     vdW  Elec       q    Type
REMARK                         _______ _______ _______ _____ _____    ______ ____
ROOT
ATOM      1  C   UNL     1      -0.017   1.393   0.010  0.00  0.00    +0.015 A 
ATOM      2  C   UNL     1       1.170   2.096   0.002  0.00  0.00    -0.043 A 
ATOM      3  C   UNL     1       2.382   1.421  -0.013  0.00  0.00    -0.041 A 
ATOM      4  C   UNL     1       2.413   0.038  -0.019  0.00  0.00    +0.051 A 
ATOM      5  C   UNL     1       1.231  -0.688  -0.011  0.00  0.00    +0.140 A 
ATOM      6  C   UNL     1       0.002  -0.004   0.002  0.00  0.00    +0.022 A 
ATOM      7  C   UNL     1      -1.243  -0.779   0.007  0.00  0.00    -0.020 A 
ATOM      8  C   UNL     1      -1.155  -2.133  -0.001  0.00  0.00    +0.097 A 
ATOM      9  C   UNL     1       0.113  -2.753  -0.014  0.00  0.00    +0.338 A 
ATOM     10  O   UNL     1       0.178  -3.969  -0.022  0.00  0.00    -0.245 OA
ATOM     11  O   UNL     1       1.248  -2.038  -0.017  0.00  0.00    -0.422 OA
ATOM     12  C   UNL     1       3.521   2.420  -0.019  0.00  0.00    +0.036 C 
ATOM     13  C   UNL     1       2.882   3.758  -0.448  0.00  0.00    +0.009 C 
ATOM     14  C   UNL     1       1.418   3.590   0.008  0.00  0.00    +0.036 C 
ENDROOT
BRANCH   7  15
ATOM     15  C   UNL     1      -2.583  -0.090   0.022  0.00  0.00    +0.113 C 
BRANCH  15  16
ATOM     16  S   UNL     1      -2.905   0.570   1.681  0.00  0.00    -0.081 S 
BRANCH  16  17
ATOM     17  C   UNL     1      -4.486   1.334   1.536  0.00  0.00    +0.192 A 
ATOM     18  N   UNL     1      -5.115   1.300   0.370  0.00  0.00    -0.207 NA
ATOM     19  C   UNL     1      -6.311   1.866   0.224  0.00  0.00    +0.122 A 
ATOM     20  C   UNL     1      -6.899   2.499   1.315  0.00  0.00    +0.086 A 
ATOM     21  C   UNL     1      -6.208   2.514   2.524  0.00  0.00    +0.122 A 
ATOM     22  N   UNL     1      -5.018   1.923   2.597  0.00  0.00    -0.207 NA
ATOM     23  N   UNL     1      -6.961   1.827  -0.999  0.00  0.00    -0.343 N 
ATOM     24  H   UNL     1      -6.545   1.385  -1.756  0.00  0.00    +0.144 HD
ATOM     25  H   UNL     1      -7.833   2.241  -1.099  0.00  0.00    +0.144 HD
BRANCH  21  26
ATOM     26  N   UNL     1      -6.755   3.133   3.637  0.00  0.00    -0.343 N 
ATOM     27  H   UNL     1      -7.625   3.559   3.577  0.00  0.00    +0.144 HD
ATOM     28  H   UNL     1      -6.269   3.139   4.476  0.00  0.00    +0.144 HD
ENDBRANCH  21  26
ENDBRANCH  16  17
ENDBRANCH  15  16
ENDBRANCH   7  15
TORSDOF 4
