REMARK  Name = ZINC19841780
REMARK  3 active torsions:
REMARK  status: ('A' for Active; 'I' for Inactive)
REMARK    1  A    between atoms: C_6  and  C_7
REMARK    2  A    between atoms: C_7  and  C_9
REMARK    3  A    between atoms: C_7  and  N_17
REMARK                            x       y       z     vdW  Elec       q    Type
REMARK                         _______ _______ _______ _____ _____    ______ ____
ROOT
ATOM      1  C   UNL     1      -3.692  -0.803   0.018  0.00  0.00    -0.010 C 
ENDROOT
BRANCH   1   7
ATOM      2  C   UNL     1      -2.415   1.349   0.027  0.00  0.00    +0.006 A 
ATOM      3  C   UNL     1      -1.229   2.059   0.019  0.00  0.00    +0.049 A 
ATOM      4  C   UNL     1      -0.017   1.386   0.010  0.00  0.00    +0.162 A 
ATOM      5  C   UNL     1       0.002  -0.004   0.002  0.00  0.00    +0.162 A 
ATOM      6  C   UNL     1      -1.191  -0.710   0.004  0.00  0.00    +0.051 A 
ATOM      7  C   UNL     1      -2.397  -0.033   0.016  0.00  0.00    -0.054 A 
ATOM      8  O   UNL     1       1.181  -0.685  -0.007  0.00  0.00    -0.485 OA
ATOM      9  C   UNL     1       2.347   0.054  -0.388  0.00  0.00    +0.270 C 
ATOM     10  C   UNL     1       2.334   1.392   0.364  0.00  0.00    +0.270 C 
ATOM     11  O   UNL     1       1.143   2.098   0.002  0.00  0.00    -0.485 OA
ENDBRANCH   1   7
BRANCH   1  12
ATOM     12  C   UNL     1      -4.242  -0.858   1.420  0.00  0.00    -0.022 A 
ATOM     13  C   UNL     1      -5.251   0.007   1.801  0.00  0.00    +0.006 A 
ATOM     14  C   UNL     1      -5.755  -0.043   3.087  0.00  0.00    +0.015 A 
ATOM     15  C   UNL     1      -5.251  -0.958   3.994  0.00  0.00    +0.021 A 
ATOM     16  C   UNL     1      -4.242  -1.824   3.615  0.00  0.00    +0.053 A 
ATOM     17  C   UNL     1      -3.740  -1.778   2.325  0.00  0.00    +0.126 A 
ATOM     18  F   UNL     1      -2.757  -2.626   1.952  0.00  0.00    -0.205 F 
ATOM     19 BR   UNL     1      -5.943  -1.026   5.753  0.00  0.00    -0.050 Br
ENDBRANCH   1  12
BRANCH   1  20
ATOM     20  N   UNL     1      -4.660  -0.134  -0.862  0.00  0.00    +0.385 N 
ATOM     21  H   UNL     1      -5.606  -0.696  -0.860  0.00  0.00    -0.089 HD
ATOM     22  H   UNL     1      -4.259  -0.094  -1.885  0.00  0.00    -0.089 HD
ATOM     23  H   UNL     1      -4.841   0.888  -0.498  0.00  0.00    -0.089 HD
ENDBRANCH   1  20
TORSDOF 3
