REMARK  Name = ZINC22147480
REMARK  5 active torsions:
REMARK  status: ('A' for Active; 'I' for Inactive)
REMARK    1  A    between atoms: C_1  and  C_2
REMARK    2  A    between atoms: C_7  and  N_8
REMARK    3  A    between atoms: N_8  and  S_9
REMARK    4  A    between atoms: S_9  and  C_12
REMARK    5  A    between atoms: C_14  and  N_20
REMARK                            x       y       z     vdW  Elec       q    Type
REMARK                         _______ _______ _______ _____ _____    ______ ____
ROOT
ATOM      1  S   UNL     1      -2.501  -0.453   0.729  0.00  0.00    +0.075 S 
ATOM      2  O   UNL     1      -3.810  -0.951   0.489  0.00  0.00    -0.150 OA
ATOM      3  O   UNL     1      -1.333  -1.154   0.323  0.00  0.00    -0.150 OA
ENDROOT
BRANCH   1   4
ATOM      4  C   UNL     1      -2.365  -0.211   2.469  0.00  0.00    +0.145 A 
ATOM      5  C   UNL     1      -3.427  -0.527   3.294  0.00  0.00    +0.057 A 
ATOM      6  C   UNL     1      -3.320  -0.338   4.665  0.00  0.00    +0.062 A 
ATOM      7  C   UNL     1      -2.144   0.171   5.204  0.00  0.00    +0.147 A 
ATOM      8  C   UNL     1      -1.084   0.486   4.374  0.00  0.00    +0.080 A 
ATOM      9  C   UNL     1      -1.193   0.290   3.007  0.00  0.00    +0.153 A 
ATOM     10  F   UNL     1      -0.154   0.594   2.198  0.00  0.00    -0.203 F 
ATOM     11  F   UNL     1      -2.036   0.358   6.538  0.00  0.00    -0.203 F 
BRANCH   6  12
ATOM     12  N   UNL     1      -4.395  -0.657   5.503  0.00  0.00    -0.356 N 
ATOM     13  H   UNL     1      -4.310  -0.506   6.589  0.00  0.00    +0.142 HD
ATOM     14  H   UNL     1      -5.326  -1.059   5.075  0.00  0.00    +0.142 HD
ENDBRANCH   6  12
ENDBRANCH   1   4
BRANCH   1  15
ATOM     15  N   UNL     1      -2.426   1.042   0.019  0.00  0.00    -0.216 N 
ATOM     16  H   UNL     1      -3.305   1.447  -0.503  0.00  0.00    +0.174 HD
BRANCH  15  23
ATOM     17  C   UNL     1      -2.455   3.473   1.496  0.00  0.00    +0.046 C 
ATOM     18  C   UNL     1      -1.216   2.981   0.794  0.00  0.00    -0.027 A 
ATOM     19  C   UNL     1      -0.049   3.719   0.852  0.00  0.00    +0.020 A 
ATOM     20  C   UNL     1       1.089   3.268   0.207  0.00  0.00    +0.018 A 
ATOM     21  C   UNL     1       1.062   2.076  -0.497  0.00  0.00    +0.017 A 
ATOM     22  C   UNL     1      -0.101   1.334  -0.558  0.00  0.00    +0.026 A 
ATOM     23  C   UNL     1      -1.246   1.787   0.084  0.00  0.00    +0.051 A 
ATOM     24 BR   UNL     1       2.683   4.281   0.287  0.00  0.00    -0.050 Br
ENDBRANCH  15  23
ENDBRANCH   1  15
TORSDOF 4
