REMARK  Name = ZINC55023530
REMARK  6 active torsions:
REMARK  status: ('A' for Active; 'I' for Inactive)
REMARK    1  A    between atoms: C_1  and  C_2
REMARK    2  A    between atoms: C_4  and  C_19
REMARK    3  A    between atoms: N_5  and  C_7
REMARK    4  A    between atoms: C_7  and  C_9
REMARK    5  A    between atoms: C_7  and  C_13
REMARK    6  A    between atoms: C_9  and  C_10
REMARK                            x       y       z     vdW  Elec       q    Type
REMARK                         _______ _______ _______ _____ _____    ______ ____
ROOT
ATOM      1  C   UNL     1       0.053  -3.295   1.486  0.00  0.00    +0.144 C 
ENDROOT
BRANCH   1   6
ATOM      2  C   UNL     1      -0.018   1.503   0.010  0.00  0.00    +0.068 C 
ATOM      3  C   UNL     1       0.002  -0.004   0.002  0.00  0.00    +0.074 A 
ATOM      4  C   UNL     1       0.008  -0.818  -1.136  0.00  0.00    +0.061 A 
ATOM      5  C   UNL     1       0.027  -2.108  -0.725  0.00  0.00    +0.051 A 
ATOM      6  N   UNL     1       0.034  -2.109   0.625  0.00  0.00    -0.259 N 
ATOM      7  N   UNL     1       0.023  -0.777   1.058  0.00  0.00    -0.175 NA
ATOM      8  C   UNL     1       0.039  -3.324  -1.615  0.00  0.00    +0.066 C 
ATOM      9 BR   UNL     1      -0.009  -0.222  -2.930  0.00  0.00    -0.047 Br
ENDBRANCH   1   6
BRANCH   1  10
ATOM     10  C   UNL     1      -1.173  -3.300   2.361  0.00  0.00    -0.023 A 
ATOM     11  C   UNL     1      -1.405  -2.253   3.233  0.00  0.00    +0.006 A 
ATOM     12  C   UNL     1      -2.530  -2.259   4.036  0.00  0.00    +0.000 A 
ATOM     13  C   UNL     1      -3.424  -3.311   3.967  0.00  0.00    +0.000 A 
ATOM     14  C   UNL     1      -3.192  -4.358   3.095  0.00  0.00    +0.000 A 
ATOM     15  C   UNL     1      -2.069  -4.351   2.288  0.00  0.00    +0.006 A 
ENDBRANCH   1  10
BRANCH   1  16
ATOM     16  C   UNL     1       1.306  -3.267   2.363  0.00  0.00    +0.100 C 
BRANCH  16  17
ATOM     17  C   UNL     1       1.391  -4.543   3.159  0.00  0.00    +0.065 C 
ATOM     18  N   UNL     1       0.826  -4.617   4.352  0.00  0.00    -0.391 N 
ATOM     19  N   UNL     1       2.030  -5.590   2.664  0.00  0.00    -0.348 N 
ATOM     20  H   UNL     1       0.880  -5.439   4.864  0.00  0.00    +0.157 HD
ATOM     21  H   UNL     1       2.444  -5.535   1.789  0.00  0.00    +0.143 HD
ATOM     22  H   UNL     1       2.084  -6.411   3.177  0.00  0.00    +0.143 HD
ATOM     23  H   UNL     1       0.357  -3.850   4.715  0.00  0.00    +0.157 HD
ENDBRANCH  16  17
ENDBRANCH   1  16
TORSDOF 4
