REMARK  Name = ZINC39533405
REMARK  10 active torsions:
REMARK  status: ('A' for Active; 'I' for Inactive)
REMARK    1  A    between atoms: C_1  and  C_2
REMARK    2  A    between atoms: C_2  and  C_3
REMARK    3  A    between atoms: C_2  and  C_4
REMARK    4  A    between atoms: C_4  and  C_5
REMARK    5  A    between atoms: C_8  and  C_11
REMARK    6  A    between atoms: C_11  and  C_13
REMARK    7  A    between atoms: C_11  and  N_22
REMARK    8  A    between atoms: C_13  and  N_14
REMARK    9  A    between atoms: N_14  and  C_15
REMARK   10  A    between atoms: C_15  and  C_16
REMARK                            x       y       z     vdW  Elec       q    Type
REMARK                         _______ _______ _______ _____ _____    ______ ____
ROOT
ATOM      1  C   UNL     1       6.267   1.105  -1.070  0.00  0.00    +0.070 C 
ENDROOT
BRANCH   1   2
ATOM      2  N   UNL     1       6.812   0.831   0.266  0.00  0.00    -0.298 NA
ATOM      3  C   UNL     1       6.804  -0.611   0.552  0.00  0.00    +0.066 C 
ATOM      4  C   UNL     1       7.433  -0.859   1.925  0.00  0.00    -0.063 C 
ATOM      5  N   UNL     1       6.671  -0.135   2.951  0.00  0.00    +0.400 N 
ATOM      6  C   UNL     1       6.708   1.306   2.665  0.00  0.00    +0.116 C 
ATOM      7  C   UNL     1       6.073   1.572   1.298  0.00  0.00    +0.099 C 
ATOM      8  O   UNL     1       5.980   2.010   3.674  0.00  0.00    -0.251 OA
ATOM      9  H   UNL     1       5.713  -0.454   2.946  0.00  0.00    -0.082 HD
ATOM     10  H   UNL     1       7.078  -0.308   3.857  0.00  0.00    -0.082 HD
ENDBRANCH   1   2
BRANCH   1  14
ATOM     11  C   UNL     1       2.289  -0.431  -1.327  0.00  0.00    -0.047 A 
ATOM     12  C   UNL     1       3.365  -1.299  -1.293  0.00  0.00    +0.004 A 
ATOM     13  C   UNL     1       4.652  -0.802  -1.210  0.00  0.00    +0.005 A 
ATOM     14  C   UNL     1       4.864   0.563  -1.162  0.00  0.00    -0.032 A 
ATOM     15  C   UNL     1       3.788   1.431  -1.197  0.00  0.00    +0.005 A 
ATOM     16  C   UNL     1       2.502   0.934  -1.284  0.00  0.00    +0.004 A 
BRANCH  11  17
ATOM     17  C   UNL     1       0.886  -0.973  -1.417  0.00  0.00    +0.038 C 
BRANCH  17  19
ATOM     18  C   UNL     1       1.377  -2.182  -3.548  0.00  0.00    +0.007 C 
ATOM     19  C   UNL     1       0.491  -1.124  -2.888  0.00  0.00    -0.013 C 
ATOM     20  C   UNL     1      -0.974  -1.555  -2.981  0.00  0.00    +0.007 C 
ENDBRANCH  17  19
ENDBRANCH  11  17
ENDBRANCH   1  14
BRANCH   1  21
ATOM     21  C   UNL     1       7.144   0.431  -2.127  0.00  0.00    -0.058 C 
BRANCH  21  22
ATOM     22  N   UNL     1       8.536   0.870  -1.961  0.00  0.00    +0.383 N 
ATOM     23  H   UNL     1       8.588   1.871  -2.070  0.00  0.00    -0.085 HD
ATOM     24  H   UNL     1       8.862   0.614  -1.040  0.00  0.00    -0.085 HD
BRANCH  22  25
ATOM     25  C   UNL     1       9.378   0.222  -2.975  0.00  0.00    -0.047 C 
BRANCH  25  26
ATOM     26  C   UNL     1      10.806   0.672  -2.804  0.00  0.00    -0.064 A 
ATOM     27  C   UNL     1      11.261   1.796  -3.470  0.00  0.00    +0.002 A 
ATOM     28  C   UNL     1      12.571   2.208  -3.313  0.00  0.00    +0.000 A 
ATOM     29  C   UNL     1      13.426   1.498  -2.491  0.00  0.00    +0.000 A 
ATOM     30  C   UNL     1      12.971   0.376  -1.825  0.00  0.00    +0.000 A 
ATOM     31  C   UNL     1      11.660  -0.035  -1.978  0.00  0.00    +0.002 A 
ENDBRANCH  25  26
ENDBRANCH  22  25
ENDBRANCH  21  22
ENDBRANCH   1  21
TORSDOF 8
