REMARK  Name = ZINC51094401
REMARK  5 active torsions:
REMARK  status: ('A' for Active; 'I' for Inactive)
REMARK    1  A    between atoms: C_1  and  C_2
REMARK    2  A    between atoms: C_8  and  C_10
REMARK    3  A    between atoms: C_10  and  N_11
REMARK    4  A    between atoms: C_12  and  C_14
REMARK    5  A    between atoms: N_20  and  N_21
REMARK                            x       y       z     vdW  Elec       q    Type
REMARK                         _______ _______ _______ _____ _____    ______ ____
ROOT
ATOM      1  N   UNL     1       2.921  -0.562   2.352  0.00  0.00    -0.310 N 
ATOM      2  C   UNL     1       4.215  -0.237   2.543  0.00  0.00    +0.264 C 
ATOM      3  O   UNL     1       4.765   0.538   1.785  0.00  0.00    -0.268 OA
ATOM      4  H   UNL     1       2.481  -1.180   2.957  0.00  0.00    +0.149 HD
ENDROOT
BRANCH   2   5
ATOM      5  C   UNL     1       4.965  -0.822   3.675  0.00  0.00    +0.148 A 
ATOM      6  C   UNL     1       6.308  -0.481   3.879  0.00  0.00    +0.038 A 
ATOM      7  C   UNL     1       6.967  -1.054   4.951  0.00  0.00    +0.049 A 
ATOM      8  C   UNL     1       6.254  -1.937   5.764  0.00  0.00    +0.155 A 
ATOM      9  N   UNL     1       4.981  -2.203   5.495  0.00  0.00    -0.132 NA
ATOM     10  N   UNL     1       4.365  -1.669   4.504  0.00  0.00    -0.143 NA
ATOM     11  N   UNL     1       6.874  -2.535   6.848  0.00  0.00    -0.266 N 
ATOM     12  H   UNL     1       7.804  -2.341   7.044  0.00  0.00    +0.167 HD
BRANCH  11  13
ATOM     13  N   UNL     1       6.175  -3.399   7.644  0.00  0.00    -0.255 NA
ATOM     14  H   UNL     1       6.755  -3.753   8.389  0.00  0.00    +0.140 HD
ATOM     15  H   UNL     1       5.343  -2.961   8.009  0.00  0.00    +0.140 HD
ENDBRANCH  11  13
ENDBRANCH   2   5
BRANCH   1  16
ATOM     16  C   UNL     1       2.178   0.019   1.231  0.00  0.00    +0.108 C 
BRANCH  16  23
ATOM     17  C   UNL     1      -0.019   1.526   0.010  0.00  0.00    +0.008 C 
ATOM     18  C   UNL     1       0.002  -0.004   0.002  0.00  0.00    -0.010 C 
ATOM     19  C   UNL     1      -1.433  -0.534   0.013  0.00  0.00    +0.003 C 
ATOM     20  C   UNL     1      -2.149  -0.040   1.272  0.00  0.00    +0.000 C 
ATOM     21  C   UNL     1      -1.409  -0.547   2.511  0.00  0.00    +0.000 C 
ATOM     22  C   UNL     1       0.026  -0.018   2.500  0.00  0.00    +0.005 C 
ATOM     23  C   UNL     1       0.742  -0.511   1.242  0.00  0.00    +0.009 C 
ENDBRANCH  16  23
ENDBRANCH   1  16
TORSDOF 4
