REMARK  Name = ZINC04678732
REMARK  8 active torsions:
REMARK  status: ('A' for Active; 'I' for Inactive)
REMARK    1  A    between atoms: C_1  and  O_2
REMARK    2  A    between atoms: O_2  and  C_3
REMARK    3  A    between atoms: C_6  and  N_9
REMARK    4  A    between atoms: C_12  and  C_19
REMARK    5  A    between atoms: C_13  and  O_18
REMARK    6  A    between atoms: N_20  and  C_21
REMARK    7  A    between atoms: C_21  and  C_22
REMARK    8  A    between atoms: C_25  and  C_28
REMARK                            x       y       z     vdW  Elec       q    Type
REMARK                         _______ _______ _______ _____ _____    ______ ____
ROOT
ATOM      1  N   UNL     1      -6.446   7.209   5.102  0.00  0.00    -0.228 N 
ATOM      2  C   UNL     1      -6.553   7.034   3.769  0.00  0.00    +0.273 A 
ATOM      3  O   UNL     1      -6.737   7.984   3.030  0.00  0.00    -0.266 OA
ATOM      4  C   UNL     1      -6.450   5.675   3.227  0.00  0.00    +0.117 A 
ATOM      5  C   UNL     1      -6.234   4.627   4.124  0.00  0.00    +0.208 A 
ATOM      6  N   UNL     1      -6.134   4.905   5.457  0.00  0.00    -0.278 N 
ATOM      7  H   UNL     1      -5.979   4.158   6.103  0.00  0.00    +0.173 HD
ATOM      8  C   UNL     1      -6.238   6.162   5.917  0.00  0.00    +0.337 A 
ATOM      9  O   UNL     1      -6.141   6.359   7.113  0.00  0.00    -0.246 OA
ENDROOT
BRANCH   1  13
ATOM     10  C   UNL     1      -6.745  11.047   6.709  0.00  0.00    +0.120 A 
ATOM     11  C   UNL     1      -7.882  10.266   6.561  0.00  0.00    +0.047 A 
ATOM     12  C   UNL     1      -7.784   8.996   6.030  0.00  0.00    +0.030 A 
ATOM     13  C   UNL     1      -6.546   8.500   5.642  0.00  0.00    +0.055 A 
ATOM     14  C   UNL     1      -5.408   9.279   5.795  0.00  0.00    +0.030 A 
ATOM     15  C   UNL     1      -5.508  10.552   6.322  0.00  0.00    +0.047 A 
BRANCH  10  17
ATOM     16  C   UNL     1      -5.631  13.045   7.357  0.00  0.00    +0.277 C 
ATOM     17  O   UNL     1      -6.842  12.297   7.234  0.00  0.00    -0.495 OA
ENDBRANCH  10  17
ENDBRANCH   1  13
BRANCH   5  18
ATOM     18  O   UNL     1      -6.127   3.360   3.680  0.00  0.00    -0.493 OA
ATOM     19  H   UNL     1      -5.978   2.674   4.345  0.00  0.00    +0.294 HD
ENDBRANCH   5  18
BRANCH   4  20
ATOM     20  C   UNL     1      -6.565   5.425   1.787  0.00  0.00    +0.123 C 
ATOM     21  N   UNL     1      -6.465   4.215   1.328  0.00  0.00    -0.286 NA
BRANCH  21  22
ATOM     22  C   UNL     1      -6.580   3.965  -0.111  0.00  0.00    +0.176 C 
BRANCH  22  23
ATOM     23  C   UNL     1      -5.266   3.445  -0.636  0.00  0.00    -0.026 A 
ATOM     24  C   UNL     1      -5.022   2.083  -0.653  0.00  0.00    +0.006 A 
ATOM     25  C   UNL     1      -3.822   1.601  -1.133  0.00  0.00    +0.015 A 
ATOM     26  C   UNL     1      -2.853   2.490  -1.603  0.00  0.00    +0.063 A 
ATOM     27  C   UNL     1      -3.104   3.863  -1.577  0.00  0.00    +0.015 A 
ATOM     28  C   UNL     1      -4.311   4.332  -1.100  0.00  0.00    +0.006 A 
BRANCH  26  29
ATOM     29  C   UNL     1      -1.566   1.980  -2.118  0.00  0.00    +0.387 C 
ATOM     30  O   UNL     1      -1.349   0.785  -2.134  0.00  0.00    -0.241 OA
ATOM     31  O   UNL     1      -0.636   2.840  -2.576  0.00  0.00    -0.241 OA
ENDBRANCH  26  29
ENDBRANCH  22  23
ENDBRANCH  21  22
ENDBRANCH   4  20
TORSDOF 7
