REMARK  Name = ZINC39689144
REMARK  5 active torsions:
REMARK  status: ('A' for Active; 'I' for Inactive)
REMARK    1  A    between atoms: C_4  and  N_6
REMARK    2  A    between atoms: C_9  and  C_12
REMARK    3  A    between atoms: C_12  and  N_13
REMARK    4  A    between atoms: C_14  and  C_16
REMARK    5  A    between atoms: C_27  and  C_29
REMARK                            x       y       z     vdW  Elec       q    Type
REMARK                         _______ _______ _______ _____ _____    ______ ____
ROOT
ATOM      1  C   UNL     1      -0.500  -7.722  -5.244  0.00  0.00    +0.100 C 
ATOM      2  C   UNL     1       0.504  -8.679  -4.564  0.00  0.00    +0.121 C 
ATOM      3  N   UNL     1       0.199 -10.011  -5.137  0.00  0.00    -0.300 N 
ATOM      4  C   UNL     1      -0.087  -9.741  -6.566  0.00  0.00    +0.115 C 
ATOM      5  C   UNL     1      -0.885  -8.422  -6.558  0.00  0.00    -0.004 C 
ATOM      6  C   UNL     1      -0.489  -7.559  -7.752  0.00  0.00    -0.010 C 
ATOM      7  C   UNL     1      -0.934  -8.248  -9.045  0.00  0.00    -0.082 C 
ATOM      8  N   UNL     1      -2.389  -8.447  -9.020  0.00  0.00    +0.379 N 
ATOM      9  C   UNL     1      -2.751  -9.354  -7.924  0.00  0.00    -0.082 C 
ATOM     10  C   UNL     1      -2.383  -8.711  -6.584  0.00  0.00    -0.010 C 
ATOM     11  C   UNL     1       0.183 -11.200  -4.502  0.00  0.00    +0.219 C 
ATOM     12  O   UNL     1      -0.088 -12.211  -5.114  0.00  0.00    -0.275 OA
ATOM     13  H   UNL     1      -2.846  -7.558  -8.884  0.00  0.00    -0.086 HD
ATOM     14  H   UNL     1      -2.688  -8.846  -9.897  0.00  0.00    -0.086 HD
ENDROOT
BRANCH   1  16
ATOM     15  N   UNL     1      -0.594  -5.271  -5.565  0.00  0.00    -0.315 N 
ATOM     16  C   UNL     1       0.152  -6.393  -5.528  0.00  0.00    +0.218 C 
ATOM     17  O   UNL     1       1.347  -6.334  -5.725  0.00  0.00    -0.275 OA
ATOM     18  H   UNL     1      -1.550  -5.319  -5.408  0.00  0.00    +0.149 HD
BRANCH  15  19
ATOM     19  C   UNL     1       0.040  -3.979  -5.841  0.00  0.00    +0.107 C 
BRANCH  19  23
ATOM     20  N   UNL     1      -2.306  -0.671  -7.194  0.00  0.00    +0.382 N 
ATOM     21  C   UNL     1      -1.417  -0.423  -6.053  0.00  0.00    -0.078 C 
ATOM     22  C   UNL     1      -0.345  -1.513  -5.990  0.00  0.00    -0.014 C 
ATOM     23  C   UNL     1      -1.021  -2.877  -5.825  0.00  0.00    +0.003 C 
ATOM     24  C   UNL     1      -2.001  -3.093  -6.982  0.00  0.00    -0.014 C 
ATOM     25  C   UNL     1      -3.012  -1.944  -7.008  0.00  0.00    -0.078 C 
ATOM     26  H   UNL     1      -1.759  -0.711  -8.041  0.00  0.00    -0.081 HD
BRANCH  20  30
ATOM     27  C   UNL     1      -3.955   1.445  -9.442  0.00  0.00    -0.002 C 
ATOM     28  C   UNL     1      -3.466   2.550  -8.472  0.00  0.00    -0.002 C 
ATOM     29  C   UNL     1      -2.557   1.766  -7.492  0.00  0.00    -0.015 C 
ATOM     30  C   UNL     1      -3.284   0.420  -7.296  0.00  0.00    -0.069 C 
ATOM     31  C   UNL     1      -4.173   0.216  -8.536  0.00  0.00    -0.015 C 
ENDBRANCH  20  30
ENDBRANCH  19  23
ENDBRANCH  15  19
ENDBRANCH   1  16
BRANCH  11  32
ATOM     32  C   UNL     1       0.504 -11.273  -3.031  0.00  0.00    +0.075 C 
ATOM     33  C   UNL     1       2.011 -11.300  -2.729  0.00  0.00    +0.013 C 
ATOM     34  C   UNL     1       1.695 -12.338  -1.640  0.00  0.00    +0.001 C 
ATOM     35  C   UNL     1       0.443 -12.698  -2.457  0.00  0.00    +0.013 C 
ENDBRANCH  11  32
TORSDOF 5
