REMARK  Name = ZINC53877894
REMARK  10 active torsions:
REMARK  status: ('A' for Active; 'I' for Inactive)
REMARK    1  A    between atoms: C_1  and  C_2
REMARK    2  A    between atoms: C_2  and  C_3
REMARK    3  A    between atoms: C_3  and  C_4
REMARK    4  A    between atoms: C_8  and  N_25
REMARK    5  A    between atoms: C_10  and  C_13
REMARK    6  A    between atoms: C_13  and  N_14
REMARK    7  A    between atoms: C_16  and  C_24
REMARK    8  A    between atoms: C_20  and  C_22
REMARK    9  A    between atoms: C_22  and  C_23
REMARK   10  A    between atoms: N_25  and  C_26
REMARK                            x       y       z     vdW  Elec       q    Type
REMARK                         _______ _______ _______ _____ _____    ______ ____
ROOT
ATOM      1  C   UNL     1       0.745   0.512  -2.026  0.00  0.00    -0.011 C 
ATOM      2  C   UNL     1      -0.749   0.181  -1.999  0.00  0.00    +0.002 C 
ATOM      3  C   UNL     1      -1.254  -0.011  -3.430  0.00  0.00    -0.015 C 
ATOM      4  C   UNL     1      -0.489  -1.159  -4.091  0.00  0.00    -0.068 C 
ATOM      5  C   UNL     1       1.004  -0.829  -4.118  0.00  0.00    -0.011 C 
ATOM      6  C   UNL     1       1.510  -0.636  -2.686  0.00  0.00    +0.006 C 
ENDROOT
BRANCH   4   7
ATOM      7  N   UNL     1      -0.975  -1.344  -5.465  0.00  0.00    +0.379 N 
ATOM      8  C   UNL     1      -2.377  -1.779  -5.435  0.00  0.00    -0.100 C 
ATOM      9  H   UNL     1      -0.903  -0.472  -5.967  0.00  0.00    -0.086 HD
ATOM     10  H   UNL     1      -0.415  -2.045  -5.928  0.00  0.00    -0.086 HD
ENDBRANCH   4   7
BRANCH   1  11
ATOM     11  C   UNL     1       0.968   1.799  -2.823  0.00  0.00    +0.003 C 
BRANCH  11  13
ATOM     12  C   UNL     1       0.529   4.258  -2.892  0.00  0.00    +0.004 C 
ATOM     13  C   UNL     1       0.306   2.971  -2.095  0.00  0.00    -0.003 C 
ENDBRANCH  11  13
ENDBRANCH   1  11
BRANCH   5  14
ATOM     14  C   UNL     1       1.769  -1.977  -4.778  0.00  0.00    +0.086 C 
BRANCH  14  15
ATOM     15  N   UNL     1       3.174  -1.588  -4.963  0.00  0.00    -0.295 NA
ATOM     16  C   UNL     1       4.012  -2.107  -3.872  0.00  0.00    +0.116 C 
ATOM     17  C   UNL     1       5.453  -1.629  -4.071  0.00  0.00    +0.129 C 
ATOM     18  O   UNL     1       5.916  -2.050  -5.357  0.00  0.00    -0.374 OA
ATOM     19  C   UNL     1       5.123  -1.562  -6.443  0.00  0.00    +0.179 C 
ATOM     20  C   UNL     1       3.679  -2.039  -6.268  0.00  0.00    +0.082 C 
ATOM     21  C   UNL     1       5.501  -0.103  -3.984  0.00  0.00    +0.039 C 
BRANCH  20  22
ATOM     22  C   UNL     1       2.809  -1.454  -7.382  0.00  0.00    +0.018 C 
ATOM     23  C   UNL     1       3.386  -1.852  -8.742  0.00  0.00    +0.005 C 
ENDBRANCH  20  22
ENDBRANCH  14  15
ENDBRANCH   5  14
TORSDOF 6
