REMARK  Name = ZINC12876178
REMARK  13 active torsions:
REMARK  status: ('A' for Active; 'I' for Inactive)
REMARK    1  A    between atoms: CD1_1  and  CG1_2
REMARK    2  A    between atoms: CG1_2  and  CB_3
REMARK    3  A    between atoms: CB_3  and  CG2_5
REMARK    4  A    between atoms: CB_3  and  CA_6
REMARK    5  A    between atoms: CA_6  and  C_8
REMARK    6  A    between atoms: CA_6  and  N_10
REMARK    7  A    between atoms: C_11  and  C_13
REMARK    8  A    between atoms: C_13  and  O_14
REMARK    9  A    between atoms: O_14  and  N_15
REMARK   10  A    between atoms: C_19  and  C_40
REMARK   11  A    between atoms: C_24  and  C_39
REMARK   12  A    between atoms: C_35  and  C_36
REMARK   13  A    between atoms: C_35  and  O_38
REMARK                            x       y       z     vdW  Elec       q    Type
REMARK                         _______ _______ _______ _____ _____    ______ ____
ROOT
ATOM      1  N   UNK A   0      -0.463  -1.595  -4.424  0.00  0.00    -0.089 NA
ATOM      2  C   UNK A   0       0.057  -0.587  -3.798  0.00  0.00    +0.080 C 
ATOM      3  C   UNK A   0       1.349   0.059  -4.258  0.00  0.00    +0.059 C 
ATOM      4  C   UNK A   0       2.248   0.165  -3.032  0.00  0.00    +0.017 C 
ATOM      5  C   UNK A   0       1.608   0.986  -1.927  0.00  0.00    -0.007 C 
ATOM      6  C   UNK A   0       2.345   0.722  -0.609  0.00  0.00    +0.002 C 
ATOM      7  C   UNK A   0       3.819   1.077  -0.779  0.00  0.00    +0.005 C 
ATOM      8  C   UNK A   0       4.591   0.952   0.544  0.00  0.00    +0.011 C 
ATOM      9  C   UNK A   0       3.909   1.863   1.547  0.00  0.00    +0.011 C 
ATOM     10  C   UNK A   0       2.483   1.296   1.783  0.00  0.00    +0.002 C 
ATOM     11  C   UNK A   0       1.687   1.538   0.514  0.00  0.00    -0.003 C 
ATOM     12  C   UNK A   0       0.247   1.052   0.706  0.00  0.00    +0.008 C 
ATOM     13  C   UNK A   0      -0.561   1.358  -0.556  0.00  0.00    +0.031 C 
ATOM     14  C   UNK A   0       0.144   0.719  -1.753  0.00  0.00    -0.062 C 
ATOM     15  C   UNK A   0      -0.577  -0.007  -2.600  0.00  0.00    +0.026 C 
ATOM     16  C   UNK A   0       2.033   2.092   3.014  0.00  0.00    +0.008 C 
ATOM     17  C   UNK A   0       3.306   2.107   3.903  0.00  0.00    +0.049 C 
ATOM     18  C   UNK A   0       4.508   1.901   2.949  0.00  0.00    +0.132 C 
ATOM     19  C   UNK A   0       3.815   3.281   0.980  0.00  0.00    +0.015 C 
ATOM     20  C   UNK A   0       1.781   2.466  -2.276  0.00  0.00    +0.016 C 
ENDROOT
BRANCH  18  21
ATOM     21  C   UNK A   0       5.453   3.023   3.069  0.00  0.00    -0.070 C 
ATOM     22  C   UNK A   0       6.207   3.918   3.165  0.00  0.00    +0.007 C 
ENDBRANCH  18  21
BRANCH  18  23
ATOM     23  O   UNK A   0       5.165   0.665   3.240  0.00  0.00    -0.376 OA
ATOM     24  H   UNK A   0       5.566   0.631   4.119  0.00  0.00    +0.211 HD
ENDBRANCH  18  23
BRANCH   1  25
ATOM     25  O   UNK A   0       0.178  -2.122  -5.571  0.00  0.00    -0.384 OA
BRANCH  25  26
ATOM     26  C   UNK A   0      -0.504  -3.231  -6.160  0.00  0.00    +0.358 C 
BRANCH  26  28
ATOM     27  N   ILE A   1      -0.197  -4.753  -8.086  0.00  0.00    -0.299 N 
ATOM     28  C   UNK A   0       0.262  -3.709  -7.367  0.00  0.00    +0.254 C 
ATOM     29  O   UNK A   0       1.291  -3.155  -7.691  0.00  0.00    -0.272 OA
ATOM     30  H   ILE A   1      -1.020  -5.196  -7.827  0.00  0.00    +0.150 HD
BRANCH  27  31
ATOM     31  CA  ILE A   1       0.548  -5.217  -9.259  0.00  0.00    +0.189 C 
BRANCH  31  32
ATOM     32  C   ILE A   1       1.625  -6.177  -8.822  0.00  0.00    +0.376 C 
ATOM     33  O   ILE A   1       1.536  -6.740  -7.757  0.00  0.00    -0.244 OA
ATOM     34  OXT ILE A   1       2.682  -6.407  -9.617  0.00  0.00    -0.244 OA
ENDBRANCH  31  32
BRANCH  31  35
ATOM     35  CB  ILE A   1      -0.407  -5.926 -10.222  0.00  0.00    +0.017 C 
ATOM     36  CG2 ILE A   1      -1.065  -7.109  -9.509  0.00  0.00    +0.010 C 
BRANCH  35  38
ATOM     37  CD1 ILE A   1      -2.354  -5.608 -11.755  0.00  0.00    +0.004 C 
ATOM     38  CG1 ILE A   1      -1.486  -4.944 -10.684  0.00  0.00    +0.002 C 
ENDBRANCH  35  38
ENDBRANCH  31  35
ENDBRANCH  27  31
ENDBRANCH  26  28
ENDBRANCH  25  26
ENDBRANCH   1  25
TORSDOF 9
