REMARK  Name = ZINC49713455
REMARK  7 active torsions:
REMARK  status: ('A' for Active; 'I' for Inactive)
REMARK    1  A    between atoms: C_1  and  C_2
REMARK    2  A    between atoms: C_2  and  N_3
REMARK    3  A    between atoms: N_3  and  C_4
REMARK    4  A    between atoms: N_8  and  C_13
REMARK    5  A    between atoms: C_9  and  C_12
REMARK    6  A    between atoms: C_13  and  C_15
REMARK    7  A    between atoms: C_13  and  C_16
REMARK                            x       y       z     vdW  Elec       q    Type
REMARK                         _______ _______ _______ _____ _____    ______ ____
ROOT
ATOM      1  C   UNL     1       0.183  -2.131  -2.098  0.00  0.00    -0.075 C 
ATOM      2  C   UNL     1       1.170  -2.134  -0.927  0.00  0.00    -0.034 C 
ATOM      3  C   UNL     1       1.449  -3.578  -0.505  0.00  0.00    -0.079 C 
ATOM      4  N   UNL     1       2.025  -4.319  -1.634  0.00  0.00    +0.386 N 
ATOM      5  C   UNL     1       1.056  -4.382  -2.734  0.00  0.00    -0.072 C 
ATOM      6  C   UNL     1       0.760  -2.969  -3.243  0.00  0.00    -0.031 C 
ATOM      7  C   UNL     1       1.635  -5.222  -3.875  0.00  0.00    -0.013 C 
ATOM      8  H   UNL     1       2.862  -3.851  -1.950  0.00  0.00    -0.081 HD
ENDROOT
BRANCH   1   9
ATOM      9  N   UNL     1      -0.030  -0.753  -2.558  0.00  0.00    +0.381 N 
ATOM     10  H   UNL     1      -0.613  -0.759  -3.381  0.00  0.00    -0.086 HD
ATOM     11  H   UNL     1       0.859  -0.330  -2.778  0.00  0.00    -0.086 HD
BRANCH   9  13
ATOM     12  C   UNL     1      -0.912   1.456  -1.976  0.00  0.00    -0.017 C 
ATOM     13  C   UNL     1      -0.690   0.020  -1.497  0.00  0.00    -0.086 C 
ENDBRANCH   9  13
ENDBRANCH   1   9
BRANCH   4  14
ATOM     14  C   UNL     1       2.363  -5.681  -1.202  0.00  0.00    -0.034 C 
ATOM     15  C   UNL     1       3.300  -5.616   0.006  0.00  0.00    -0.008 C 
BRANCH  14  16
ATOM     16  C   UNL     1       1.103  -6.415  -0.821  0.00  0.00    -0.023 A 
ATOM     17  C   UNL     1       0.622  -7.588  -1.298  0.00  0.00    +0.011 A 
ATOM     18  C   UNL     1      -0.570  -8.078  -0.796  0.00  0.00    +0.028 A 
ATOM     19  C   UNL     1      -1.222  -7.369   0.159  0.00  0.00    +0.078 A 
ATOM     20  S   UNL     1      -0.139  -5.967   0.380  0.00  0.00    -0.083 S 
ATOM     21 CL   UNL     1      -2.717  -7.733   0.962  0.00  0.00    -0.076 Cl
ENDBRANCH  14  16
ENDBRANCH   4  14
TORSDOF 4
