REMARK  Name = ZINC35217265
REMARK  6 active torsions:
REMARK  status: ('A' for Active; 'I' for Inactive)
REMARK    1  A    between atoms: C_1  and  C_2
REMARK    2  A    between atoms: C_2  and  C_3
REMARK    3  A    between atoms: C_2  and  C_4
REMARK    4  A    between atoms: C_9  and  C_12
REMARK    5  A    between atoms: C_18  and  C_21
REMARK    6  A    between atoms: C_21  and  O_22
REMARK                            x       y       z     vdW  Elec       q    Type
REMARK                         _______ _______ _______ _____ _____    ______ ____
ROOT
ATOM      1  C   UNL     1      -1.287  -0.548   0.029  0.00  0.00    +0.218 C 
ATOM      2  O   UNL     1      -2.185   0.259  -0.088  0.00  0.00    -0.275 OA
ATOM      3  N   UNL     1      -1.570  -1.863   0.117  0.00  0.00    -0.301 N 
ATOM      4  C   UNL     1      -0.505  -2.842   0.374  0.00  0.00    +0.108 C 
ATOM      5  C   UNL     1      -0.556  -3.922  -0.711  0.00  0.00    +0.032 C 
ATOM      6  C   UNL     1      -1.962  -4.522  -0.763  0.00  0.00    +0.078 C 
ATOM      7  C   UNL     1      -2.972  -3.430  -1.121  0.00  0.00    +0.032 C 
ATOM      8  C   UNL     1      -2.950  -2.344  -0.034  0.00  0.00    +0.108 C 
ENDROOT
BRANCH   6   9
ATOM      9  C   UNL     1      -2.006  -5.608  -1.807  0.00  0.00    +0.219 C 
ATOM     10  O   UNL     1      -2.442  -5.369  -2.913  0.00  0.00    -0.275 OA
ATOM     11  N   UNL     1      -1.563  -6.846  -1.511  0.00  0.00    -0.301 N 
ATOM     12  C   UNL     1      -1.141  -7.183  -0.144  0.00  0.00    +0.108 C 
ATOM     13  C   UNL     1       0.274  -7.768  -0.195  0.00  0.00    +0.019 C 
ATOM     14  C   UNL     1       0.299  -8.948  -1.170  0.00  0.00    +0.009 C 
ATOM     15  C   UNL     1      -0.073  -8.461  -2.572  0.00  0.00    +0.032 C 
ATOM     16  C   UNL     1      -1.497  -7.886  -2.547  0.00  0.00    +0.113 C 
BRANCH  15  17
ATOM     17  C   UNL     1      -0.015  -9.635  -3.552  0.00  0.00    +0.160 C 
BRANCH  17  18
ATOM     18  O   UNL     1       1.332 -10.100  -3.659  0.00  0.00    -0.395 OA
ATOM     19  H   UNL     1       1.444 -10.845  -4.265  0.00  0.00    +0.209 HD
ENDBRANCH  17  18
ENDBRANCH  15  17
ENDBRANCH   6   9
BRANCH   1  21
ATOM     20  C   UNL     1       0.763  -0.195  -1.321  0.00  0.00    +0.017 C 
ATOM     21  C   UNL     1       0.144  -0.081   0.074  0.00  0.00    +0.069 C 
ATOM     22  C   UNL     1       0.191   1.378   0.534  0.00  0.00    +0.017 C 
ENDBRANCH   1  21
TORSDOF 4
