REMARK  Name = ZINC40376495
REMARK  7 active torsions:
REMARK  status: ('A' for Active; 'I' for Inactive)
REMARK    1  A    between atoms: C_1  and  C_2
REMARK    2  A    between atoms: C_5  and  S_7
REMARK    3  A    between atoms: S_7  and  N_10
REMARK    4  A    between atoms: N_10  and  C_11
REMARK    5  A    between atoms: C_11  and  C_13
REMARK    6  A    between atoms: C_11  and  C_19
REMARK    7  A    between atoms: N_20  and  O_21
REMARK                            x       y       z     vdW  Elec       q    Type
REMARK                         _______ _______ _______ _____ _____    ______ ____
ROOT
ATOM      1  C   UNL     1       2.266  -4.058  -2.473  0.00  0.00    +0.146 C 
ENDROOT
BRANCH   1   2
ATOM      2  C   UNL     1       1.707  -3.962  -3.894  0.00  0.00    +0.015 C 
ATOM      3  C   UNL     1       0.393  -3.180  -3.873  0.00  0.00    +0.005 C 
ATOM      4  C   UNL     1      -0.166  -3.083  -5.294  0.00  0.00    +0.000 C 
ATOM      5  C   UNL     1       0.843  -2.363  -6.191  0.00  0.00    +0.000 C 
ATOM      6  C   UNL     1       2.157  -3.145  -6.212  0.00  0.00    +0.000 C 
ATOM      7  C   UNL     1       2.716  -3.241  -4.791  0.00  0.00    +0.005 C 
ENDBRANCH   1   2
BRANCH   1   8
ATOM      8  C   UNL     1       3.561  -4.829  -2.493  0.00  0.00    +0.151 C 
ATOM      9  N   UNL     1       4.632  -4.305  -1.996  0.00  0.00    -0.075 NA
ATOM     10  N   UNL     1       3.602  -6.091  -3.042  0.00  0.00    -0.343 N 
ATOM     11  H   UNL     1       2.798  -6.484  -3.416  0.00  0.00    +0.144 HD
ATOM     12  H   UNL     1       4.436  -6.587  -3.055  0.00  0.00    +0.144 HD
BRANCH   9  13
ATOM     13  O   UNL     1       5.849  -5.030  -2.015  0.00  0.00    -0.408 OA
ATOM     14  H   UNL     1       6.594  -4.557  -1.621  0.00  0.00    +0.328 HD
ENDBRANCH   9  13
ENDBRANCH   1   8
BRANCH   1  15
ATOM     15  N   UNL     1       1.300  -4.748  -1.614  0.00  0.00    -0.179 NA
ATOM     16  H   UNL     1       0.759  -5.468  -1.974  0.00  0.00    +0.149 HD
BRANCH  15  17
ATOM     17  S   UNL     1       1.134  -4.300  -0.029  0.00  0.00    +0.065 S 
ATOM     18  O   UNL     1       2.445  -4.240   0.516  0.00  0.00    -0.153 OA
ATOM     19  O   UNL     1       0.117  -5.126   0.522  0.00  0.00    -0.153 OA
BRANCH  17  24
ATOM     20  C   UNL     1      -0.018   1.503   0.010  0.00  0.00    +0.051 C 
ATOM     21  C   UNL     1       0.002  -0.004   0.002  0.00  0.00    -0.011 A 
ATOM     22  C   UNL     1      -1.039  -0.872   0.002  0.00  0.00    +0.013 A 
ATOM     23  C   UNL     1      -0.780  -2.230  -0.007  0.00  0.00    +0.036 A 
ATOM     24  C   UNL     1       0.507  -2.653  -0.016  0.00  0.00    +0.143 A 
ATOM     25  S   UNL     1       1.404  -1.109  -0.018  0.00  0.00    -0.074 S 
ENDBRANCH  17  24
ENDBRANCH  15  17
ENDBRANCH   1  15
TORSDOF 6
