REMARK  Name = ZINC61361589
REMARK  6 active torsions:
REMARK  status: ('A' for Active; 'I' for Inactive)
REMARK    1  A    between atoms: C_1  and  C_2
REMARK    2  A    between atoms: C_2  and  C_4
REMARK    3  A    between atoms: C_2  and  N_9
REMARK    4  A    between atoms: N_9  and  C_10
REMARK    5  A    between atoms: C_10  and  C_12
REMARK    6  A    between atoms: C_10  and  C_17
REMARK                            x       y       z     vdW  Elec       q    Type
REMARK                         _______ _______ _______ _____ _____    ______ ____
ROOT
ATOM      1  C   UNL     1      -2.050  -0.126  -1.234  0.00  0.00    +0.034 C 
ENDROOT
BRANCH   1   2
ATOM      2  C   UNL     1      -3.498  -0.540  -1.172  0.00  0.00    -0.016 A 
ATOM      3  C   UNL     1      -4.595   0.125  -1.608  0.00  0.00    +0.011 A 
ATOM      4  C   UNL     1      -5.840  -0.454  -1.444  0.00  0.00    +0.028 A 
ATOM      5  C   UNL     1      -5.925  -1.672  -0.852  0.00  0.00    +0.078 A 
ATOM      6  S   UNL     1      -4.211  -2.038  -0.512  0.00  0.00    -0.083 S 
ATOM      7 CL   UNL     1      -7.334  -2.629  -0.518  0.00  0.00    -0.076 Cl
ENDBRANCH   1   2
BRANCH   1   8
ATOM      8  C   UNL     1      -1.382  -0.810  -2.399  0.00  0.00    +0.096 A 
ATOM      9  C   UNL     1      -1.128  -0.254  -3.598  0.00  0.00    +0.043 A 
ATOM     10  C   UNL     1      -0.495  -1.244  -4.383  0.00  0.00    +0.041 A 
ATOM     11  C   UNL     1      -0.400  -2.346  -3.618  0.00  0.00    +0.195 A 
ATOM     12  O   UNL     1      -0.933  -2.075  -2.415  0.00  0.00    -0.469 OA
ENDBRANCH   1   8
BRANCH   1  13
ATOM     13  N   UNL     1      -1.376  -0.512   0.012  0.00  0.00    +0.393 N 
ATOM     14  H   UNL     1      -1.363  -1.518   0.090  0.00  0.00    -0.084 HD
ATOM     15  H   UNL     1      -1.873  -0.121   0.799  0.00  0.00    -0.084 HD
BRANCH  13  17
ATOM     16  C   UNL     1      -0.019   1.526   0.010  0.00  0.00    -0.009 C 
ATOM     17  C   UNL     1       0.002  -0.004   0.002  0.00  0.00    -0.042 C 
BRANCH  17  18
ATOM     18  C   UNL     1       0.731  -0.503   1.223  0.00  0.00    -0.055 A 
ATOM     19  C   UNL     1       2.050  -0.909   1.136  0.00  0.00    +0.009 A 
ATOM     20  C   UNL     1       2.676  -1.353   2.253  0.00  0.00    +0.045 A 
ATOM     21  S   UNL     1       1.389  -1.205   3.481  0.00  0.00    -0.105 S 
ATOM     22  C   UNL     1       0.105  -0.556   2.424  0.00  0.00    +0.047 A 
ENDBRANCH  17  18
ENDBRANCH  13  17
ENDBRANCH   1  13
TORSDOF 5
