REMARK  Name = ZINC58034427
REMARK  7 active torsions:
REMARK  status: ('A' for Active; 'I' for Inactive)
REMARK    1  A    between atoms: C_1  and  C_2
REMARK    2  A    between atoms: C_5  and  C_11
REMARK    3  A    between atoms: C_7  and  N_8
REMARK    4  A    between atoms: N_16  and  C_18
REMARK    5  A    between atoms: C_18  and  C_20
REMARK    6  A    between atoms: C_18  and  C_21
REMARK    7  A    between atoms: C_21  and  N_22
REMARK                            x       y       z     vdW  Elec       q    Type
REMARK                         _______ _______ _______ _____ _____    ______ ____
ROOT
ATOM      1  C   UNL     1       0.573  -4.201  -0.099  0.00  0.00    +0.092 A 
ATOM      2  C   UNL     1       0.944  -4.885   1.082  0.00  0.00    +0.035 A 
ATOM      3  C   UNL     1       1.199  -6.223   1.000  0.00  0.00    +0.074 A 
ATOM      4  C   UNL     1       1.076  -6.843  -0.263  0.00  0.00    +0.267 A 
ATOM      5  O   UNL     1       1.293  -8.037  -0.386  0.00  0.00    -0.266 OA
ATOM      6  N   UNL     1       0.716  -6.106  -1.331  0.00  0.00    -0.228 N 
ATOM      7  N   UNL     1       0.474  -4.849  -1.235  0.00  0.00    -0.168 NA
ENDROOT
BRANCH   1  12
ATOM      8  C   UNL     1      -0.538   1.447   0.089  0.00  0.00    +0.046 C 
ATOM      9  C   UNL     1      -0.247  -0.031   0.040  0.00  0.00    -0.020 A 
ATOM     10  C   UNL     1      -0.349  -0.714  -1.159  0.00  0.00    +0.006 A 
ATOM     11  C   UNL     1      -0.085  -2.067  -1.210  0.00  0.00    +0.010 A 
ATOM     12  C   UNL     1       0.287  -2.746  -0.051  0.00  0.00    +0.004 A 
ATOM     13  C   UNL     1       0.390  -2.053   1.154  0.00  0.00    +0.043 A 
ATOM     14  C   UNL     1       0.127  -0.698   1.192  0.00  0.00    +0.130 A 
BRANCH  14  15
ATOM     15  N   UNL     1       0.241   0.041   2.469  0.00  0.00    +0.057 N 
ATOM     16  O   UNL     1       0.675   1.169   2.479  0.00  0.00    -0.126 OA
ATOM     17  O   UNL     1      -0.101  -0.484   3.504  0.00  0.00    -0.126 OA
ENDBRANCH  14  15
ENDBRANCH   1  12
BRANCH   6  18
ATOM     18  C   UNL     1       0.591  -6.758  -2.637  0.00  0.00    +0.091 C 
ATOM     19  C   UNL     1       1.564  -6.111  -3.626  0.00  0.00    +0.031 C 
BRANCH  18  20
ATOM     20  C   UNL     1      -0.841  -6.599  -3.152  0.00  0.00    -0.060 C 
BRANCH  20  21
ATOM     21  N   UNL     1      -1.782  -7.113  -2.149  0.00  0.00    +0.379 N 
ATOM     22  H   UNL     1      -1.592  -8.089  -1.979  0.00  0.00    -0.090 HD
ATOM     23  H   UNL     1      -1.674  -6.595  -1.290  0.00  0.00    -0.090 HD
ATOM     24  H   UNL     1      -2.726  -7.008  -2.488  0.00  0.00    -0.090 HD
ENDBRANCH  20  21
ENDBRANCH  18  20
ENDBRANCH   6  18
TORSDOF 5
