REMARK  Name = ZINC25174807
REMARK  5 active torsions:
REMARK  status: ('A' for Active; 'I' for Inactive)
REMARK    1  A    between atoms: C_1  and  C_2
REMARK    2  A    between atoms: C_3  and  N_9
REMARK    3  A    between atoms: N_9  and  N_10
REMARK    4  A    between atoms: C_12  and  N_13
REMARK    5  A    between atoms: N_15  and  C_18
REMARK                            x       y       z     vdW  Elec       q    Type
REMARK                         _______ _______ _______ _____ _____    ______ ____
ROOT
ATOM      1  N   UNL     1      -0.007  -0.633  -3.530  0.00  0.00    -0.176 NA
ATOM      2  C   UNL     1      -0.022   0.028  -4.667  0.00  0.00    +0.163 C 
ATOM      3  C   UNL     1      -0.037   1.491  -4.856  0.00  0.00    +0.184 C 
ATOM      4  N   UNL     1      -0.050   1.731  -6.134  0.00  0.00    -0.160 NA
ATOM      5  N   UNL     1      -0.044   0.552  -6.880  0.00  0.00    -0.208 N 
ATOM      6  C   UNL     1      -0.021  -0.532  -6.036  0.00  0.00    +0.143 C 
ATOM      7  N   UNL     1      -0.004  -1.799  -6.374  0.00  0.00    -0.384 N 
ATOM      8  C   UNL     1      -0.056   0.481  -8.343  0.00  0.00    +0.160 C 
ATOM      9  H   UNL     1       0.009  -2.484  -5.687  0.00  0.00    +0.157 HD
ATOM     10  H   UNL     1      -0.005  -2.051  -7.311  0.00  0.00    +0.157 HD
ENDROOT
BRANCH   1  11
ATOM     11  N   UNL     1      -0.010   0.008  -2.411  0.00  0.00    -0.237 N 
ATOM     12  H   UNL     1      -0.024   0.978  -2.408  0.00  0.00    +0.174 HD
BRANCH  11  15
ATOM     13  C   UNL     1      -0.018   1.503   0.010  0.00  0.00    +0.047 C 
ATOM     14  C   UNL     1       0.002  -0.004   0.002  0.00  0.00    -0.010 A 
ATOM     15  C   UNL     1       0.006  -0.693  -1.205  0.00  0.00    +0.053 A 
ATOM     16  C   UNL     1       0.025  -2.083  -1.208  0.00  0.00    +0.025 A 
ATOM     17  C   UNL     1       0.041  -2.775  -0.013  0.00  0.00    +0.003 A 
ATOM     18  C   UNL     1       0.037  -2.087   1.187  0.00  0.00    +0.020 A 
ATOM     19  C   UNL     1       0.023  -0.702   1.194  0.00  0.00    +0.046 A 
ATOM     20 CL   UNL     1       0.025   0.157   2.703  0.00  0.00    -0.083 Cl
ENDBRANCH  11  15
ENDBRANCH   1  11
BRANCH   3  21
ATOM     21  N   UNL     1      -0.038   2.449  -3.842  0.00  0.00    -0.246 NA
ATOM     22  H   UNL     1      -0.049   3.393  -4.067  0.00  0.00    +0.172 HD
ENDBRANCH   3  21
TORSDOF 3
