REMARK  Name = ZINC67623101
REMARK  12 active torsions:
REMARK  status: ('A' for Active; 'I' for Inactive)
REMARK    1  A    between atoms: C_1  and  C_2
REMARK    2  A    between atoms: N_5  and  C_8
REMARK    3  A    between atoms: C_8  and  C_9
REMARK    4  A    between atoms: C_9  and  C_11
REMARK    5  A    between atoms: C_9  and  O_29
REMARK    6  A    between atoms: C_11  and  N_12
REMARK    7  A    between atoms: N_15  and  C_16
REMARK    8  A    between atoms: C_22  and  O_24
REMARK    9  A    between atoms: O_24  and  C_25
REMARK   10  A    between atoms: C_25  and  C_26
REMARK   11  A    between atoms: C_25  and  C_27
REMARK   12  A    between atoms: C_25  and  C_28
REMARK                            x       y       z     vdW  Elec       q    Type
REMARK                         _______ _______ _______ _____ _____    ______ ____
ROOT
ATOM      1  N   UNL     1       0.630  -6.349   4.007  0.00  0.00    -0.297 N 
ATOM      2  C   UNL     1       0.786  -7.662   4.270  0.00  0.00    +0.300 C 
ATOM      3  O   UNL     1       0.440  -8.491   3.452  0.00  0.00    -0.253 OA
ATOM      4  N   UNL     1       1.328  -8.054   5.441  0.00  0.00    -0.296 N 
ATOM      5  H   UNL     1       0.906  -5.687   4.660  0.00  0.00    +0.150 HD
ATOM      6  H   UNL     1       1.605  -7.392   6.093  0.00  0.00    +0.151 HD
ENDROOT
BRANCH   4   7
ATOM      7  C   UNL     1       1.499  -9.481   5.727  0.00  0.00    +0.077 C 
ATOM      8  C   UNL     1       0.199 -10.043   6.306  0.00  0.00    +0.041 C 
ATOM      9  C   UNL     1       0.370 -11.542   6.572  0.00  0.00    +0.113 C 
ATOM     10  N   UNL     1       1.547 -11.740   7.428  0.00  0.00    -0.267 N 
ATOM     11  C   UNL     1       2.831 -11.161   7.009  0.00  0.00    +0.113 C 
ATOM     12  C   UNL     1       2.632  -9.666   6.738  0.00  0.00    +0.041 C 
ATOM     13  C   UNL     1       1.452 -12.438   8.577  0.00  0.00    +0.403 C 
ATOM     14  O   UNL     1       0.384 -12.912   8.913  0.00  0.00    -0.226 OA
BRANCH  13  15
ATOM     15  O   UNL     1       2.539 -12.611   9.352  0.00  0.00    -0.445 OA
BRANCH  15  16
ATOM     16  C   UNL     1       2.365 -13.362  10.555  0.00  0.00    +0.107 C 
ATOM     17  C   UNL     1       1.877 -14.771  10.211  0.00  0.00    +0.055 C 
ATOM     18  C   UNL     1       3.699 -13.452  11.298  0.00  0.00    +0.055 C 
ATOM     19  C   UNL     1       1.332 -12.668  11.445  0.00  0.00    +0.055 C 
ENDBRANCH  15  16
ENDBRANCH  13  15
ENDBRANCH   4   7
BRANCH   1  20
ATOM     20  C   UNL     1       0.041  -5.922   2.735  0.00  0.00    +0.135 C 
BRANCH  20  21
ATOM     21  C   UNL     1      -0.023  -4.394   2.690  0.00  0.00    +0.115 C 
BRANCH  21  22
ATOM     22  O   UNL     1       1.303  -3.862   2.691  0.00  0.00    -0.392 OA
ATOM     23  H   UNL     1       1.841  -4.147   1.940  0.00  0.00    +0.210 HD
ENDBRANCH  21  22
BRANCH  21  24
ATOM     24  C   UNL     1      -0.750  -3.952   1.419  0.00  0.00    -0.046 C 
BRANCH  24  29
ATOM     25  C   UNL     1      -2.158   1.567   1.124  0.00  0.00    +0.007 C 
ATOM     26  C   UNL     1      -2.222   0.038   1.151  0.00  0.00    -0.018 C 
ATOM     27  C   UNL     1      -1.674  -0.474   2.486  0.00  0.00    -0.016 C 
ATOM     28  C   UNL     1      -1.667  -2.005   2.474  0.00  0.00    -0.078 C 
ATOM     29  N   UNL     1      -0.817  -2.485   1.378  0.00  0.00    +0.381 N 
ATOM     30  C   UNL     1      -1.376  -2.057   0.090  0.00  0.00    -0.078 C 
ATOM     31  C   UNL     1      -1.372  -0.529   0.010  0.00  0.00    -0.016 C 
ATOM     32  H   UNL     1       0.112  -2.105   1.483  0.00  0.00    -0.082 HD
ENDBRANCH  24  29
ENDBRANCH  21  24
ENDBRANCH  20  21
ENDBRANCH   1  20
TORSDOF 8
