REMARK  Name = ZINC35501119
REMARK  5 active torsions:
REMARK  status: ('A' for Active; 'I' for Inactive)
REMARK    1  A    between atoms: C_1  and  C_2
REMARK    2  A    between atoms: C_3  and  C_7
REMARK    3  A    between atoms: C_7  and  C_9
REMARK    4  A    between atoms: C_7  and  N_21
REMARK    5  A    between atoms: N_21  and  C_22
REMARK                            x       y       z     vdW  Elec       q    Type
REMARK                         _______ _______ _______ _____ _____    ______ ____
ROOT
ATOM      1  C   UNL     1      -2.752   0.389   1.400  0.00  0.00    -0.035 A 
ATOM      2  C   UNL     1      -3.305  -0.433   2.365  0.00  0.00    +0.053 A 
ATOM      3  C   UNL     1      -3.582   0.075   3.623  0.00  0.00    +0.162 A 
ATOM      4  C   UNL     1      -3.306   1.404   3.912  0.00  0.00    +0.163 A 
ATOM      5  C   UNL     1      -2.752   2.224   2.945  0.00  0.00    +0.069 A 
ATOM      6  C   UNL     1      -2.471   1.712   1.690  0.00  0.00    +0.047 A 
ATOM      7 CL   UNL     1      -1.770   2.734   0.474  0.00  0.00    -0.083 Cl
ATOM      8  O   UNL     1      -3.582   1.895   5.156  0.00  0.00    -0.488 OA
ATOM      9  C   UNL     1      -4.967   1.999   5.492  0.00  0.00    +0.232 C 
ATOM     10  C   UNL     1      -5.496   0.675   6.020  0.00  0.00    +0.082 C 
ATOM     11  C   UNL     1      -5.470  -0.420   4.965  0.00  0.00    +0.232 C 
ATOM     12  O   UNL     1      -4.127  -0.726   4.585  0.00  0.00    -0.488 OA
ENDROOT
BRANCH   1  13
ATOM     13  C   UNL     1      -2.448  -0.161   0.030  0.00  0.00    -0.006 C 
BRANCH  13  16
ATOM     14  C   UNL     1      -0.780  -0.783  -2.538  0.00  0.00    +0.086 C 
ATOM     15  C   UNL     1      -0.298  -0.911  -1.116  0.00  0.00    +0.104 A 
ATOM     16  C   UNL     1      -1.021  -0.642  -0.013  0.00  0.00    -0.017 A 
ATOM     17  C   UNL     1      -0.183  -0.897   1.097  0.00  0.00    +0.043 A 
ATOM     18  C   UNL     1       1.000  -1.306   0.607  0.00  0.00    +0.195 A 
ATOM     19  O   UNL     1       0.923  -1.319  -0.734  0.00  0.00    -0.468 OA
ENDBRANCH  13  16
BRANCH  13  20
ATOM     20  N   UNL     1      -3.352  -1.282  -0.259  0.00  0.00    +0.385 N 
ATOM     21  C   UNL     1      -4.734  -0.790  -0.336  0.00  0.00    -0.099 C 
ATOM     22  H   UNL     1      -3.095  -1.703  -1.140  0.00  0.00    -0.085 HD
ATOM     23  H   UNL     1      -3.280  -1.970   0.475  0.00  0.00    -0.085 HD
ENDBRANCH  13  20
ENDBRANCH   1  13
TORSDOF 3
