REMARK  Name = ZINC00985827
REMARK  11 active torsions:
REMARK  status: ('A' for Active; 'I' for Inactive)
REMARK    1  A    between atoms: C_1  and  C_2
REMARK    2  A    between atoms: C_2  and  C_3
REMARK    3  A    between atoms: C_2  and  C_4
REMARK    4  A    between atoms: C_4  and  C_5
REMARK    5  A    between atoms: C_8  and  C_11
REMARK    6  A    between atoms: C_18  and  N_33
REMARK    7  A    between atoms: C_19  and  C_31
REMARK    8  A    between atoms: C_20  and  C_22
REMARK    9  A    between atoms: C_25  and  N_28
REMARK   10  A    between atoms: N_28  and  C_29
REMARK   11  A    between atoms: N_28  and  C_30
REMARK                            x       y       z     vdW  Elec       q    Type
REMARK                         _______ _______ _______ _____ _____    ______ ____
ROOT
ATOM      1  C   UNL     1      -1.366  -6.271  -0.492  0.00  0.00    +0.100 A 
ATOM      2  C   UNL     1      -0.680  -7.162   0.339  0.00  0.00    +0.054 A 
ATOM      3  C   UNL     1      -0.919  -8.428  -0.111  0.00  0.00    +0.223 A 
ATOM      4  N   UNL     1      -1.726  -8.335  -1.188  0.00  0.00    -0.246 N 
ATOM      5  H   UNL     1      -2.061  -9.078  -1.715  0.00  0.00    +0.192 HD
ATOM      6  N   UNL     1      -2.000  -6.977  -1.409  0.00  0.00    -0.171 NA
ATOM      7  O   UNL     1      -0.396  -9.528   0.486  0.00  0.00    -0.423 OA
ATOM      8  C   UNL     1       0.152  -9.374   1.709  0.00  0.00    +0.200 C 
ATOM      9  C   UNL     1       0.446  -8.173   2.255  0.00  0.00    +0.098 C 
ATOM     10  C   UNL     1       0.189  -6.873   1.536  0.00  0.00    +0.102 C 
ENDROOT
BRANCH   1  14
ATOM     11  C   UNL     1      -1.416  -2.035  -0.119  0.00  0.00    -0.047 A 
ATOM     12  C   UNL     1      -1.450  -2.617  -1.374  0.00  0.00    +0.004 A 
ATOM     13  C   UNL     1      -1.434  -3.991  -1.500  0.00  0.00    +0.010 A 
ATOM     14  C   UNL     1      -1.383  -4.792  -0.362  0.00  0.00    +0.003 A 
ATOM     15  C   UNL     1      -1.349  -4.201   0.899  0.00  0.00    +0.010 A 
ATOM     16  C   UNL     1      -1.360  -2.826   1.014  0.00  0.00    +0.004 A 
BRANCH  11  17
ATOM     17  C   UNL     1      -1.433  -0.534   0.013  0.00  0.00    +0.038 C 
BRANCH  17  19
ATOM     18  C   UNL     1      -0.019   1.526   0.010  0.00  0.00    +0.007 C 
ATOM     19  C   UNL     1       0.002  -0.004   0.002  0.00  0.00    -0.013 C 
ATOM     20  C   UNL     1       0.742  -0.511   1.242  0.00  0.00    +0.007 C 
ENDBRANCH  17  19
ENDBRANCH  11  17
ENDBRANCH   1  14
BRANCH  10  21
ATOM     21  C   UNL     1       1.496  -6.275   1.082  0.00  0.00    -0.034 A 
ATOM     22  C   UNL     1       2.321  -6.986   0.231  0.00  0.00    +0.006 A 
ATOM     23  C   UNL     1       3.520  -6.441  -0.186  0.00  0.00    +0.023 A 
ATOM     24  C   UNL     1       3.895  -5.177   0.250  0.00  0.00    +0.029 A 
ATOM     25  C   UNL     1       3.063  -4.465   1.105  0.00  0.00    +0.023 A 
ATOM     26  C   UNL     1       1.864  -5.014   1.514  0.00  0.00    +0.006 A 
BRANCH  24  27
ATOM     27  N   UNL     1       5.107  -4.623  -0.170  0.00  0.00    -0.336 N 
ATOM     28  C   UNL     1       5.983  -5.375  -1.071  0.00  0.00    +0.129 C 
ATOM     29  C   UNL     1       5.501  -3.289   0.291  0.00  0.00    +0.129 C 
ENDBRANCH  24  27
ENDBRANCH  10  21
BRANCH   8  30
ATOM     30  N   UNL     1       0.428 -10.502   2.440  0.00  0.00    -0.328 N 
ATOM     31  H   UNL     1       0.228 -11.378   2.075  0.00  0.00    +0.145 HD
ATOM     32  H   UNL     1       0.823 -10.424   3.323  0.00  0.00    +0.145 HD
ENDBRANCH   8  30
BRANCH   9  33
ATOM     33  C   UNL     1       1.023  -8.134   3.566  0.00  0.00    +0.101 C 
ATOM     34  N   UNL     1       1.480  -8.104   4.605  0.00  0.00    -0.191 NA
ENDBRANCH   9  33
TORSDOF 7
