REMARK  Name = ZINC38049687
REMARK  6 active torsions:
REMARK  status: ('A' for Active; 'I' for Inactive)
REMARK    1  A    between atoms: C_1  and  C_2
REMARK    2  A    between atoms: C_2  and  O_3
REMARK    3  A    between atoms: O_3  and  C_4
REMARK    4  A    between atoms: C_9  and  C_10
REMARK    5  A    between atoms: N_12  and  C_13
REMARK    6  A    between atoms: C_19  and  N_21
REMARK                            x       y       z     vdW  Elec       q    Type
REMARK                         _______ _______ _______ _____ _____    ______ ____
ROOT
ATOM      1  C   UNL     1      -3.971  -1.527   0.032  0.00  0.00    +0.248 C 
ATOM      2  O   UNL     1      -3.836  -0.319   0.037  0.00  0.00    -0.270 OA
ATOM      3  N   UNL     1      -5.207  -2.066   0.041  0.00  0.00    -0.310 N 
ATOM      4  H   UNL     1      -5.315  -3.030   0.036  0.00  0.00    +0.149 HD
ENDROOT
BRANCH   1  10
ATOM      5  C   UNL     1      -1.498  -1.846   0.006  0.00  0.00    +0.133 A 
ATOM      6  C   UNL     1      -0.389  -2.679  -0.003  0.00  0.00    +0.046 A 
ATOM      7  C   UNL     1      -0.553  -4.049  -0.009  0.00  0.00    +0.004 A 
ATOM      8  C   UNL     1      -1.823  -4.604  -0.006  0.00  0.00    +0.001 A 
ATOM      9  C   UNL     1      -2.936  -3.791   0.003  0.00  0.00    +0.017 A 
ATOM     10  C   UNL     1      -2.784  -2.402   0.016  0.00  0.00    +0.078 A 
BRANCH   5  11
ATOM     11  O   UNL     1      -1.339  -0.499   0.012  0.00  0.00    -0.491 OA
BRANCH  11  13
ATOM     12  C   UNL     1      -0.019   1.526   0.010  0.00  0.00    +0.048 C 
ATOM     13  C   UNL     1       0.002  -0.004   0.002  0.00  0.00    +0.226 C 
ENDBRANCH  11  13
ENDBRANCH   5  11
ENDBRANCH   1  10
BRANCH   3  14
ATOM     14  C   UNL     1      -6.385  -1.197   0.057  0.00  0.00    +0.059 C 
ATOM     15  C   UNL     1      -6.735  -0.785  -1.375  0.00  0.00    +0.020 C 
ATOM     16  C   UNL     1      -7.034  -2.034  -2.206  0.00  0.00    +0.002 C 
ATOM     17  C   UNL     1      -8.214  -2.787  -1.589  0.00  0.00    -0.001 C 
ATOM     18  C   UNL     1      -7.865  -3.199  -0.158  0.00  0.00    -0.014 C 
ATOM     19  C   UNL     1      -7.566  -1.949   0.674  0.00  0.00    -0.055 C 
BRANCH  19  20
ATOM     20  N   UNL     1      -7.230  -2.345   2.048  0.00  0.00    +0.381 N 
ATOM     21  H   UNL     1      -7.033  -1.521   2.596  0.00  0.00    -0.090 HD
ATOM     22  H   UNL     1      -8.009  -2.841   2.455  0.00  0.00    -0.090 HD
ATOM     23  H   UNL     1      -6.418  -2.943   2.037  0.00  0.00    -0.090 HD
ENDBRANCH  19  20
ENDBRANCH   3  14
TORSDOF 5
