REMARK  Name = ZINC43664716
REMARK  4 active torsions:
REMARK  status: ('A' for Active; 'I' for Inactive)
REMARK    1  A    between atoms: C_1  and  C_2
REMARK    2  A    between atoms: C_4  and  N_18
REMARK    3  A    between atoms: N_5  and  C_7
REMARK    4  A    between atoms: C_7  and  C_8
REMARK                            x       y       z     vdW  Elec       q    Type
REMARK                         _______ _______ _______ _____ _____    ______ ____
ROOT
ATOM      1  C   UNL     1       0.053  -3.292   1.496  0.00  0.00    +0.180 C 
ENDROOT
BRANCH   1   2
ATOM      2  C   UNL     1       1.480  -3.679   1.786  0.00  0.00    -0.021 A 
ATOM      3  C   UNL     1       2.140  -4.559   0.949  0.00  0.00    +0.055 A 
ATOM      4  C   UNL     1       3.452  -4.916   1.213  0.00  0.00    +0.168 A 
ATOM      5  C   UNL     1       4.104  -4.386   2.324  0.00  0.00    +0.184 A 
ATOM      6  C   UNL     1       3.437  -3.505   3.159  0.00  0.00    +0.087 A 
ATOM      7  C   UNL     1       2.128  -3.148   2.886  0.00  0.00    +0.029 A 
ATOM      8 CL   UNL     1       4.246  -2.842   4.545  0.00  0.00    -0.080 Cl
ATOM      9  O   UNL     1       5.374  -4.887   2.364  0.00  0.00    -0.451 OA
ATOM     10  C   UNL     1       5.360  -6.040   1.502  0.00  0.00    +0.466 C 
ATOM     11  O   UNL     1       4.313  -5.748   0.557  0.00  0.00    -0.453 OA
ENDBRANCH   1   2
BRANCH   1  16
ATOM     12  C   UNL     1      -0.018   1.503   0.010  0.00  0.00    +0.067 C 
ATOM     13  C   UNL     1       0.002  -0.004   0.002  0.00  0.00    +0.062 A 
ATOM     14  C   UNL     1       0.008  -0.816  -1.136  0.00  0.00    +0.067 A 
ATOM     15  C   UNL     1       0.027  -2.113  -0.721  0.00  0.00    +0.115 A 
ATOM     16  N   UNL     1       0.034  -2.110   0.631  0.00  0.00    -0.246 N 
ATOM     17  N   UNL     1       0.023  -0.776   1.058  0.00  0.00    -0.175 NA
BRANCH  15  18
ATOM     18  N   UNL     1       0.038  -3.238  -1.541  0.00  0.00    -0.343 N 
ATOM     19  H   UNL     1       0.032  -3.136  -2.506  0.00  0.00    +0.144 HD
ATOM     20  H   UNL     1       0.052  -4.125  -1.147  0.00  0.00    +0.144 HD
ENDBRANCH  15  18
ENDBRANCH   1  16
TORSDOF 3
