REMARK  Name = ZINC40569003
REMARK  5 active torsions:
REMARK  status: ('A' for Active; 'I' for Inactive)
REMARK    1  A    between atoms: C_1  and  O_2
REMARK    2  A    between atoms: O_2  and  C_3
REMARK    3  A    between atoms: C_8  and  C_9
REMARK    4  A    between atoms: C_15  and  O_34
REMARK    5  A    between atoms: C_20  and  C_25
REMARK                            x       y       z     vdW  Elec       q    Type
REMARK                         _______ _______ _______ _____ _____    ______ ____
ROOT
ATOM      1  C   UNL     1      -0.008  -2.831  -0.013  0.00  0.00    +0.075 A 
ATOM      2  C   UNL     1      -0.080  -4.225  -0.025  0.00  0.00    +0.029 A 
ATOM      3  C   UNL     1       1.089  -4.956  -0.045  0.00  0.00    +0.017 A 
ATOM      4  C   UNL     1       2.310  -4.265  -0.049  0.00  0.00    +0.061 A 
ATOM      5  C   UNL     1       2.305  -2.871  -0.028  0.00  0.00    +0.087 A 
ATOM      6  N   UNL     1       1.164  -2.210  -0.020  0.00  0.00    -0.248 NA
ATOM      7  C   UNL     1       3.601  -2.112  -0.007  0.00  0.00    +0.198 C 
ATOM      8  C   UNL     1       4.386  -2.436   1.236  0.00  0.00    +0.046 C 
ATOM      9  C   UNL     1       4.853  -3.675   1.466  0.00  0.00    +0.021 C 
ATOM     10  C   UNL     1       5.632  -3.980   2.728  0.00  0.00    +0.060 C 
ATOM     11  C   UNL     1       5.147  -3.079   3.865  0.00  0.00    +0.032 C 
ATOM     12  C   UNL     1       5.347  -1.620   3.440  0.00  0.00    +0.088 C 
ATOM     13  C   UNL     1       4.612  -1.388   2.150  0.00  0.00    +0.164 C 
ATOM     14  O   UNL     1       4.204  -0.273   1.889  0.00  0.00    -0.292 OA
ATOM     15  N   UNL     1       4.664  -4.697   0.588  0.00  0.00    -0.285 N 
ATOM     16  C   UNL     1       3.573  -5.010  -0.081  0.00  0.00    +0.250 C 
ATOM     17  O   UNL     1       3.617  -6.000  -0.784  0.00  0.00    -0.270 OA
ATOM     18  H   UNL     1       5.433  -5.269   0.434  0.00  0.00    +0.155 HD
ENDROOT
BRANCH   1  24
ATOM     19  C   UNL     1      -1.199  -0.637   0.010  0.00  0.00    +0.129 A 
ATOM     20  C   UNL     1      -2.374   0.100   0.019  0.00  0.00    +0.046 A 
ATOM     21  C   UNL     1      -3.595  -0.545   0.027  0.00  0.00    +0.004 A 
ATOM     22  C   UNL     1      -3.655  -1.929   0.026  0.00  0.00    +0.001 A 
ATOM     23  C   UNL     1      -2.496  -2.675   0.017  0.00  0.00    +0.013 A 
ATOM     24  C   UNL     1      -1.257  -2.035   0.003  0.00  0.00    +0.042 A 
BRANCH  19  26
ATOM     25  C   UNL     1      -0.017   1.425   0.010  0.00  0.00    +0.277 C 
ATOM     26  O   UNL     1       0.002  -0.004   0.002  0.00  0.00    -0.494 OA
ENDBRANCH  19  26
ENDBRANCH   1  24
BRANCH  11  27
ATOM     27  C   UNL     1       5.945  -3.360   5.112  0.00  0.00    -0.044 A 
ATOM     28  C   UNL     1       7.315  -3.176   5.112  0.00  0.00    +0.004 A 
ATOM     29  C   UNL     1       8.047  -3.434   6.256  0.00  0.00    +0.000 A 
ATOM     30  C   UNL     1       7.409  -3.876   7.400  0.00  0.00    +0.000 A 
ATOM     31  C   UNL     1       6.039  -4.059   7.400  0.00  0.00    +0.000 A 
ATOM     32  C   UNL     1       5.306  -3.797   6.257  0.00  0.00    +0.004 A 
ENDBRANCH  11  27
BRANCH   7  33
ATOM     33  O   UNL     1       4.372  -2.467  -1.157  0.00  0.00    -0.381 OA
ATOM     34  H   UNL     1       3.938  -2.272  -1.998  0.00  0.00    +0.211 HD
ENDBRANCH   7  33
TORSDOF 4
