REMARK  Name = ZINC39623113
REMARK  6 active torsions:
REMARK  status: ('A' for Active; 'I' for Inactive)
REMARK    1  A    between atoms: C_5  and  C_7
REMARK    2  A    between atoms: C_7  and  N_8
REMARK    3  A    between atoms: C_9  and  C_11
REMARK    4  A    between atoms: C_22  and  C_24
REMARK    5  A    between atoms: C_27  and  O_30
REMARK    6  A    between atoms: O_30  and  C_31
REMARK                            x       y       z     vdW  Elec       q    Type
REMARK                         _______ _______ _______ _____ _____    ______ ____
ROOT
ATOM      1  C   UNL     1       1.962  -4.482   3.631  0.00  0.00    +0.100 C 
ATOM      2  C   UNL     1       0.700  -3.905   4.310  0.00  0.00    +0.121 C 
ATOM      3  N   UNL     1      -0.278  -5.019   4.292  0.00  0.00    -0.296 N 
ATOM      4  C   UNL     1       0.532  -6.225   4.588  0.00  0.00    +0.115 C 
ATOM      5  C   UNL     1       1.850  -6.005   3.818  0.00  0.00    -0.004 C 
ATOM      6  C   UNL     1       3.030  -6.525   4.633  0.00  0.00    -0.010 C 
ATOM      7  C   UNL     1       2.928  -8.047   4.757  0.00  0.00    -0.082 C 
ATOM      8  N   UNL     1       2.928  -8.650   3.418  0.00  0.00    +0.379 N 
ATOM      9  C   UNL     1       1.739  -8.217   2.674  0.00  0.00    -0.082 C 
ATOM     10  C   UNL     1       1.791  -6.701   2.462  0.00  0.00    -0.010 C 
ATOM     11  C   UNL     1      -1.603  -4.950   4.060  0.00  0.00    +0.247 C 
ATOM     12  O   UNL     1      -2.106  -3.901   3.706  0.00  0.00    -0.270 OA
ATOM     13  H   UNL     1       3.758  -8.362   2.921  0.00  0.00    -0.086 HD
ATOM     14  H   UNL     1       2.922  -9.655   3.503  0.00  0.00    -0.086 HD
ENDROOT
BRANCH  11  15
ATOM     15  C   UNL     1      -2.446  -6.150   4.235  0.00  0.00    +0.037 A 
ATOM     16  C   UNL     1      -2.003  -7.207   5.034  0.00  0.00    +0.016 A 
ATOM     17  C   UNL     1      -2.792  -8.324   5.195  0.00  0.00    +0.047 A 
ATOM     18  C   UNL     1      -4.027  -8.401   4.564  0.00  0.00    +0.130 A 
ATOM     19  C   UNL     1      -4.472  -7.352   3.767  0.00  0.00    +0.047 A 
ATOM     20  C   UNL     1      -3.691  -6.229   3.606  0.00  0.00    +0.016 A 
BRANCH  18  21
ATOM     21  O   UNL     1      -4.802  -9.504   4.724  0.00  0.00    -0.406 OA
BRANCH  21  22
ATOM     22  C   UNL     1      -6.060  -9.517   4.046  0.00  0.00    +0.575 C 
ATOM     23  F   UNL     1      -5.848  -9.404   2.668  0.00  0.00    -0.133 F 
ATOM     24  F   UNL     1      -6.723 -10.718   4.319  0.00  0.00    -0.133 F 
ATOM     25  F   UNL     1      -6.840  -8.443   4.489  0.00  0.00    -0.133 F 
ENDBRANCH  21  22
ENDBRANCH  18  21
ENDBRANCH  11  15
BRANCH   1  27
ATOM     26  N   UNL     1       3.142  -4.087   1.493  0.00  0.00    -0.311 N 
ATOM     27  C   UNL     1       1.974  -4.134   2.164  0.00  0.00    +0.218 C 
ATOM     28  O   UNL     1       0.934  -3.896   1.589  0.00  0.00    -0.275 OA
ATOM     29  H   UNL     1       3.974  -4.277   1.954  0.00  0.00    +0.149 HD
BRANCH  26  30
ATOM     30  C   UNL     1       3.155  -3.748   0.068  0.00  0.00    +0.141 C 
BRANCH  30  35
ATOM     31  C   UNL     1       6.568  -2.593  -1.058  0.00  0.00    +0.000 A 
ATOM     32  C   UNL     1       7.177  -3.794  -1.373  0.00  0.00    +0.001 A 
ATOM     33  C   UNL     1       6.484  -4.980  -1.222  0.00  0.00    +0.020 A 
ATOM     34  C   UNL     1       5.181  -4.966  -0.756  0.00  0.00    +0.046 A 
ATOM     35  C   UNL     1       4.573  -3.764  -0.440  0.00  0.00    -0.012 A 
ATOM     36  C   UNL     1       5.267  -2.578  -0.592  0.00  0.00    +0.006 A 
ATOM     37 CL   UNL     1       4.311  -6.456  -0.567  0.00  0.00    -0.083 Cl
ENDBRANCH  30  35
ENDBRANCH  26  30
ENDBRANCH   1  27
TORSDOF 6
