REMARK  Name = ZINC39387855
REMARK  13 active torsions:
REMARK  status: ('A' for Active; 'I' for Inactive)
REMARK    1  A    between atoms: C_1  and  C_2
REMARK    2  A    between atoms: C_2  and  C_3
REMARK    3  A    between atoms: C_3  and  C_4
REMARK    4  A    between atoms: C_4  and  N_5
REMARK    5  A    between atoms: N_5  and  C_6
REMARK    6  A    between atoms: N_5  and  C_7
REMARK    7  A    between atoms: C_7  and  C_8
REMARK    8  A    between atoms: C_12  and  C_15
REMARK    9  A    between atoms: N_17  and  C_18
REMARK   10  A    between atoms: C_18  and  C_19
REMARK   11  A    between atoms: C_20  and  C_27
REMARK   12  A    between atoms: N_22  and  C_26
REMARK   13  A    between atoms: C_23  and  C_25
REMARK                            x       y       z     vdW  Elec       q    Type
REMARK                         _______ _______ _______ _____ _____    ______ ____
ROOT
ATOM      1  C   UNL     1       2.433  -4.481   3.509  0.00  0.00    +0.003 A 
ATOM      2  N   UNL     1       3.731  -4.105   3.597  0.00  0.00    -0.327 N 
ATOM      3  C   UNL     1       4.507  -4.519   4.617  0.00  0.00    +0.261 A 
ATOM      4  O   UNL     1       5.673  -4.170   4.679  0.00  0.00    -0.267 OA
ATOM      5  C   UNL     1       3.963  -5.363   5.619  0.00  0.00    +0.101 A 
ATOM      6  C   UNL     1       2.626  -5.746   5.522  0.00  0.00    +0.020 A 
ATOM      7  C   UNL     1       1.868  -5.283   4.447  0.00  0.00    +0.020 A 
ATOM      8  H   UNL     1       4.108  -3.528   2.915  0.00  0.00    +0.169 HD
ENDROOT
BRANCH   5   9
ATOM      9  C   UNL     1       4.794  -5.826   6.741  0.00  0.00    +0.250 C 
ATOM     10  O   UNL     1       4.292  -6.461   7.649  0.00  0.00    -0.270 OA
ATOM     11  N   UNL     1       6.113  -5.548   6.762  0.00  0.00    -0.307 N 
ATOM     12  H   UNL     1       6.500  -4.980   6.077  0.00  0.00    +0.149 HD
BRANCH  11  13
ATOM     13  C   UNL     1       6.962  -6.102   7.819  0.00  0.00    +0.138 C 
BRANCH  13  14
ATOM     14  C   UNL     1       8.383  -5.643   7.615  0.00  0.00    -0.018 C 
ATOM     15  C   UNL     1       8.945  -4.609   8.189  0.00  0.00    -0.000 C 
ATOM     16  N   UNL     1      10.272  -4.453   7.779  0.00  0.00    -0.354 NA
ATOM     17  N   UNL     1      10.694  -5.723   7.180  0.00  0.00    -0.242 NA
ATOM     18  C   UNL     1       9.409  -6.301   6.716  0.00  0.00    +0.100 C 
ATOM     19  C   UNL     1       9.156  -5.938   5.251  0.00  0.00    +0.030 C 
ATOM     20  C   UNL     1      11.324  -6.593   8.182  0.00  0.00    +0.126 C 
ATOM     21  C   UNL     1       8.248  -3.701   9.169  0.00  0.00    +0.060 C 
ATOM     22  H   UNL     1      10.335  -3.714   7.095  0.00  0.00    +0.141 HD
ATOM     23  H   UNL     1      10.854  -4.239   8.575  0.00  0.00    +0.141 HD
ENDBRANCH  13  14
ENDBRANCH  11  13
ENDBRANCH   5   9
BRANCH   1  24
ATOM     24  C   UNL     1       1.599  -3.995   2.352  0.00  0.00    -0.025 C 
BRANCH  24  25
ATOM     25  N   UNL     1       1.458  -2.535   2.429  0.00  0.00    +0.381 N 
ATOM     26  C   UNL     1       0.695  -2.181   3.634  0.00  0.00    -0.096 C 
ATOM     27  H   UNL     1       2.372  -2.111   2.473  0.00  0.00    -0.082 HD
BRANCH  25  28
ATOM     28  C   UNL     1       0.748  -2.049   1.239  0.00  0.00    -0.079 C 
BRANCH  28  29
ATOM     29  C   UNL     1       0.709  -0.519   1.258  0.00  0.00    -0.019 C 
BRANCH  29  31
ATOM     30  C   UNL     1      -0.069   1.517   0.037  0.00  0.00    +0.004 C 
ATOM     31  C   UNL     1      -0.030  -0.012   0.018  0.00  0.00    -0.005 C 
ENDBRANCH  29  31
ENDBRANCH  28  29
ENDBRANCH  25  28
ENDBRANCH  24  25
ENDBRANCH   1  24
TORSDOF 8
