REMARK  Name = ZINC64622194
REMARK  5 active torsions:
REMARK  status: ('A' for Active; 'I' for Inactive)
REMARK    1  A    between atoms: C_1  and  O_2
REMARK    2  A    between atoms: O_2  and  C_3
REMARK    3  A    between atoms: C_8  and  C_13
REMARK    4  A    between atoms: C_19  and  C_21
REMARK    5  A    between atoms: C_24  and  C_26
REMARK                            x       y       z     vdW  Elec       q    Type
REMARK                         _______ _______ _______ _____ _____    ______ ____
ROOT
ATOM      1  C   UNL     1       3.554  -4.623  -3.710  0.00  0.00    +0.242 C 
ATOM      2  O   UNL     1       4.559  -3.964  -3.543  0.00  0.00    -0.273 OA
ATOM      3  N   UNL     1       3.629  -5.968  -3.751  0.00  0.00    -0.292 N 
ATOM      4  C   UNL     1       2.493  -6.886  -3.953  0.00  0.00    +0.108 C 
ATOM      5  C   UNL     1       3.125  -8.177  -4.530  0.00  0.00    +0.021 C 
ATOM      6  C   UNL     1       4.462  -8.247  -3.747  0.00  0.00    +0.029 C 
ATOM      7  C   UNL     1       4.858  -6.762  -3.609  0.00  0.00    +0.113 C 
ENDROOT
BRANCH   1  13
ATOM      8  C   UNL     1       0.606  -0.607  -1.056  0.00  0.00    +0.121 A 
ATOM      9  C   UNL     1       1.172   0.195  -2.062  0.00  0.00    +0.047 A 
ATOM     10  C   UNL     1       1.790  -0.325  -3.144  0.00  0.00    +0.029 A 
ATOM     11  C   UNL     1       1.886  -1.780  -3.299  0.00  0.00    +0.043 A 
ATOM     12  N   UNL     1       2.419  -2.528  -4.232  0.00  0.00    -0.370 N 
ATOM     13  C   UNL     1       2.222  -3.937  -3.871  0.00  0.00    +0.190 C 
ATOM     14  C   UNL     1       1.476  -3.927  -2.555  0.00  0.00    +0.016 C 
ATOM     15  C   UNL     1       1.290  -2.626  -2.239  0.00  0.00    -0.000 A 
ATOM     16  C   UNL     1       0.646  -1.960  -1.102  0.00  0.00    +0.055 A 
ATOM     17  H   UNL     1       2.869  -2.205  -5.029  0.00  0.00    +0.161 HD
BRANCH   8  19
ATOM     18  C   UNL     1      -0.017   1.425   0.010  0.00  0.00    +0.277 C 
ATOM     19  O   UNL     1       0.002  -0.004   0.002  0.00  0.00    -0.495 OA
ENDBRANCH   8  19
ENDBRANCH   1  13
BRANCH   7  20
ATOM     20  C   UNL     1       5.469  -6.522  -2.252  0.00  0.00    +0.011 A 
ATOM     21  C   UNL     1       6.782  -6.380  -1.944  0.00  0.00    +0.014 A 
ATOM     22  C   UNL     1       7.141  -6.165  -0.635  0.00  0.00    +0.021 A 
ATOM     23  C   UNL     1       6.096  -6.110   0.275  0.00  0.00    +0.074 A 
ATOM     24  S   UNL     1       4.680  -6.360  -0.778  0.00  0.00    -0.087 S 
BRANCH  23  25
ATOM     25  C   UNL     1       6.144  -5.897   1.725  0.00  0.00    +0.248 C 
ATOM     26  O   UNL     1       7.214  -5.738   2.281  0.00  0.00    -0.270 OA
ATOM     27  N   UNL     1       5.002  -5.878   2.441  0.00  0.00    -0.325 N 
ATOM     28  H   UNL     1       4.149  -6.005   1.997  0.00  0.00    +0.145 HD
ATOM     29  H   UNL     1       5.034  -5.737   3.400  0.00  0.00    +0.145 HD
ENDBRANCH  23  25
ENDBRANCH   7  20
TORSDOF 4
