REMARK  Name = ZINC51146968
REMARK  7 active torsions:
REMARK  status: ('A' for Active; 'I' for Inactive)
REMARK    1  A    between atoms: C_6  and  N_21
REMARK    2  A    between atoms: C_8  and  C_10
REMARK    3  A    between atoms: C_10  and  N_11
REMARK    4  A    between atoms: C_16  and  C_18
REMARK    5  A    between atoms: C_18  and  C_19
REMARK    6  A    between atoms: C_19  and  O_20
REMARK    7  A    between atoms: N_21  and  N_22
REMARK                            x       y       z     vdW  Elec       q    Type
REMARK                         _______ _______ _______ _____ _____    ______ ____
ROOT
ATOM      1  C   UNL     1      -0.684   1.272   0.287  0.00  0.00    +0.021 A 
ATOM      2  C   UNL     1       0.393   2.070   0.264  0.00  0.00    +0.048 A 
ATOM      3  S   UNL     1       1.758   0.927   0.165  0.00  0.00    -0.077 S 
ATOM      4  C   UNL     1       0.844  -0.593   0.156  0.00  0.00    +0.113 A 
ATOM      5  C   UNL     1      -0.500  -0.168   0.231  0.00  0.00    +0.049 A 
ATOM      6  C   UNL     1      -1.469  -1.210   0.240  0.00  0.00    +0.144 A 
ATOM      7  N   UNL     1      -1.063  -2.468   0.180  0.00  0.00    -0.218 NA
ATOM      8  C   UNL     1       0.215  -2.792   0.111  0.00  0.00    +0.116 A 
ATOM      9  N   UNL     1       1.159  -1.872   0.100  0.00  0.00    -0.227 NA
ENDROOT
BRANCH   6  10
ATOM     10  N   UNL     1      -2.817  -0.911   0.311  0.00  0.00    -0.267 N 
ATOM     11  H   UNL     1      -3.108   0.013   0.355  0.00  0.00    +0.167 HD
BRANCH  10  12
ATOM     12  N   UNL     1      -3.740  -1.918   0.319  0.00  0.00    -0.255 NA
ATOM     13  H   UNL     1      -3.562  -2.566   1.072  0.00  0.00    +0.140 HD
ATOM     14  H   UNL     1      -4.678  -1.549   0.374  0.00  0.00    +0.140 HD
ENDBRANCH  10  12
ENDBRANCH   6  10
BRANCH   8  15
ATOM     15  C   UNL     1       0.604  -4.247   0.045  0.00  0.00    -0.001 C 
BRANCH  15  16
ATOM     16  N   UNL     1       0.667  -4.674  -1.359  0.00  0.00    +0.386 N 
ATOM     17  C   UNL     1      -0.668  -4.577  -1.960  0.00  0.00    -0.078 C 
ATOM     18  C   UNL     1      -0.593  -4.943  -3.443  0.00  0.00    -0.019 C 
ATOM     19  C   UNL     1      -0.070  -6.375  -3.584  0.00  0.00    -0.003 C 
ATOM     20  C   UNL     1       1.290  -6.483  -2.890  0.00  0.00    -0.015 C 
ATOM     21  C   UNL     1       1.145  -6.060  -1.426  0.00  0.00    -0.066 C 
ATOM     22  H   UNL     1       1.304  -4.075  -1.863  0.00  0.00    -0.081 HD
BRANCH  21  23
ATOM     23  C   UNL     1       2.502  -6.166  -0.728  0.00  0.00    +0.012 C 
BRANCH  23  24
ATOM     24  C   UNL     1       2.972  -7.622  -0.746  0.00  0.00    +0.154 C 
BRANCH  24  25
ATOM     25  O   UNL     1       4.177  -7.743   0.013  0.00  0.00    -0.395 OA
ATOM     26  H   UNL     1       4.534  -8.641   0.045  0.00  0.00    +0.209 HD
ENDBRANCH  24  25
ENDBRANCH  23  24
ENDBRANCH  21  23
ENDBRANCH  15  16
ENDBRANCH   8  15
TORSDOF 7
