REMARK  Name = ZINC49554699
REMARK  3 active torsions:
REMARK  status: ('A' for Active; 'I' for Inactive)
REMARK    1  A    between atoms: C_2  and  S_8
REMARK    2  A    between atoms: C_3  and  N_7
REMARK    3  A    between atoms: S_8  and  N_11
REMARK                            x       y       z     vdW  Elec       q    Type
REMARK                         _______ _______ _______ _____ _____    ______ ____
ROOT
ATOM      1  S   UNL     1       2.792   1.386  -0.016  0.00  0.00    +0.106 S 
ATOM      2  O   UNL     1       3.455   2.115   1.008  0.00  0.00    -0.146 OA
ATOM      3  O   UNL     1       2.774  -0.035  -0.050  0.00  0.00    -0.146 OA
ENDROOT
BRANCH   1   4
ATOM      4  N   UNL     1       3.445   1.886  -1.453  0.00  0.00    -0.103 NA
ATOM      5  C   UNL     1       4.699   1.625  -1.728  0.00  0.00    +0.192 A 
ATOM      6  N   UNL     1       5.635   0.953  -0.979  0.00  0.00    -0.336 N 
ATOM      7  C   UNL     1       6.914   0.790  -1.468  0.00  0.00    +0.028 A 
ATOM      8  C   UNL     1       7.184   1.306  -2.674  0.00  0.00    +0.012 A 
ATOM      9  S   UNL     1       5.650   2.039  -3.183  0.00  0.00    -0.053 S 
ATOM     10  C   UNL     1       8.479   1.266  -3.420  0.00  0.00    +0.044 C 
ATOM     11  C   UNL     1       9.591   0.854  -2.445  0.00  0.00    +0.006 C 
ATOM     12  C   UNL     1       9.111  -0.361  -1.646  0.00  0.00    +0.006 C 
ATOM     13  C   UNL     1       7.999   0.055  -0.684  0.00  0.00    +0.054 C 
ATOM     14  H   UNL     1       5.397   0.596  -0.109  0.00  0.00    +0.168 HD
ENDBRANCH   1   4
BRANCH   1  16
ATOM     15  C   UNL     1      -0.013   1.076   0.008  0.00  0.00    +0.133 A 
ATOM     16  C   UNL     1       1.109   1.909   0.002  0.00  0.00    +0.168 A 
ATOM     17  C   UNL     1       0.670   3.199   0.012  0.00  0.00    +0.137 A 
ATOM     18  N   UNL     1      -0.682   3.169   0.024  0.00  0.00    -0.286 N 
ATOM     19  N   UNL     1      -1.083   1.827   0.017  0.00  0.00    -0.304 N 
ATOM     20  H   UNL     1      -1.269   3.941   0.034  0.00  0.00    +0.188 HD
ATOM     21  H   UNL     1      -2.000   1.509   0.019  0.00  0.00    +0.186 HD
BRANCH  17  22
ATOM     22  N   UNL     1       1.468   4.339   0.011  0.00  0.00    -0.342 N 
ATOM     23  H   UNL     1       2.435   4.255   0.002  0.00  0.00    +0.144 HD
ATOM     24  H   UNL     1       1.058   5.218   0.019  0.00  0.00    +0.144 HD
ENDBRANCH  17  22
ENDBRANCH   1  16
TORSDOF 3
