REMARK  Name = ZINC16212614
REMARK  6 active torsions:
REMARK  status: ('A' for Active; 'I' for Inactive)
REMARK    1  A    between atoms: CG_4  and  CB_7
REMARK    2  A    between atoms: CA_8  and  C_9
REMARK    3  A    between atoms: CA_8  and  N_15
REMARK    4  A    between atoms: N_11  and  CA_12
REMARK    5  A    between atoms: CA_12  and  C_13
REMARK    6  A    between atoms: C_16  and  C_18
REMARK                            x       y       z     vdW  Elec       q    Type
REMARK                         _______ _______ _______ _____ _____    ______ ____
ROOT
ATOM      1  CB  GLY A   1       2.565   0.799  -0.291  0.00  0.00    +0.036 C 
ATOM      2  CA  GLY A   1       1.608   1.674   0.094  0.00  0.00    +0.097 C 
ENDROOT
BRANCH   1   6
ATOM      3  CZ  GLY A   1       6.362   2.222  -1.536  0.00  0.00    +0.000 A 
ATOM      4  CE1 GLY A   1       6.263   1.006  -0.883  0.00  0.00    +0.001 A 
ATOM      5  CD1 GLY A   1       5.032   0.536  -0.475  0.00  0.00    +0.008 A 
ATOM      6  CG  GLY A   1       3.882   1.292  -0.723  0.00  0.00    -0.023 A 
ATOM      7  CD2 GLY A   1       3.990   2.518  -1.388  0.00  0.00    +0.008 A 
ATOM      8  CE2 GLY A   1       5.228   2.976  -1.785  0.00  0.00    +0.001 A 
ENDBRANCH   1   6
BRANCH   2   9
ATOM      9  C   GLY A   1       1.925   3.104   0.218  0.00  0.00    +0.259 C 
ATOM     10  O   GLY A   1       1.480   3.898  -0.589  0.00  0.00    -0.269 OA
ATOM     11  N   GLY A   1       2.710   3.535   1.226  0.00  0.00    -0.300 N 
ATOM     12  H   GLY A   1       3.124   2.896   1.826  0.00  0.00    +0.150 HD
BRANCH  11  13
ATOM     13  CA  GLY A   1       2.938   4.970   1.414  0.00  0.00    +0.229 C 
BRANCH  13  14
ATOM     14  C   GLY A   1       3.940   5.179   2.520  0.00  0.00    +0.373 C 
ATOM     15  O   GLY A   1       4.486   4.228   3.027  0.00  0.00    -0.245 OA
ATOM     16  OXT GLY A   1       4.226   6.421   2.941  0.00  0.00    -0.245 OA
ENDBRANCH  13  14
ENDBRANCH  11  13
ENDBRANCH   2   9
BRANCH   2  17
ATOM     17  N   GLY A   1       0.316   1.218   0.374  0.00  0.00    -0.277 N 
ATOM     18  C   UNK A   0      -0.628   2.084   0.793  0.00  0.00    +0.249 C 
ATOM     19  O   UNK A   0      -0.381   3.273   0.849  0.00  0.00    -0.270 OA
ATOM     20  H   GLY A   1       0.099   0.279   0.264  0.00  0.00    +0.155 HD
BRANCH  18  21
ATOM     21  C   UNK A   0      -1.964   1.588   1.184  0.00  0.00    +0.050 A 
ATOM     22  C   UNK A   0      -2.216   0.215   1.234  0.00  0.00    +0.014 A 
ATOM     23  C   UNK A   0      -3.463  -0.241   1.604  0.00  0.00    +0.001 A 
ATOM     24  C   UNK A   0      -4.468   0.658   1.917  0.00  0.00    +0.001 A 
ATOM     25  C   UNK A   0      -4.228   2.019   1.865  0.00  0.00    +0.015 A 
ATOM     26  C   UNK A   0      -2.982   2.490   1.501  0.00  0.00    +0.025 A 
ATOM     27  I   UNK A   0      -2.619   4.552   1.423  0.00  0.00    -0.043 I 
ENDBRANCH  18  21
ENDBRANCH   2  17
TORSDOF 6
