REMARK  Name = ZINC16843791
REMARK  2 active torsions:
REMARK  status: ('A' for Active; 'I' for Inactive)
REMARK    1  A    between atoms: C_5  and  C_6
REMARK    2  A    between atoms: C_7  and  C_16
REMARK                            x       y       z     vdW  Elec       q    Type
REMARK                         _______ _______ _______ _____ _____    ______ ____
ROOT
ATOM      1  C   UNL     1      -1.173   3.637   0.138  0.00  0.00    +0.059 A 
ATOM      2  C   UNL     1      -2.382   4.344   0.254  0.00  0.00    +0.102 A 
ATOM      3  C   UNL     1      -2.312   5.808   0.375  0.00  0.00    +0.265 A 
ATOM      4  O   UNL     1      -3.327   6.471   0.483  0.00  0.00    -0.267 OA
ATOM      5  N   UNL     1      -1.101   6.401   0.358  0.00  0.00    -0.274 N 
ATOM      6  H   UNL     1      -1.038   7.396   0.435  0.00  0.00    +0.173 HD
ATOM      7  C   UNL     1       0.022   5.674   0.240  0.00  0.00    +0.327 A 
ATOM      8  O   UNL     1       1.093   6.249   0.229  0.00  0.00    -0.247 OA
ATOM      9  N   UNL     1       0.005   4.337   0.132  0.00  0.00    -0.307 N 
ATOM     10  H   UNL     1       0.869   3.841   0.045  0.00  0.00    +0.170 HD
ENDROOT
BRANCH   1  15
ATOM     11  C   UNL     1       2.002  -0.256   1.028  0.00  0.00    +0.001 C 
ATOM     12  C   UNL     1       0.690  -0.827   0.490  0.00  0.00    +0.004 C 
ATOM     13  C   UNL     1       0.105   0.133  -0.551  0.00  0.00    +0.031 C 
ATOM     14  C   UNL     1      -0.023   1.503   0.076  0.00  0.00    -0.068 C 
ATOM     15  C   UNL     1      -1.173   2.177   0.019  0.00  0.00    +0.026 C 
ATOM     16  C   UNL     1       1.188   2.092   0.765  0.00  0.00    +0.031 C 
ATOM     17  C   UNL     1       1.733   1.061   1.759  0.00  0.00    +0.004 C 
ENDBRANCH   1  15
BRANCH   2  18
ATOM     18  C   UNL     1      -3.624   3.670   0.260  0.00  0.00    +0.266 C 
ATOM     19  O   UNL     1      -4.657   4.301   0.361  0.00  0.00    -0.295 OA
ENDBRANCH   2  18
TORSDOF 2
