REMARK  Name = ZINC51252354
REMARK  10 active torsions:
REMARK  status: ('A' for Active; 'I' for Inactive)
REMARK    1  A    between atoms: C_1  and  C_2
REMARK    2  A    between atoms: C_2  and  C_3
REMARK    3  A    between atoms: C_3  and  C_4
REMARK    4  A    between atoms: C_3  and  C_5
REMARK    5  A    between atoms: C_3  and  C_9
REMARK    6  A    between atoms: C_5  and  N_6
REMARK    7  A    between atoms: N_6  and  C_7
REMARK    8  A    between atoms: C_7  and  C_8
REMARK    9  A    between atoms: C_9  and  N_10
REMARK   10  A    between atoms: C_14  and  C_16
REMARK                            x       y       z     vdW  Elec       q    Type
REMARK                         _______ _______ _______ _____ _____    ______ ____
ROOT
ATOM      1  C   UNL     1      -2.537  -0.127   1.018  0.00  0.00    -0.074 C 
ENDROOT
BRANCH   1   2
ATOM      2  N   UNL     1      -1.897  -0.190   2.339  0.00  0.00    +0.382 N 
ATOM      3  C   UNL     1      -2.034  -1.554   2.893  0.00  0.00    -0.078 C 
ATOM      4  C   UNL     1      -2.233  -1.344   4.415  0.00  0.00    -0.020 C 
ATOM      5  C   UNL     1      -3.104  -0.060   4.443  0.00  0.00    -0.017 C 
ATOM      6  C   UNL     1      -2.557   0.758   3.256  0.00  0.00    -0.065 C 
ATOM      7  H   UNL     1      -0.919   0.044   2.255  0.00  0.00    -0.081 HD
BRANCH   6   8
ATOM      8  C   UNL     1      -3.707   1.464   2.535  0.00  0.00    -0.025 C 
ATOM      9  C   UNL     1      -3.155   2.586   1.631  0.00  0.00    +0.002 C 
ATOM     10  C   UNL     1      -4.203   3.720   1.750  0.00  0.00    +0.000 C 
ATOM     11  C   UNL     1      -4.612   3.652   3.242  0.00  0.00    +0.000 C 
ATOM     12  C   UNL     1      -4.633   2.142   3.560  0.00  0.00    +0.002 C 
ENDBRANCH   6   8
ENDBRANCH   1   2
BRANCH   1  13
ATOM     13  C   UNL     1      -1.753  -0.992   0.029  0.00  0.00    -0.062 C 
ATOM     14  C   UNL     1      -1.867  -2.462   0.436  0.00  0.00    +0.007 C 
BRANCH  13  16
ATOM     15  C   UNL     1      -0.167   0.898  -0.366  0.00  0.00    +0.004 C 
ATOM     16  C   UNL     1      -0.282  -0.573   0.040  0.00  0.00    -0.001 C 
ENDBRANCH  13  16
BRANCH  13  17
ATOM     17  C   UNL     1      -2.326  -0.806  -1.377  0.00  0.00    -0.078 C 
BRANCH  17  18
ATOM     18  N   UNL     1      -1.573  -1.636  -2.326  0.00  0.00    +0.379 N 
ATOM     19  H   UNL     1      -0.603  -1.360  -2.319  0.00  0.00    -0.086 HD
ATOM     20  H   UNL     1      -1.649  -2.606  -2.058  0.00  0.00    -0.086 HD
BRANCH  18  21
ATOM     21  C   UNL     1      -2.123  -1.458  -3.677  0.00  0.00    -0.086 C 
ATOM     22  C   UNL     1      -1.339  -2.323  -4.665  0.00  0.00    -0.017 C 
ENDBRANCH  18  21
ENDBRANCH  17  18
ENDBRANCH  13  17
ENDBRANCH   1  13
TORSDOF 7
