REMARK  Name = ZINC29414065
REMARK  7 active torsions:
REMARK  status: ('A' for Active; 'I' for Inactive)
REMARK    1  A    between atoms: C_1  and  C_2
REMARK    2  A    between atoms: C_8  and  N_10
REMARK    3  A    between atoms: C_14  and  C_16
REMARK    4  A    between atoms: C_16  and  N_17
REMARK    5  A    between atoms: N_17  and  C_18
REMARK    6  A    between atoms: N_17  and  C_19
REMARK    7  A    between atoms: N_17  and  C_20
REMARK                            x       y       z     vdW  Elec       q    Type
REMARK                         _______ _______ _______ _____ _____    ______ ____
ROOT
ATOM      1  N   UNL     1       0.076   0.011  -2.428  0.00  0.00    -0.296 N 
ATOM      2  C   UNL     1       0.694   0.080  -3.624  0.00  0.00    +0.306 C 
ATOM      3  O   UNL     1       1.818  -0.364  -3.753  0.00  0.00    -0.252 OA
ATOM      4  N   UNL     1       0.065   0.640  -4.677  0.00  0.00    -0.242 N 
ATOM      5  C   UNL     1       0.683   0.708  -5.872  0.00  0.00    +0.204 C 
ATOM      6  O   UNL     1       1.805   0.265  -6.001  0.00  0.00    -0.277 OA
ATOM      7  H   UNL     1      -0.942   0.413  -2.312  0.00  0.00    +0.151 HD
ATOM      8  H   UNL     1      -0.952   1.041  -4.560  0.00  0.00    +0.159 HD
ENDROOT
BRANCH   1  15
ATOM      9  C   UNL     1       0.393   1.487   0.044  0.00  0.00    +0.009 C 
ATOM     10  C   UNL     1       0.184  -0.029   0.015  0.00  0.00    +0.006 C 
ATOM     11  C   UNL     1       0.897  -0.664   1.209  0.00  0.00    +0.005 C 
ATOM     12  C   UNL     1       0.689  -2.180   1.180  0.00  0.00    +0.000 C 
ATOM     13  C   UNL     1       1.264  -2.749  -0.119  0.00  0.00    +0.002 C 
ATOM     14  C   UNL     1       0.550  -2.113  -1.313  0.00  0.00    +0.022 C 
ATOM     15  C   UNL     1       0.759  -0.597  -1.284  0.00  0.00    +0.077 C 
ENDBRANCH   1  15
BRANCH   5  16
ATOM     16  C   UNL     1      -0.019   1.334  -7.049  0.00  0.00    +0.022 C 
BRANCH  16  17
ATOM     17  N   UNL     1       0.904   1.404  -8.190  0.00  0.00    +0.384 N 
ATOM     18  C   UNL     1       0.233   2.056  -9.323  0.00  0.00    -0.091 C 
ATOM     19  C   UNL     1       2.092   2.180  -7.812  0.00  0.00    -0.091 C 
BRANCH  17  20
ATOM     20  C   UNL     1       1.309   0.046  -8.576  0.00  0.00    -0.065 C 
ATOM     21  C   UNL     1       2.268   0.084  -9.792  0.00  0.00    -0.015 C 
ATOM     22  C   UNL     1       2.113  -1.308 -10.439  0.00  0.00    -0.002 C 
ATOM     23  C   UNL     1       0.734  -1.841 -10.012  0.00  0.00    -0.002 C 
ATOM     24  C   UNL     1       0.099  -0.754  -9.120  0.00  0.00    -0.015 C 
ENDBRANCH  17  20
ENDBRANCH  16  17
ENDBRANCH   5  16
TORSDOF 4
