REMARK  Name = ZINC19145428
REMARK  8 active torsions:
REMARK  status: ('A' for Active; 'I' for Inactive)
REMARK    1  A    between atoms: C_1  and  C_2
REMARK    2  A    between atoms: C_2  and  C_3
REMARK    3  A    between atoms: C_2  and  C_4
REMARK    4  A    between atoms: C_8  and  C_11
REMARK    5  A    between atoms: C_15  and  O_17
REMARK    6  A    between atoms: O_17  and  C_18
REMARK    7  A    between atoms: C_18  and  C_19
REMARK    8  A    between atoms: N_22  and  C_24
REMARK                            x       y       z     vdW  Elec       q    Type
REMARK                         _______ _______ _______ _____ _____    ______ ____
ROOT
ATOM      1  C   UNL     1      -1.412  -0.526   0.013  0.00  0.00    +0.091 A 
ATOM      2  C   UNL     1      -1.988  -1.341  -0.969  0.00  0.00    +0.109 A 
ATOM      3  C   UNL     1      -3.301  -1.597  -0.584  0.00  0.00    +0.177 A 
ATOM      4  N   UNL     1      -3.855  -2.378  -1.522  0.00  0.00    -0.209 NA
ATOM      5  C   UNL     1      -2.980  -2.630  -2.467  0.00  0.00    +0.141 A 
ATOM      6  N   UNL     1      -1.801  -2.005  -2.169  0.00  0.00    -0.335 N 
ATOM      7  H   UNL     1      -0.988  -2.025  -2.698  0.00  0.00    +0.167 HD
ATOM      8  N   UNL     1      -3.496  -0.943   0.605  0.00  0.00    -0.248 N 
ATOM      9  N   UNL     1      -2.301  -0.296   0.942  0.00  0.00    -0.172 NA
ATOM     10  C   UNL     1      -4.735  -0.928   1.386  0.00  0.00    +0.174 C 
ENDROOT
BRANCH   5  11
ATOM     11  C   UNL     1      -3.230  -3.458  -3.667  0.00  0.00    +0.021 A 
ATOM     12  C   UNL     1      -2.215  -3.659  -4.604  0.00  0.00    +0.012 A 
ATOM     13  C   UNL     1      -2.452  -4.432  -5.721  0.00  0.00    +0.004 A 
ATOM     14  C   UNL     1      -3.693  -5.010  -5.917  0.00  0.00    +0.046 A 
ATOM     15  C   UNL     1      -4.708  -4.816  -4.991  0.00  0.00    +0.122 A 
ATOM     16  C   UNL     1      -4.480  -4.045  -3.863  0.00  0.00    +0.057 A 
BRANCH  15  17
ATOM     17  O   UNL     1      -5.926  -5.385  -5.189  0.00  0.00    -0.483 OA
BRANCH  17  18
ATOM     18  C   UNL     1      -6.090  -6.171  -6.371  0.00  0.00    +0.324 C 
BRANCH  18  19
ATOM     19  C   UNL     1      -7.494  -6.718  -6.420  0.00  0.00    +0.248 C 
ATOM     20  O   UNL     1      -8.277  -6.460  -5.530  0.00  0.00    -0.272 OA
ATOM     21  N   UNL     1      -7.879  -7.494  -7.453  0.00  0.00    -0.327 N 
ATOM     22  H   UNL     1      -7.253  -7.700  -8.164  0.00  0.00    +0.145 HD
ATOM     23  H   UNL     1      -8.783  -7.845  -7.484  0.00  0.00    +0.145 HD
ENDBRANCH  18  19
ENDBRANCH  17  18
ENDBRANCH  15  17
ENDBRANCH   5  11
BRANCH   1  25
ATOM     24  C   UNL     1      -0.019   1.526   0.010  0.00  0.00    +0.014 C 
ATOM     25  C   UNL     1       0.002  -0.004   0.002  0.00  0.00    +0.035 C 
ATOM     26  C   UNL     1       0.742  -0.511   1.242  0.00  0.00    +0.014 C 
ENDBRANCH   1  25
TORSDOF 5
