REMARK  Name = ZINC39662011
REMARK  5 active torsions:
REMARK  status: ('A' for Active; 'I' for Inactive)
REMARK    1  A    between atoms: C_3  and  C_5
REMARK    2  A    between atoms: C_9  and  C_18
REMARK    3  A    between atoms: N_20  and  C_21
REMARK    4  A    between atoms: C_21  and  C_22
REMARK    5  A    between atoms: C_22  and  S_23
REMARK                            x       y       z     vdW  Elec       q    Type
REMARK                         _______ _______ _______ _____ _____    ______ ____
ROOT
ATOM      1  C   UNL     1       2.217  -0.792   0.391  0.00  0.00    +0.219 C 
ATOM      2  O   UNL     1       2.985  -0.363  -0.444  0.00  0.00    -0.275 OA
ATOM      3  N   UNL     1       2.283  -2.084   0.767  0.00  0.00    -0.300 N 
ATOM      4  C   UNL     1       1.433  -2.786   1.758  0.00  0.00    +0.121 C 
ATOM      5  C   UNL     1       1.185  -4.181   1.141  0.00  0.00    +0.100 C 
ATOM      6  C   UNL     1       2.363  -4.398   0.176  0.00  0.00    -0.004 C 
ATOM      7  C   UNL     1       3.217  -3.126   0.279  0.00  0.00    +0.115 C 
ATOM      8  C   UNL     1       1.852  -4.569  -1.251  0.00  0.00    -0.010 C 
ATOM      9  C   UNL     1       3.037  -4.841  -2.183  0.00  0.00    -0.082 C 
ATOM     10  N   UNL     1       3.739  -6.053  -1.744  0.00  0.00    +0.379 N 
ATOM     11  C   UNL     1       4.307  -5.846  -0.406  0.00  0.00    -0.082 C 
ATOM     12  C   UNL     1       3.176  -5.618   0.600  0.00  0.00    -0.010 C 
ATOM     13  H   UNL     1       3.090  -6.825  -1.717  0.00  0.00    -0.086 HD
ATOM     14  H   UNL     1       4.481  -6.264  -2.394  0.00  0.00    -0.086 HD
ENDROOT
BRANCH   1  17
ATOM     15  C   UNL     1      -0.295   1.544   0.490  0.00  0.00    +0.001 C 
ATOM     16  C   UNL     1       1.243   1.561   0.472  0.00  0.00    +0.013 C 
ATOM     17  C   UNL     1       1.188   0.121   1.007  0.00  0.00    +0.075 C 
ATOM     18  C   UNL     1      -0.200   0.015   0.353  0.00  0.00    +0.013 C 
ENDBRANCH   1  17
BRANCH   5  19
ATOM     19  C   UNL     1      -0.121  -4.199   0.390  0.00  0.00    +0.218 C 
ATOM     20  O   UNL     1      -0.530  -3.187  -0.138  0.00  0.00    -0.275 OA
ATOM     21  N   UNL     1      -0.835  -5.339   0.306  0.00  0.00    -0.314 N 
ATOM     22  H   UNL     1      -0.508  -6.148   0.729  0.00  0.00    +0.149 HD
BRANCH  21  23
ATOM     23  C   UNL     1      -2.105  -5.356  -0.424  0.00  0.00    +0.114 C 
BRANCH  23  24
ATOM     24  C   UNL     1      -2.707  -6.761  -0.367  0.00  0.00    +0.084 C 
BRANCH  24  25
ATOM     25  S   UNL     1      -4.280  -6.782  -1.270  0.00  0.00    -0.177 S 
ATOM     26  H   UNL     1      -4.707  -8.052  -1.151  0.00  0.00    +0.102 HD
ENDBRANCH  24  25
ENDBRANCH  23  24
ENDBRANCH  21  23
ENDBRANCH   5  19
TORSDOF 5
