REMARK  Name = ZINC51841923
REMARK  8 active torsions:
REMARK  status: ('A' for Active; 'I' for Inactive)
REMARK    1  A    between atoms: C_1  and  C_2
REMARK    2  A    between atoms: C_2  and  C_4
REMARK    3  A    between atoms: C_2  and  O_20
REMARK    4  A    between atoms: C_4  and  N_5
REMARK    5  A    between atoms: N_5  and  C_6
REMARK    6  A    between atoms: C_7  and  C_9
REMARK    7  A    between atoms: C_9  and  C_16
REMARK    8  A    between atoms: N_17  and  O_18
REMARK                            x       y       z     vdW  Elec       q    Type
REMARK                         _______ _______ _______ _____ _____    ______ ____
ROOT
ATOM      1  C   UNL     1      -0.396  -4.227   1.475  0.00  0.00    +0.105 C 
ATOM      2  C   UNL     1      -0.521  -4.783   0.082  0.00  0.00    +0.024 C 
ATOM      3  C   UNL     1      -0.965  -3.719  -0.940  0.00  0.00    +0.001 C 
ATOM      4  C   UNL     1      -2.073  -2.795  -0.398  0.00  0.00    +0.000 C 
ATOM      5  C   UNL     1      -3.119  -3.546   0.380  0.00  0.00    +0.000 C 
ATOM      6  C   UNL     1      -2.745  -3.499   1.876  0.00  0.00    +0.001 C 
ATOM      7  C   UNL     1      -1.722  -4.475   2.223  0.00  0.00    +0.024 C 
ENDROOT
BRANCH   1   8
ATOM      8  C   UNL     1       0.731  -4.916   2.200  0.00  0.00    +0.147 C 
ATOM      9  N   UNL     1       0.479  -5.665   3.222  0.00  0.00    -0.076 NA
ATOM     10  N   UNL     1       2.029  -4.748   1.773  0.00  0.00    -0.343 N 
ATOM     11  H   UNL     1       2.228  -4.124   1.057  0.00  0.00    +0.144 HD
ATOM     12  H   UNL     1       2.746  -5.253   2.188  0.00  0.00    +0.144 HD
BRANCH   9  13
ATOM     13  O   UNL     1       1.537  -6.313   3.903  0.00  0.00    -0.408 OA
ATOM     14  H   UNL     1       1.251  -6.851   4.654  0.00  0.00    +0.328 HD
ENDBRANCH   9  13
ENDBRANCH   1   8
BRANCH   1  17
ATOM     15  N   UNL     1      -0.250  -1.986   2.511  0.00  0.00    -0.301 N 
ATOM     16  C   UNL     1      -0.538  -2.613   3.803  0.00  0.00    +0.132 C 
ATOM     17  C   UNL     1      -0.123  -2.746   1.406  0.00  0.00    +0.229 C 
ATOM     18  O   UNL     1       0.211  -2.240   0.356  0.00  0.00    -0.275 OA
BRANCH  15  19
ATOM     19  C   UNL     1      -0.099  -0.531   2.420  0.00  0.00    +0.138 C 
BRANCH  19  21
ATOM     20  C   UNL     1       1.505   1.368   2.671  0.00  0.00    +0.039 C 
ATOM     21  C   UNL     1       1.368  -0.156   2.641  0.00  0.00    +0.129 C 
BRANCH  21  22
ATOM     22  O   UNL     1       2.161  -0.685   1.577  0.00  0.00    -0.391 OA
ATOM     23  H   UNL     1       3.104  -0.485   1.652  0.00  0.00    +0.210 HD
ENDBRANCH  21  22
ENDBRANCH  19  21
ENDBRANCH  15  19
ENDBRANCH   1  17
TORSDOF 6
