REMARK  Name = ZINC13722200
REMARK  12 active torsions:
REMARK  status: ('A' for Active; 'I' for Inactive)
REMARK    1  A    between atoms: C_1  and  C_2
REMARK    2  A    between atoms: C_2  and  C_3
REMARK    3  A    between atoms: C_2  and  C_4
REMARK    4  A    between atoms: C_4  and  N_52
REMARK    5  A    between atoms: C_5  and  C_6
REMARK    6  A    between atoms: C_5  and  N_52
REMARK    7  A    between atoms: C_7  and  O_27
REMARK    8  A    between atoms: C_15  and  C_17
REMARK    9  A    between atoms: C_20  and  O_25
REMARK   10  A    between atoms: C_21  and  O_23
REMARK   11  A    between atoms: O_23  and  C_24
REMARK   12  A    between atoms: O_25  and  C_26
REMARK                            x       y       z     vdW  Elec       q    Type
REMARK                         _______ _______ _______ _____ _____    ______ ____
ROOT
ATOM      1  C   UNL     1      -0.018   1.503   0.010  0.00  0.00    +0.020 A 
ATOM      2  C   UNL     1      -1.227   2.180   0.020  0.00  0.00    +0.122 A 
ATOM      3  C   UNL     1      -1.256   3.573   0.033  0.00  0.00    +0.046 A 
ATOM      4  C   UNL     1      -0.095   4.288   0.026  0.00  0.00    +0.015 A 
ATOM      5  C   UNL     1       1.139   3.620   0.011  0.00  0.00    +0.019 A 
ATOM      6  C   UNL     1       1.173   2.214   0.003  0.00  0.00    +0.144 A 
ATOM      7  O   UNL     1       2.352   1.553  -0.012  0.00  0.00    -0.421 OA
ATOM      8  C   UNL     1       3.521   2.216  -0.019  0.00  0.00    +0.345 A 
ATOM      9  O   UNL     1       4.569   1.597  -0.032  0.00  0.00    -0.245 OA
ATOM     10  C   UNL     1       3.538   3.681  -0.011  0.00  0.00    +0.067 A 
ATOM     11  C   UNL     1       2.350   4.359   0.004  0.00  0.00    +0.027 A 
ENDROOT
BRANCH  10  12
ATOM     12  C   UNL     1       4.824   4.417  -0.018  0.00  0.00    -0.007 A 
ATOM     13  C   UNL     1       5.036   5.443  -0.939  0.00  0.00    +0.012 A 
ATOM     14  C   UNL     1       6.234   6.129  -0.945  0.00  0.00    +0.050 A 
ATOM     15  C   UNL     1       7.228   5.800  -0.036  0.00  0.00    +0.162 A 
ATOM     16  C   UNL     1       7.022   4.776   0.885  0.00  0.00    +0.162 A 
ATOM     17  C   UNL     1       5.822   4.090   0.899  0.00  0.00    +0.058 A 
BRANCH  16  18
ATOM     18  O   UNL     1       7.999   4.456   1.776  0.00  0.00    -0.491 OA
ATOM     19  C   UNL     1       7.720   3.396   2.692  0.00  0.00    +0.277 C 
ENDBRANCH  16  18
BRANCH  15  20
ATOM     20  O   UNL     1       8.407   6.478  -0.045  0.00  0.00    -0.491 OA
ATOM     21  C   UNL     1       8.551   7.516  -1.017  0.00  0.00    +0.277 C 
ENDBRANCH  15  20
ENDBRANCH  10  12
BRANCH   2  22
ATOM     22  O   UNL     1      -2.391   1.481   0.021  0.00  0.00    -0.506 OA
ATOM     23  H   UNL     1      -2.724   1.273   0.905  0.00  0.00    +0.292 HD
ENDBRANCH   2  22
BRANCH   1  24
ATOM     24  C   UNL     1       0.002  -0.004   0.002  0.00  0.00    -0.039 C 
BRANCH  24  25
ATOM     25  N   UNL     1       0.022  -0.495   1.393  0.00  0.00    +0.382 N 
ATOM     26  H   UNL     1       0.860  -0.137   1.866  0.00  0.00    -0.085 HD
ATOM     27  H   UNL     1      -0.817  -0.160   1.882  0.00  0.00    -0.085 HD
BRANCH  25  28
ATOM     28  C   UNL     1       0.042  -1.970   1.415  0.00  0.00    -0.079 C 
BRANCH  28  30
ATOM     29  C   UNL     1      -1.244  -2.047   3.556  0.00  0.00    +0.005 C 
ATOM     30  C   UNL     1       0.062  -2.449   2.868  0.00  0.00    -0.034 C 
ATOM     31  C   UNL     1       0.209  -3.971   2.901  0.00  0.00    +0.005 C 
ENDBRANCH  28  30
ENDBRANCH  25  28
ENDBRANCH  24  25
ENDBRANCH   1  24
TORSDOF 8
