REMARK  Name = ZINC01435780
REMARK  7 active torsions:
REMARK  status: ('A' for Active; 'I' for Inactive)
REMARK    1  A    between atoms: C_1  and  C_2
REMARK    2  A    between atoms: C_2  and  C_32
REMARK    3  A    between atoms: C_6  and  C_23
REMARK    4  A    between atoms: C_8  and  C_21
REMARK    5  A    between atoms: C_9  and  N_20
REMARK    6  A    between atoms: N_10  and  C_11
REMARK    7  A    between atoms: C_15  and  N_17
REMARK                            x       y       z     vdW  Elec       q    Type
REMARK                         _______ _______ _______ _____ _____    ______ ____
ROOT
ATOM      1  C   UNL     1       3.539   5.587  -1.517  0.00  0.00    +0.011 C 
ATOM      2  C   UNL     1       3.587   5.782  -0.000  0.00  0.00    -0.023 C 
ATOM      3  C   UNL     1       2.322   5.199   0.633  0.00  0.00    +0.058 C 
ATOM      4  C   UNL     1       1.109   5.925   0.110  0.00  0.00    +0.025 C 
ATOM      5  C   UNL     1       1.180   7.223  -0.260  0.00  0.00    +0.026 C 
ATOM      6  C   UNL     1      -0.035   7.949  -0.781  0.00  0.00    +0.104 C 
ATOM      7  C   UNL     1      -1.296   7.216  -0.430  0.00  0.00    +0.077 C 
ATOM      8  C   UNL     1      -1.270   5.910  -0.061  0.00  0.00    +0.107 C 
ATOM      9  N   UNL     1      -0.071   5.236   0.008  0.00  0.00    -0.260 N 
ATOM     10  C   UNL     1       2.388   7.937  -0.167  0.00  0.00    +0.162 C 
ATOM     11  O   UNL     1       2.414   9.108  -0.490  0.00  0.00    -0.292 OA
ATOM     12  C   UNL     1       3.647   7.278   0.325  0.00  0.00    +0.086 C 
ATOM     13  C   UNL     1       4.822   5.082   0.570  0.00  0.00    +0.011 C 
ENDROOT
BRANCH   9  14
ATOM     14  C   UNL     1      -0.058   3.836  -0.022  0.00  0.00    +0.042 A 
ATOM     15  C   UNL     1      -0.143   3.114   1.162  0.00  0.00    +0.024 A 
ATOM     16  C   UNL     1      -0.131   1.734   1.129  0.00  0.00    +0.004 A 
ATOM     17  C   UNL     1      -0.033   1.070  -0.080  0.00  0.00    +0.033 A 
ATOM     18  C   UNL     1       0.057   1.786  -1.260  0.00  0.00    +0.128 A 
ATOM     19  C   UNL     1       0.040   3.167  -1.234  0.00  0.00    +0.056 A 
BRANCH  18  20
ATOM     20  N   UNL     1       0.168   1.072  -2.551  0.00  0.00    +0.056 N 
ATOM     21  O   UNL     1       0.179  -0.146  -2.575  0.00  0.00    -0.126 OA
ATOM     22  O   UNL     1       0.247   1.701  -3.591  0.00  0.00    -0.126 OA
ENDBRANCH  18  20
ENDBRANCH   9  14
BRANCH   6  23
ATOM     23  C   UNL     1       0.067   8.068  -2.279  0.00  0.00    +0.004 A 
ATOM     24  C   UNL     1       0.125   9.184  -3.045  0.00  0.00    +0.013 A 
ATOM     25  C   UNL     1       0.222   9.053  -4.418  0.00  0.00    +0.023 A 
ATOM     26  C   UNL     1       0.245   7.809  -4.958  0.00  0.00    +0.055 A 
ATOM     27  S   UNL     1       0.136   6.774  -3.507  0.00  0.00    -0.085 S 
ATOM     28 BR   UNL     1       0.362   7.302  -6.776  0.00  0.00    -0.043 Br
ENDBRANCH   6  23
BRANCH   8  29
ATOM     29  N   UNL     1      -2.441   5.259   0.246  0.00  0.00    -0.345 N 
ATOM     30  H   UNL     1      -2.416   4.354   0.595  0.00  0.00    +0.144 HD
ATOM     31  H   UNL     1      -3.292   5.705   0.114  0.00  0.00    +0.144 HD
ENDBRANCH   8  29
BRANCH   7  32
ATOM     32  C   UNL     1      -2.550   7.906  -0.487  0.00  0.00    +0.099 C 
ATOM     33  N   UNL     1      -3.544   8.454  -0.532  0.00  0.00    -0.191 NA
ENDBRANCH   7  32
TORSDOF 5
