REMARK  Name = ZINC27642406
REMARK  7 active torsions:
REMARK  status: ('A' for Active; 'I' for Inactive)
REMARK    1  A    between atoms: C_1  and  O_2
REMARK    2  A    between atoms: O_2  and  C_3
REMARK    3  A    between atoms: C_7  and  C_10
REMARK    4  A    between atoms: C_8  and  O_9
REMARK    5  A    between atoms: C_20  and  C_33
REMARK    6  A    between atoms: C_22  and  C_24
REMARK    7  A    between atoms: C_24  and  C_26
REMARK                            x       y       z     vdW  Elec       q    Type
REMARK                         _______ _______ _______ _____ _____    ______ ____
ROOT
ATOM      1  C   UNL     1      -2.666   0.993  -0.000  0.00  0.00    +0.074 C 
ATOM      2  C   UNL     1      -2.709   0.083   1.180  0.00  0.00    +0.033 A 
ATOM      3  C   UNL     1      -3.105  -1.205   1.252  0.00  0.00    +0.088 A 
ATOM      4  N   UNL     1      -3.037  -1.791   2.494  0.00  0.00    -0.311 N 
ATOM      5  H   UNL     1      -3.348  -2.838   2.626  0.00  0.00    +0.170 HD
ATOM      6  C   UNL     1      -2.590  -1.088   3.554  0.00  0.00    +0.289 A 
ATOM      7  O   UNL     1      -2.465  -1.448   4.712  0.00  0.00    -0.260 OA
ATOM      8  S   UNL     1      -2.239   0.459   2.851  0.00  0.00    -0.030 S 
ATOM      9  S   UNL     1      -3.677  -2.058  -0.203  0.00  0.00    -0.091 S 
ATOM     10  C   UNL     1      -3.910  -0.688  -1.378  0.00  0.00    +0.177 C 
ATOM     11  C   UNL     1      -2.672   0.215  -1.313  0.00  0.00    +0.097 C 
ENDROOT
BRANCH   1  16
ATOM     12  C   UNL     1      -0.342   3.980   0.082  0.00  0.00    +0.162 A 
ATOM     13  C   UNL     1       0.892   3.360   0.193  0.00  0.00    +0.049 A 
ATOM     14  C   UNL     1       0.971   1.981   0.244  0.00  0.00    +0.004 A 
ATOM     15  C   UNL     1      -0.180   1.217   0.185  0.00  0.00    +0.008 A 
ATOM     16  C   UNL     1      -1.414   1.829   0.070  0.00  0.00    +0.006 A 
ATOM     17  C   UNL     1      -1.500   3.211   0.024  0.00  0.00    +0.162 A 
BRANCH  12  19
ATOM     18  C   UNL     1       0.809   6.061   0.096  0.00  0.00    +0.277 C 
ATOM     19  O   UNL     1      -0.421   5.337   0.031  0.00  0.00    -0.491 OA
ENDBRANCH  12  19
BRANCH  17  20
ATOM     20  O   UNL     1      -2.714   3.815  -0.085  0.00  0.00    -0.503 OA
ATOM     21  H   UNL     1      -3.629   3.206  -0.131  0.00  0.00    +0.292 HD
ENDBRANCH  17  20
ENDBRANCH   1  16
BRANCH  10  22
ATOM     22  C   UNL     1      -4.068  -1.235  -2.773  0.00  0.00    +0.370 C 
ATOM     23  O   UNL     1      -3.092  -1.435  -3.458  0.00  0.00    -0.245 OA
ATOM     24  O   UNL     1      -5.292  -1.500  -3.256  0.00  0.00    -0.245 OA
ENDBRANCH  10  22
BRANCH  11  25
ATOM     25  C   UNL     1      -1.429  -0.632  -1.399  0.00  0.00    +0.169 C 
ATOM     26  O   UNL     1      -1.225  -1.496  -0.573  0.00  0.00    -0.292 OA
BRANCH  25  27
ATOM     27  C   UNL     1      -0.463  -0.412  -2.486  0.00  0.00    +0.018 A 
ATOM     28  C   UNL     1      -0.628   0.664  -3.365  0.00  0.00    +0.014 A 
ATOM     29  C   UNL     1       0.283   0.867  -4.378  0.00  0.00    +0.039 A 
ATOM     30  C   UNL     1       1.357   0.003  -4.533  0.00  0.00    +0.123 A 
ATOM     31  C   UNL     1       1.524  -1.068  -3.668  0.00  0.00    +0.039 A 
ATOM     32  C   UNL     1       0.622  -1.280  -2.648  0.00  0.00    +0.014 A 
ATOM     33  F   UNL     1       2.244   0.205  -5.532  0.00  0.00    -0.205 F 
ENDBRANCH  25  27
ENDBRANCH  11  25
TORSDOF 6
