REMARK  Name = ZINC67382420
REMARK  11 active torsions:
REMARK  status: ('A' for Active; 'I' for Inactive)
REMARK    1  A    between atoms: C_1  and  N_2
REMARK    2  A    between atoms: N_2  and  C_3
REMARK    3  A    between atoms: N_2  and  C_4
REMARK    4  A    between atoms: C_4  and  C_6
REMARK    5  A    between atoms: C_4  and  C_21
REMARK    6  A    between atoms: C_6  and  N_7
REMARK    7  A    between atoms: N_10  and  N_11
REMARK    8  A    between atoms: C_12  and  C_14
REMARK    9  A    between atoms: C_14  and  C_15
REMARK   10  A    between atoms: C_26  and  O_27
REMARK   11  A    between atoms: O_27  and  C_28
REMARK                            x       y       z     vdW  Elec       q    Type
REMARK                         _______ _______ _______ _____ _____    ______ ____
ROOT
ATOM      1  N   UNL     1      -0.964  -2.611   0.830  0.00  0.00    -0.299 N 
ATOM      2  C   UNL     1      -1.053  -3.951   0.934  0.00  0.00    +0.316 C 
ATOM      3  O   UNL     1      -1.722  -4.580   0.136  0.00  0.00    -0.251 OA
ATOM      4  N   UNL     1      -0.402  -4.596   1.922  0.00  0.00    -0.218 N 
ATOM      5  H   UNL     1      -0.430  -2.109   1.466  0.00  0.00    +0.150 HD
ATOM      6  H   UNL     1      -0.467  -5.561   1.997  0.00  0.00    +0.174 HD
ENDROOT
BRANCH   4   7
ATOM      7  N   UNL     1       0.368  -3.872   2.842  0.00  0.00    -0.233 N 
ATOM      8  C   UNL     1       1.019  -4.516   3.830  0.00  0.00    +0.229 C 
ATOM      9  O   UNL     1       0.939  -5.723   3.924  0.00  0.00    -0.274 OA
ATOM     10  H   UNL     1       0.433  -2.907   2.767  0.00  0.00    +0.173 HD
BRANCH   8  11
ATOM     11  C   UNL     1       1.848  -3.737   4.819  0.00  0.00    +0.101 C 
BRANCH  11  12
ATOM     12  C   UNL     1       2.475  -4.700   5.829  0.00  0.00    -0.002 C 
ATOM     13  C   UNL     1       1.371  -5.361   6.657  0.00  0.00    +0.004 C 
ATOM     14  C   UNL     1       1.999  -6.324   7.667  0.00  0.00    +0.000 C 
ATOM     15  C   UNL     1       2.938  -5.551   8.595  0.00  0.00    +0.000 C 
ATOM     16  C   UNL     1       4.042  -4.890   7.766  0.00  0.00    +0.000 C 
ATOM     17  C   UNL     1       3.414  -3.927   6.757  0.00  0.00    +0.004 C 
ENDBRANCH  11  12
ENDBRANCH   8  11
ENDBRANCH   4   7
BRANCH   1  18
ATOM     18  C   UNL     1      -1.671  -1.910  -0.245  0.00  0.00    +0.095 C 
BRANCH  18  19
ATOM     19  C   UNL     1      -1.510  -0.400  -0.062  0.00  0.00    -0.017 C 
BRANCH  19  20
ATOM     20  C   UNL     1      -0.062  -0.024  -0.246  0.00  0.00    -0.018 A 
ATOM     21  C   UNL     1       0.770   0.082   0.852  0.00  0.00    +0.005 A 
ATOM     22  C   UNL     1       2.098   0.427   0.683  0.00  0.00    +0.000 A 
ATOM     23  C   UNL     1       2.597   0.667  -0.584  0.00  0.00    +0.004 A 
ATOM     24  C   UNL     1       1.770   0.563  -1.685  0.00  0.00    +0.046 A 
ATOM     25  C   UNL     1       0.438   0.211  -1.519  0.00  0.00    +0.122 A 
BRANCH  25  26
ATOM     26  O   UNL     1      -0.377   0.102  -2.601  0.00  0.00    -0.495 OA
ATOM     27  C   UNL     1       0.205   0.358  -3.881  0.00  0.00    +0.277 C 
ENDBRANCH  25  26
ENDBRANCH  19  20
BRANCH  19  29
ATOM     28  C   UNL     1      -1.832   1.436   1.449  0.00  0.00    -0.096 C 
ATOM     29  N   UNL     1      -1.946  -0.020   1.288  0.00  0.00    +0.382 N 
ATOM     30  C   UNL     1      -3.344  -0.426   1.483  0.00  0.00    -0.096 C 
ATOM     31  H   UNL     1      -1.364  -0.480   1.972  0.00  0.00    -0.082 HD
ENDBRANCH  19  29
ENDBRANCH  18  19
ENDBRANCH   1  18
TORSDOF 8
