REMARK  Name = ZINC38018916
REMARK  12 active torsions:
REMARK  status: ('A' for Active; 'I' for Inactive)
REMARK    1  A    between atoms: C_1  and  C_2
REMARK    2  A    between atoms: C_2  and  C_3
REMARK    3  A    between atoms: C_2  and  C_4
REMARK    4  A    between atoms: C_4  and  C_5
REMARK    5  A    between atoms: C_5  and  C_6
REMARK    6  A    between atoms: C_5  and  N_10
REMARK    7  A    between atoms: C_6  and  C_7
REMARK    8  A    between atoms: C_7  and  C_8
REMARK    9  A    between atoms: C_7  and  C_9
REMARK   10  A    between atoms: N_10  and  C_11
REMARK   11  A    between atoms: C_11  and  C_12
REMARK   12  A    between atoms: N_21  and  C_22
REMARK                            x       y       z     vdW  Elec       q    Type
REMARK                         _______ _______ _______ _____ _____    ______ ____
ROOT
ATOM      1  N   UNL     1      -2.174   1.013  -1.805  0.00  0.00    +0.381 N 
ATOM      2  H   UNL     1      -2.583   1.454  -0.994  0.00  0.00    -0.086 HD
ATOM      3  H   UNL     1      -1.190   1.232  -1.846  0.00  0.00    -0.086 HD
ENDROOT
BRANCH   1   4
ATOM      4  C   UNL     1      -2.349  -0.442  -1.712  0.00  0.00    -0.071 C 
BRANCH   4   5
ATOM      5  C   UNL     1      -3.835  -0.786  -1.829  0.00  0.00    -0.013 C 
BRANCH   5   7
ATOM      6  C   UNL     1      -4.942   1.250  -0.895  0.00  0.00    +0.007 C 
ATOM      7  C   UNL     1      -4.587  -0.214  -0.625  0.00  0.00    -0.019 C 
ATOM      8  C   UNL     1      -5.870  -1.016  -0.397  0.00  0.00    +0.007 C 
ENDBRANCH   5   7
ENDBRANCH   4   5
BRANCH   4   9
ATOM      9  C   UNL     1      -1.577  -1.122  -2.845  0.00  0.00    -0.013 C 
BRANCH   9  10
ATOM     10  C   UNL     1      -1.675  -2.641  -2.689  0.00  0.00    -0.019 C 
ATOM     11  C   UNL     1      -1.006  -3.320  -3.885  0.00  0.00    +0.007 C 
ATOM     12  C   UNL     1      -0.970  -3.067  -1.400  0.00  0.00    +0.007 C 
ENDBRANCH   9  10
ENDBRANCH   4   9
ENDBRANCH   1   4
BRANCH   1  13
ATOM     13  C   UNL     1      -2.837   1.510  -3.018  0.00  0.00    -0.079 C 
BRANCH  13  14
ATOM     14  C   UNL     1      -2.679   3.029  -3.101  0.00  0.00    -0.031 C 
ATOM     15  C   UNL     1      -1.192   3.382  -3.199  0.00  0.00    -0.014 C 
ATOM     16  C   UNL     1      -0.644   2.859  -4.537  0.00  0.00    -0.068 C 
ATOM     17  C   UNL     1      -1.103   1.391  -4.694  0.00  0.00    -0.017 C 
ATOM     18  C   UNL     1      -2.477   1.479  -5.390  0.00  0.00    -0.017 C 
ATOM     19  C   UNL     1      -2.724   2.992  -5.589  0.00  0.00    -0.068 C 
ATOM     20  C   UNL     1      -3.417   3.552  -4.337  0.00  0.00    -0.014 C 
ATOM     21  N   UNL     1      -1.349   3.595  -5.620  0.00  0.00    +0.382 N 
ATOM     22  C   UNL     1      -0.705   3.348  -6.917  0.00  0.00    -0.095 C 
ATOM     23  H   UNL     1      -1.377   4.583  -5.418  0.00  0.00    -0.081 HD
ENDBRANCH  13  14
ENDBRANCH   1  13
TORSDOF 7
