REMARK  Name = ZINC64612586
REMARK  6 active torsions:
REMARK  status: ('A' for Active; 'I' for Inactive)
REMARK    1  A    between atoms: C_1  and  C_2
REMARK    2  A    between atoms: C_6  and  C_8
REMARK    3  A    between atoms: C_11  and  C_15
REMARK    4  A    between atoms: C_16  and  N_23
REMARK    5  A    between atoms: C_19  and  S_21
REMARK    6  A    between atoms: S_21  and  C_22
REMARK                            x       y       z     vdW  Elec       q    Type
REMARK                         _______ _______ _______ _____ _____    ______ ____
ROOT
ATOM      1  C   UNL     1       0.054  -2.845   2.489  0.00  0.00    +0.180 C 
ATOM      2  N   UNL     1       0.810  -4.117   2.341  0.00  0.00    -0.266 NA
ATOM      3  C   UNL     1       1.253  -4.395   3.732  0.00  0.00    +0.244 C 
ATOM      4  O   UNL     1       1.575  -3.104   4.282  0.00  0.00    -0.274 OA
ATOM      5  N   UNL     1       0.816  -2.100   3.518  0.00  0.00    -0.177 NA
ATOM      6  H   UNL     1       0.214  -4.854   1.997  0.00  0.00    +0.127 HD
ATOM      7  H   UNL     1       0.196  -1.578   4.119  0.00  0.00    +0.156 HD
ENDROOT
BRANCH   1  13
ATOM      8  C   UNL     1      -0.018   1.503   0.010  0.00  0.00    +0.044 C 
ATOM      9  C   UNL     1       0.002  -0.004   0.002  0.00  0.00    -0.050 A 
ATOM     10  C   UNL     1       0.006  -0.689  -1.199  0.00  0.00    +0.003 A 
ATOM     11  C   UNL     1       0.025  -2.071  -1.207  0.00  0.00    +0.001 A 
ATOM     12  C   UNL     1       0.040  -2.768  -0.013  0.00  0.00    +0.006 A 
ATOM     13  C   UNL     1       0.037  -2.084   1.188  0.00  0.00    -0.014 A 
ATOM     14  C   UNL     1       0.023  -0.702   1.195  0.00  0.00    +0.010 A 
ENDBRANCH   1  13
BRANCH   3  15
ATOM     15  C   UNL     1       2.469  -5.285   3.728  0.00  0.00    +0.050 C 
ATOM     16  C   UNL     1       3.230  -5.640   2.681  0.00  0.00    +0.116 C 
ATOM     17  N   UNL     1       4.239  -6.454   3.079  0.00  0.00    -0.267 N 
ATOM     18  N   UNL     1       4.252  -6.697   4.288  0.00  0.00    -0.192 NA
ATOM     19  C   UNL     1       3.124  -5.982   4.907  0.00  0.00    +0.216 C 
ATOM     20  H   UNL     1       4.895  -6.816   2.464  0.00  0.00    +0.190 HD
BRANCH  16  21
ATOM     21  N   UNL     1       3.013  -5.228   1.364  0.00  0.00    -0.343 N 
ATOM     22  H   UNL     1       2.268  -4.643   1.155  0.00  0.00    +0.144 HD
ATOM     23  H   UNL     1       3.607  -5.527   0.658  0.00  0.00    +0.144 HD
ENDBRANCH  16  21
BRANCH  19  24
ATOM     24  S   UNL     1       1.973  -7.152   5.678  0.00  0.00    -0.131 S 
ATOM     25  C   UNL     1       2.973  -8.643   5.941  0.00  0.00    +0.087 C 
ENDBRANCH  19  24
ENDBRANCH   3  15
TORSDOF 4
