REMARK  Name = ZINC21336845
REMARK  4 active torsions:
REMARK  status: ('A' for Active; 'I' for Inactive)
REMARK    1  A    between atoms: N_12  and  C_16
REMARK    2  A    between atoms: C_16  and  C_17
REMARK    3  A    between atoms: N_19  and  C_20
REMARK    4  A    between atoms: C_23  and  C_26
REMARK                            x       y       z     vdW  Elec       q    Type
REMARK                         _______ _______ _______ _____ _____    ______ ____
ROOT
ATOM      1  C   UNL     1      -2.244   4.425  -1.383  0.00  0.00    +0.235 C 
ATOM      2  O   UNL     1      -1.855   3.756  -2.317  0.00  0.00    -0.274 OA
ATOM      3  N   UNL     1      -3.003   5.516  -1.606  0.00  0.00    -0.284 N 
ATOM      4  H   UNL     1      -3.428   6.073  -0.758  0.00  0.00    +0.155 HD
ENDROOT
BRANCH   3   5
ATOM      5  C   UNL     1      -3.249   5.941  -2.916  0.00  0.00    +0.033 A 
ATOM      6  C   UNL     1      -2.278   5.772  -3.895  0.00  0.00    +0.024 A 
ATOM      7  C   UNL     1      -2.521   6.186  -5.188  0.00  0.00    +0.012 A 
ATOM      8  C   UNL     1      -3.738   6.783  -5.510  0.00  0.00    +0.002 A 
ATOM      9  C   UNL     1      -4.709   6.956  -4.525  0.00  0.00    +0.012 A 
ATOM     10  C   UNL     1      -4.464   6.536  -3.235  0.00  0.00    +0.024 A 
BRANCH   8  11
ATOM     11  C   UNL     1      -4.000   7.233  -6.899  0.00  0.00    +0.090 A 
ATOM     12  C   UNL     1      -3.146   7.125  -7.945  0.00  0.00    +0.121 A 
ATOM     13  N   UNL     1      -3.776   7.665  -9.061  0.00  0.00    -0.300 N 
ATOM     14  C   UNL     1      -3.499   7.874 -10.395  0.00  0.00    +0.100 A 
ATOM     15  C   UNL     1      -4.394   8.450 -11.196  0.00  0.00    +0.067 A 
ATOM     16  S   UNL     1      -5.751   8.754 -10.075  0.00  0.00    -0.058 S 
ATOM     17  C   UNL     1      -5.003   8.078  -8.611  0.00  0.00    +0.178 A 
ATOM     18  N   UNL     1      -5.133   7.817  -7.343  0.00  0.00    -0.221 NA
ENDBRANCH   8  11
ENDBRANCH   3   5
BRANCH   1  19
ATOM     19  C   UNL     1      -1.879   4.035   0.026  0.00  0.00    +0.214 C 
BRANCH  19  31
ATOM     20  C   UNL     1       3.651   0.441   2.839  0.00  0.00    +0.000 A 
ATOM     21  C   UNL     1       2.358   0.583   3.307  0.00  0.00    +0.000 A 
ATOM     22  C   UNL     1       1.337   0.884   2.428  0.00  0.00    +0.006 A 
ATOM     23  C   UNL     1       1.601   1.045   1.077  0.00  0.00    -0.012 A 
ATOM     24  C   UNL     1       2.897   0.903   0.610  0.00  0.00    -0.042 A 
ATOM     25  C   UNL     1       3.918   0.601   1.494  0.00  0.00    +0.004 A 
ATOM     26  C   UNL     1       2.929   1.127  -0.887  0.00  0.00    +0.038 C 
ATOM     27  C   UNL     1       1.460   1.001  -1.349  0.00  0.00    +0.045 C 
ATOM     28  C   UNL     1       0.689   1.369  -0.075  0.00  0.00    +0.138 C 
ATOM     29  C   UNL     1       0.292   2.823  -0.078  0.00  0.00    +0.251 C 
ATOM     30  O   UNL     1       1.027   3.786  -0.138  0.00  0.00    -0.272 OA
ATOM     31  N   UNL     1      -1.056   2.824   0.001  0.00  0.00    -0.215 N 
ATOM     32  C   UNL     1      -1.548   1.578   0.046  0.00  0.00    +0.310 C 
ATOM     33  O   UNL     1      -2.734   1.321   0.113  0.00  0.00    -0.252 OA
ATOM     34  N   UNL     1      -0.578   0.642   0.013  0.00  0.00    -0.281 N 
ATOM     35  H   UNL     1      -0.580  -0.458   0.037  0.00  0.00    +0.152 HD
ENDBRANCH  19  31
ENDBRANCH   1  19
TORSDOF 4
