REMARK  Name = ZINC46367466
REMARK  11 active torsions:
REMARK  status: ('A' for Active; 'I' for Inactive)
REMARK    1  A    between atoms: C_1  and  C_2
REMARK    2  A    between atoms: N_7  and  C_9
REMARK    3  A    between atoms: C_9  and  C_11
REMARK    4  A    between atoms: C_9  and  C_12
REMARK    5  A    between atoms: C_12  and  N_13
REMARK    6  A    between atoms: N_16  and  N_17
REMARK    7  A    between atoms: C_18  and  O_20
REMARK    8  A    between atoms: O_20  and  C_21
REMARK    9  A    between atoms: C_21  and  C_22
REMARK   10  A    between atoms: C_21  and  C_23
REMARK   11  A    between atoms: C_21  and  C_24
REMARK                            x       y       z     vdW  Elec       q    Type
REMARK                         _______ _______ _______ _____ _____    ______ ____
ROOT
ATOM      1  N   UNL     1       3.065  -0.566   2.179  0.00  0.00    -0.300 N 
ATOM      2  C   UNL     1       4.245   0.042   1.946  0.00  0.00    +0.316 C 
ATOM      3  O   UNL     1       5.250  -0.623   1.785  0.00  0.00    -0.251 OA
ATOM      4  N   UNL     1       4.311   1.387   1.890  0.00  0.00    -0.216 N 
ATOM      5  H   UNL     1       2.263  -0.035   2.308  0.00  0.00    +0.150 HD
ATOM      6  H   UNL     1       5.160   1.824   1.722  0.00  0.00    +0.174 HD
ENDROOT
BRANCH   4   7
ATOM      7  N   UNL     1       3.153   2.153   2.076  0.00  0.00    -0.198 N 
ATOM      8  C   UNL     1       3.219   3.498   2.021  0.00  0.00    +0.417 C 
ATOM      9  O   UNL     1       2.215   4.163   2.181  0.00  0.00    -0.225 OA
ATOM     10  H   UNL     1       2.304   1.716   2.244  0.00  0.00    +0.176 HD
BRANCH   8  11
ATOM     11  O   UNL     1       4.398   4.105   1.787  0.00  0.00    -0.444 OA
BRANCH  11  12
ATOM     12  C   UNL     1       4.394   5.534   1.742  0.00  0.00    +0.107 C 
ATOM     13  C   UNL     1       3.906   6.085   3.083  0.00  0.00    +0.055 C 
ATOM     14  C   UNL     1       5.813   6.039   1.468  0.00  0.00    +0.055 C 
ATOM     15  C   UNL     1       3.461   6.006   0.626  0.00  0.00    +0.055 C 
ENDBRANCH  11  12
ENDBRANCH   8  11
ENDBRANCH   4   7
BRANCH   1  16
ATOM     16  C   UNL     1       2.993  -2.028   2.239  0.00  0.00    +0.090 C 
BRANCH  16  17
ATOM     17  C   UNL     1       1.532  -2.462   2.378  0.00  0.00    -0.054 C 
ATOM     18  C   UNL     1       1.446  -3.988   2.322  0.00  0.00    -0.012 C 
BRANCH  17  24
ATOM     19  C   UNL     1      -2.991  -1.831   0.615  0.00  0.00    +0.005 C 
ATOM     20  C   UNL     1      -1.510  -1.518   0.393  0.00  0.00    -0.031 C 
ATOM     21  C   UNL     1      -1.072  -2.058  -0.971  0.00  0.00    -0.001 C 
ATOM     22  C   UNL     1       0.429  -1.810  -1.150  0.00  0.00    -0.018 C 
ATOM     23  C   UNL     1       1.190  -2.464   0.005  0.00  0.00    -0.078 C 
ATOM     24  N   UNL     1       0.745  -1.886   1.279  0.00  0.00    +0.383 N 
ATOM     25  C   UNL     1      -0.677  -2.182   1.492  0.00  0.00    -0.075 C 
ATOM     26  H   UNL     1       0.879  -0.887   1.259  0.00  0.00    -0.081 HD
ENDBRANCH  17  24
ENDBRANCH  16  17
ENDBRANCH   1  16
TORSDOF 6
