REMARK  Name = ZINC52335413
REMARK  6 active torsions:
REMARK  status: ('A' for Active; 'I' for Inactive)
REMARK    1  A    between atoms: C_1  and  C_2
REMARK    2  A    between atoms: C_2  and  C_3
REMARK    3  A    between atoms: C_3  and  C_5
REMARK    4  A    between atoms: C_3  and  N_11
REMARK    5  A    between atoms: N_11  and  C_12
REMARK    6  A    between atoms: C_20  and  O_22
REMARK                            x       y       z     vdW  Elec       q    Type
REMARK                         _______ _______ _______ _____ _____    ______ ____
ROOT
ATOM      1  N   UNL     1       2.064  -0.192   1.310  0.00  0.00    +0.388 N 
ATOM      2  H   UNL     1       2.406  -0.718   2.101  0.00  0.00    -0.084 HD
ATOM      3  H   UNL     1       2.626  -0.400   0.499  0.00  0.00    -0.084 HD
ENDROOT
BRANCH   1   4
ATOM      4  C   UNL     1       2.145   1.245   1.606  0.00  0.00    +0.001 C 
ATOM      5  C   UNL     1       1.576   1.553   3.011  0.00  0.00    +0.218 C 
ATOM      6  O   UNL     1       2.744   1.496   3.848  0.00  0.00    -0.493 OA
ATOM      7  C   UNL     1       3.842   1.816   3.110  0.00  0.00    +0.126 A 
ATOM      8  C   UNL     1       3.589   1.688   1.748  0.00  0.00    -0.016 A 
ATOM      9  C   UNL     1       4.570   1.952   0.818  0.00  0.00    +0.009 A 
ATOM     10  C   UNL     1       5.826   2.357   1.232  0.00  0.00    +0.046 A 
ATOM     11  C   UNL     1       6.092   2.495   2.586  0.00  0.00    +0.120 A 
ATOM     12  C   UNL     1       5.105   2.227   3.523  0.00  0.00    +0.091 A 
BRANCH  11  13
ATOM     13  O   UNL     1       7.324   2.897   2.997  0.00  0.00    -0.507 OA
ATOM     14  H   UNL     1       7.418   3.855   3.081  0.00  0.00    +0.292 HD
ENDBRANCH  11  13
ENDBRANCH   1   4
BRANCH   1  15
ATOM     15  C   UNL     1       0.666  -0.558   1.046  0.00  0.00    -0.068 C 
BRANCH  15  16
ATOM     16  C   UNL     1       0.561  -2.075   0.871  0.00  0.00    -0.025 C 
ATOM     17  C   UNL     1       1.038  -2.770   2.148  0.00  0.00    +0.002 C 
ATOM     18  C   UNL     1       0.933  -4.286   1.973  0.00  0.00    +0.000 C 
ATOM     19  C   UNL     1      -0.522  -4.668   1.697  0.00  0.00    +0.000 C 
ATOM     20  C   UNL     1      -0.999  -3.973   0.420  0.00  0.00    +0.000 C 
ATOM     21  C   UNL     1      -0.894  -2.457   0.595  0.00  0.00    +0.002 C 
ENDBRANCH  15  16
BRANCH  15  23
ATOM     22  C   UNL     1       1.111  -0.241  -1.392  0.00  0.00    +0.002 C 
ATOM     23  C   UNL     1       0.189   0.137  -0.231  0.00  0.00    -0.019 C 
ENDBRANCH  15  23
ENDBRANCH   1  15
TORSDOF 5
