REMARK  Name = ZINC43824061
REMARK  12 active torsions:
REMARK  status: ('A' for Active; 'I' for Inactive)
REMARK    1  A    between atoms: C_1  and  C_2
REMARK    2  A    between atoms: C_2  and  N_3
REMARK    3  A    between atoms: N_3  and  C_4
REMARK    4  A    between atoms: N_3  and  C_19
REMARK    5  A    between atoms: C_7  and  C_15
REMARK    6  A    between atoms: C_11  and  N_13
REMARK    7  A    between atoms: N_13  and  C_14
REMARK    8  A    between atoms: C_15  and  C_16
REMARK    9  A    between atoms: C_15  and  C_17
REMARK   10  A    between atoms: C_15  and  C_18
REMARK   11  A    between atoms: C_19  and  C_20
REMARK   12  A    between atoms: C_19  and  C_21
REMARK                            x       y       z     vdW  Elec       q    Type
REMARK                         _______ _______ _______ _____ _____    ______ ____
ROOT
ATOM      1  C   UNL     1       0.332  -2.026  -1.856  0.00  0.00    -0.082 C 
ATOM      2  C   UNL     1      -1.087  -2.301  -2.358  0.00  0.00    -0.013 C 
ATOM      3  C   UNL     1      -1.300  -1.596  -3.699  0.00  0.00    -0.007 C 
ATOM      4  C   UNL     1      -0.287  -2.122  -4.718  0.00  0.00    +0.002 C 
ATOM      5  C   UNL     1       1.131  -1.847  -4.216  0.00  0.00    -0.017 C 
ATOM      6  C   UNL     1       1.344  -2.552  -2.875  0.00  0.00    -0.086 C 
ENDROOT
BRANCH   6   7
ATOM      7  N   UNL     1       1.158  -3.999  -3.048  0.00  0.00    +0.378 N 
ATOM      8  C   UNL     1       2.205  -4.525  -3.934  0.00  0.00    -0.100 C 
ATOM      9  H   UNL     1       1.216  -4.456  -2.150  0.00  0.00    -0.086 HD
ATOM     10  H   UNL     1       0.252  -4.175  -3.457  0.00  0.00    -0.086 HD
ENDBRANCH   6   7
BRANCH   3  11
ATOM     11  C   UNL     1      -2.719  -1.871  -4.200  0.00  0.00    -0.035 C 
ATOM     12  C   UNL     1      -3.731  -1.345  -3.181  0.00  0.00    +0.011 C 
ATOM     13  C   UNL     1      -2.931  -1.165  -5.541  0.00  0.00    +0.011 C 
ATOM     14  C   UNL     1      -2.913  -3.378  -4.381  0.00  0.00    +0.011 C 
ENDBRANCH   3  11
BRANCH   1  15
ATOM     15  N   UNL     1       0.518  -0.579  -1.683  0.00  0.00    +0.382 N 
ATOM     16  H   UNL     1       0.284  -0.105  -2.542  0.00  0.00    -0.081 HD
BRANCH  15  17
ATOM     17  C   UNL     1       1.919  -0.304  -1.337  0.00  0.00    -0.075 C 
ATOM     18  C   UNL     1       2.107   1.201  -1.132  0.00  0.00    -0.014 C 
ATOM     19  C   UNL     1       2.281  -1.044  -0.048  0.00  0.00    -0.014 C 
ENDBRANCH  15  17
BRANCH  15  21
ATOM     20  C   UNL     1      -0.662   1.385  -0.819  0.00  0.00    -0.017 C 
ATOM     21  C   UNL     1      -0.356  -0.099  -0.604  0.00  0.00    -0.082 C 
ENDBRANCH  15  21
ENDBRANCH   1  15
TORSDOF 5
