REMARK  Name = ZINC67131344
REMARK  7 active torsions:
REMARK  status: ('A' for Active; 'I' for Inactive)
REMARK    1  A    between atoms: C_4  and  C_7
REMARK    2  A    between atoms: C_10  and  C_12
REMARK    3  A    between atoms: C_12  and  N_13
REMARK    4  A    between atoms: N_13  and  C_14
REMARK    5  A    between atoms: C_14  and  C_15
REMARK    6  A    between atoms: C_15  and  C_16
REMARK    7  A    between atoms: C_16  and  N_17
REMARK                            x       y       z     vdW  Elec       q    Type
REMARK                         _______ _______ _______ _____ _____    ______ ____
ROOT
ATOM      1  N   UNL     1       7.174  -3.815   1.289  0.00  0.00    +0.382 N 
ATOM      2  H   UNL     1       7.551  -3.012   1.770  0.00  0.00    -0.085 HD
ATOM      3  H   UNL     1       6.346  -4.136   1.768  0.00  0.00    -0.085 HD
ENDROOT
BRANCH   1   4
ATOM      4  C   UNL     1       6.829  -3.442  -0.089  0.00  0.00    -0.038 C 
BRANCH   4   8
ATOM      5  C   UNL     1       3.696  -0.685  -0.037  0.00  0.00    +0.108 A 
ATOM      6  N   UNL     1       4.929  -0.199  -0.041  0.00  0.00    -0.247 NA
ATOM      7  C   UNL     1       5.974  -0.992  -0.057  0.00  0.00    +0.120 A 
ATOM      8  C   UNL     1       5.801  -2.340  -0.070  0.00  0.00    -0.007 A 
ATOM      9  S   UNL     1       4.016  -2.444  -0.050  0.00  0.00    -0.074 S 
BRANCH   5  13
ATOM     10  C   UNL     1      -0.017   1.379   0.010  0.00  0.00    +0.000 A 
ATOM     11  C   UNL     1       1.168   2.093   0.002  0.00  0.00    +0.001 A 
ATOM     12  C   UNL     1       2.377   1.429  -0.013  0.00  0.00    +0.010 A 
ATOM     13  C   UNL     1       2.403   0.034  -0.021  0.00  0.00    +0.007 A 
ATOM     14  C   UNL     1       1.204  -0.681  -0.013  0.00  0.00    +0.010 A 
ATOM     15  C   UNL     1       0.002  -0.004   0.002  0.00  0.00    +0.001 A 
ENDBRANCH   5  13
ENDBRANCH   4   8
ENDBRANCH   1   4
BRANCH   1  16
ATOM     16  C   UNL     1       8.176  -4.889   1.270  0.00  0.00    -0.081 C 
BRANCH  16  17
ATOM     17  C   UNL     1       8.535  -5.277   2.706  0.00  0.00    +0.000 C 
BRANCH  17  18
ATOM     18  C   UNL     1       9.578  -6.395   2.686  0.00  0.00    +0.116 C 
BRANCH  18  19
ATOM     19  N   UNL     1       9.922  -6.767   4.061  0.00  0.00    -0.224 N 
ATOM     20  C   UNL     1      10.914  -6.194   4.777  0.00  0.00    +0.246 C 
ATOM     21  O   UNL     1      11.661  -5.308   4.420  0.00  0.00    -0.273 OA
ATOM     22  C   UNL     1      10.892  -6.890   6.114  0.00  0.00    +0.113 C 
ATOM     23  C   UNL     1      10.633  -5.893   7.251  0.00  0.00    +0.035 C 
ATOM     24  C   UNL     1      11.480  -6.439   8.429  0.00  0.00    +0.003 C 
ATOM     25  C   UNL     1      12.753  -6.969   7.722  0.00  0.00    +0.003 C 
ATOM     26  C   UNL     1      12.228  -7.579   6.403  0.00  0.00    +0.035 C 
ATOM     27  N   UNL     1       9.803  -7.862   6.003  0.00  0.00    -0.285 N 
ATOM     28  C   UNL     1       9.289  -7.713   4.766  0.00  0.00    +0.309 C 
ATOM     29  O   UNL     1       8.358  -8.366   4.337  0.00  0.00    -0.252 OA
ATOM     30  H   UNL     1       9.508  -8.486   6.685  0.00  0.00    +0.151 HD
ENDBRANCH  18  19
ENDBRANCH  17  18
ENDBRANCH  16  17
ENDBRANCH   1  16
TORSDOF 7
