REMARK  Name = ZINC40801690
REMARK  8 active torsions:
REMARK  status: ('A' for Active; 'I' for Inactive)
REMARK    1  A    between atoms: C_1  and  C_2
REMARK    2  A    between atoms: C_2  and  O_3
REMARK    3  A    between atoms: O_3  and  C_4
REMARK    4  A    between atoms: C_9  and  N_10
REMARK    5  A    between atoms: C_12  and  N_29
REMARK    6  A    between atoms: C_13  and  N_17
REMARK    7  A    between atoms: N_17  and  C_18
REMARK    8  A    between atoms: C_26  and  C_28
REMARK                            x       y       z     vdW  Elec       q    Type
REMARK                         _______ _______ _______ _____ _____    ______ ____
ROOT
ATOM      1  N   UNL     1       1.903  -1.466  -3.458  0.00  0.00    -0.295 N 
ATOM      2  C   UNL     1       2.649  -1.982  -4.511  0.00  0.00    +0.149 A 
ATOM      3  C   UNL     1       3.286  -1.129  -5.415  0.00  0.00    +0.106 A 
ATOM      4  C   UNL     1       4.023  -1.700  -6.453  0.00  0.00    +0.149 A 
ATOM      5  N   UNL     1       4.091  -3.027  -6.542  0.00  0.00    -0.219 NA
ATOM      6  C   UNL     1       3.475  -3.796  -5.667  0.00  0.00    +0.225 A 
ATOM      7  N   UNL     1       2.774  -3.298  -4.669  0.00  0.00    -0.219 NA
ATOM      8  H   UNL     1       1.763  -0.509  -3.386  0.00  0.00    +0.154 HD
ENDROOT
BRANCH   1  14
ATOM      9  C   UNL     1       1.260  -1.927  -1.171  0.00  0.00    +0.142 A 
ATOM     10  C   UNL     1       0.709  -2.781  -0.230  0.00  0.00    +0.047 A 
ATOM     11  C   UNL     1       0.256  -4.030  -0.612  0.00  0.00    +0.004 A 
ATOM     12  C   UNL     1       0.351  -4.431  -1.931  0.00  0.00    +0.002 A 
ATOM     13  C   UNL     1       0.900  -3.585  -2.876  0.00  0.00    +0.027 A 
ATOM     14  C   UNL     1       1.351  -2.327  -2.502  0.00  0.00    +0.075 A 
BRANCH   9  15
ATOM     15  O   UNL     1       1.707  -0.698  -0.797  0.00  0.00    -0.490 OA
BRANCH  15  17
ATOM     16  C   UNL     1       2.132   1.055   0.812  0.00  0.00    +0.048 C 
ATOM     17  C   UNL     1       1.581  -0.354   0.585  0.00  0.00    +0.226 C 
ENDBRANCH  15  17
ENDBRANCH   9  15
ENDBRANCH   1  14
BRANCH   3  18
ATOM     18  N   UNL     1       3.186   0.265  -5.283  0.00  0.00    -0.353 N 
ATOM     19  H   UNL     1       2.670   0.648  -4.556  0.00  0.00    +0.143 HD
ATOM     20  H   UNL     1       3.634   0.845  -5.918  0.00  0.00    +0.143 HD
ENDBRANCH   3  18
BRANCH   4  21
ATOM     21  N   UNL     1       4.676  -0.896  -7.381  0.00  0.00    -0.297 N 
ATOM     22  H   UNL     1       4.696   0.066  -7.260  0.00  0.00    +0.154 HD
BRANCH  21  23
ATOM     23  C   UNL     1       5.301  -1.473  -8.484  0.00  0.00    +0.042 A 
ATOM     24  C   UNL     1       4.886  -2.701  -8.957  0.00  0.00    +0.024 A 
ATOM     25  C   UNL     1       5.506  -3.282 -10.058  0.00  0.00    +0.004 A 
ATOM     26  C   UNL     1       6.535  -2.659 -10.698  0.00  0.00    +0.026 A 
ATOM     27  C   UNL     1       6.989  -1.408 -10.250  0.00  0.00    +0.048 A 
ATOM     28  C   UNL     1       6.361  -0.804  -9.132  0.00  0.00    +0.020 A 
ATOM     29  C   UNL     1       6.814   0.450  -8.689  0.00  0.00    +0.013 A 
ATOM     30  C   UNL     1       7.845   1.039  -9.365  0.00  0.00    +0.021 A 
ATOM     31  C   UNL     1       8.416   0.395 -10.460  0.00  0.00    +0.013 A 
ATOM     32  N   UNL     1       7.997  -0.780 -10.864  0.00  0.00    -0.358 N 
ATOM     33  C   UNL     1       9.552   1.061 -11.193  0.00  0.00    +0.063 C 
ATOM     34  H   UNL     1       8.420  -1.198 -11.631  0.00  0.00    +0.166 HD
ENDBRANCH  21  23
ENDBRANCH   4  21
TORSDOF 6
