REMARK  Name = ZINC14959803
REMARK  6 active torsions:
REMARK  status: ('A' for Active; 'I' for Inactive)
REMARK    1  A    between atoms: C_1  and  C_2
REMARK    2  A    between atoms: C_2  and  N_3
REMARK    3  A    between atoms: C_9  and  C_11
REMARK    4  A    between atoms: C_11  and  C_12
REMARK    5  A    between atoms: C_12  and  C_13
REMARK    6  A    between atoms: N_16  and  C_19
REMARK                            x       y       z     vdW  Elec       q    Type
REMARK                         _______ _______ _______ _____ _____    ______ ____
ROOT
ATOM      1  C   UNL     1       1.075  -6.454   5.632  0.00  0.00    -0.014 C 
ATOM      2  C   UNL     1       0.200  -7.088   4.547  0.00  0.00    -0.015 C 
ATOM      3  C   UNL     1       0.479  -8.591   4.488  0.00  0.00    -0.078 C 
ATOM      4  N   UNL     1       0.171  -9.202   5.786  0.00  0.00    +0.383 N 
ATOM      5  C   UNL     1       1.056  -8.650   6.819  0.00  0.00    -0.078 C 
ATOM      6  C   UNL     1       0.799  -7.149   6.968  0.00  0.00    -0.015 C 
ATOM      7  H   UNL     1      -0.789  -9.007   6.029  0.00  0.00    -0.081 HD
ENDROOT
BRANCH   4   8
ATOM      8  C   UNL     1       0.367 -10.655   5.701  0.00  0.00    -0.065 C 
ATOM      9  C   UNL     1       1.821 -10.953   5.329  0.00  0.00    -0.009 C 
ATOM     10  C   UNL     1       2.025 -12.467   5.241  0.00  0.00    -0.012 C 
ATOM     11  C   UNL     1       1.703 -13.105   6.594  0.00  0.00    +0.007 C 
ATOM     12  C   UNL     1       0.249 -12.807   6.966  0.00  0.00    -0.012 C 
ATOM     13  C   UNL     1       0.046 -11.293   7.054  0.00  0.00    -0.009 C 
ATOM     14  C   UNL     1      -0.679 -13.385   5.896  0.00  0.00    +0.007 C 
ATOM     15  C   UNL     1      -0.358 -12.747   4.543  0.00  0.00    -0.012 C 
ATOM     16  C   UNL     1       1.096 -13.045   4.171  0.00  0.00    +0.007 C 
ATOM     17  C   UNL     1      -0.562 -11.233   4.632  0.00  0.00    -0.009 C 
ENDBRANCH   4   8
BRANCH   1  18
ATOM     18  C   UNL     1       0.743  -4.965   5.751  0.00  0.00    +0.012 C 
BRANCH  18  19
ATOM     19  C   UNL     1       1.137  -4.249   4.457  0.00  0.00    +0.096 C 
BRANCH  19  26
ATOM     20  N   UNL     1       0.713  -0.491   1.192  0.00  0.00    +0.382 N 
ATOM     21  C   UNL     1      -0.035  -0.109   2.397  0.00  0.00    -0.060 C 
ATOM     22  C   UNL     1       0.761  -0.515   3.641  0.00  0.00    +0.089 C 
ATOM     23  N   UNL     1       1.071  -1.950   3.549  0.00  0.00    -0.305 N 
ATOM     24  C   UNL     1       1.676  -2.450   2.304  0.00  0.00    +0.089 C 
ATOM     25  C   UNL     1       0.836  -1.952   1.123  0.00  0.00    -0.060 C 
ATOM     26  C   UNL     1       0.810  -2.783   4.575  0.00  0.00    +0.215 C 
ATOM     27  O   UNL     1       0.312  -2.353   5.594  0.00  0.00    -0.276 OA
ATOM     28  H   UNL     1       1.633  -0.078   1.225  0.00  0.00    -0.082 HD
BRANCH  20  30
ATOM     29  C   UNL     1      -0.019   1.526   0.010  0.00  0.00    -0.017 C 
ATOM     30  C   UNL     1       0.002  -0.004   0.002  0.00  0.00    -0.082 C 
ENDBRANCH  20  30
ENDBRANCH  19  26
ENDBRANCH  18  19
ENDBRANCH   1  18
TORSDOF 5
