REMARK  Name = ZINC08964915
REMARK  8 active torsions:
REMARK  status: ('A' for Active; 'I' for Inactive)
REMARK    1  A    between atoms: C_1  and  C_2
REMARK    2  A    between atoms: C_8  and  C_37
REMARK    3  A    between atoms: C_9  and  O_36
REMARK    4  A    between atoms: C_19  and  C_21
REMARK    5  A    between atoms: C_21  and  N_69
REMARK    6  A    between atoms: N_24  and  C_27
REMARK    7  A    between atoms: C_30  and  C_33
REMARK    8  A    between atoms: C_33  and  C_35
REMARK                            x       y       z     vdW  Elec       q    Type
REMARK                         _______ _______ _______ _____ _____    ______ ____
ROOT
ATOM      1  C   UNL     1       3.637  -0.853  -0.807  0.00  0.00    +0.008 C 
ATOM      2  C   UNL     1       2.506  -0.057  -0.151  0.00  0.00    -0.001 C 
ATOM      3  C   UNL     1       2.330   1.253  -0.915  0.00  0.00    +0.008 C 
ATOM      4  C   UNL     1       1.255   2.091  -0.220  0.00  0.00    +0.027 C 
ATOM      5  C   UNL     1       0.001   1.272  -0.112  0.00  0.00    -0.027 C 
ATOM      6  C   UNL     1      -0.001  -0.028  -0.094  0.00  0.00    -0.061 C 
ATOM      7  C   UNL     1       1.226  -0.890  -0.173  0.00  0.00    +0.018 C 
ATOM      8  C   UNL     1       1.232  -1.859   1.005  0.00  0.00    +0.132 C 
ATOM      9  C   UNL     1      -0.080  -2.461   1.398  0.00  0.00    +0.071 C 
ATOM     10  C   UNL     1      -1.310  -1.543   1.348  0.00  0.00    +0.187 C 
ATOM     11  C   UNL     1      -1.332  -0.741   0.038  0.00  0.00    +0.076 C 
ATOM     12  O   UNL     1      -2.439  -2.478   1.266  0.00  0.00    -0.460 OA
ATOM     13  C   UNL     1      -2.050  -3.664   0.776  0.00  0.00    +0.309 C 
ATOM     14  O   UNL     1      -2.785  -4.594   0.518  0.00  0.00    -0.251 OA
ATOM     15  C   UNL     1      -0.539  -3.677   0.586  0.00  0.00    +0.090 C 
ATOM     16  C   UNL     1       1.209  -1.676  -1.487  0.00  0.00    +0.018 C 
ENDROOT
BRANCH   8  17
ATOM     17  O   UNL     1       2.161  -2.917   0.732  0.00  0.00    -0.391 OA
ATOM     18  H   UNL     1       2.323  -3.503   1.484  0.00  0.00    +0.210 HD
ENDBRANCH   8  17
BRANCH  15  19
ATOM     19  C   UNL     1       0.037  -4.974   1.167  0.00  0.00    -0.064 C 
BRANCH  19  25
ATOM     20  C   UNL     1      -0.236  -7.377   1.046  0.00  0.00    -0.060 C 
ATOM     21  C   UNL     1      -0.721  -8.521   0.152  0.00  0.00    +0.086 C 
ATOM     22  N   UNL     1       0.080  -8.551  -1.079  0.00  0.00    -0.333 N 
ATOM     23  C   UNL     1      -0.033  -7.281  -1.809  0.00  0.00    +0.086 C 
ATOM     24  C   UNL     1       0.453  -6.137  -0.916  0.00  0.00    -0.060 C 
ATOM     25  N   UNL     1      -0.375  -6.104   0.308  0.00  0.00    +0.382 N 
ATOM     26  H   UNL     1      -1.359  -5.979   0.042  0.00  0.00    -0.082 HD
BRANCH  22  27
ATOM     27  C   UNL     1      -0.285  -9.623  -1.884  0.00  0.00    +0.030 A 
ATOM     28  C   UNL     1      -0.695  -9.397  -3.196  0.00  0.00    +0.024 A 
ATOM     29  C   UNL     1      -1.050 -10.448  -3.993  0.00  0.00    +0.013 A 
ATOM     30  C   UNL     1      -1.012 -11.753  -3.485  0.00  0.00    +0.017 A 
ATOM     31  C   UNL     1      -0.605 -11.975  -2.163  0.00  0.00    +0.013 A 
ATOM     32  C   UNL     1      -0.246 -10.919  -1.375  0.00  0.00    +0.024 A 
BRANCH  30  33
ATOM     33  C   UNL     1      -1.399 -12.885  -4.336  0.00  0.00    +0.160 C 
ATOM     34  O   UNL     1      -1.366 -14.014  -3.894  0.00  0.00    -0.292 OA
ATOM     35  C   UNL     1      -1.837 -12.644  -5.758  0.00  0.00    +0.091 C 
ENDBRANCH  30  33
ENDBRANCH  22  27
ENDBRANCH  19  25
ENDBRANCH  15  19
TORSDOF 5
