REMARK  Name = ZINC54909200
REMARK  10 active torsions:
REMARK  status: ('A' for Active; 'I' for Inactive)
REMARK    1  A    between atoms: C_1  and  C_2
REMARK    2  A    between atoms: C_2  and  C_3
REMARK    3  A    between atoms: C_6  and  N_9
REMARK    4  A    between atoms: N_9  and  C_10
REMARK    5  A    between atoms: C_14  and  C_16
REMARK    6  A    between atoms: C_16  and  N_17
REMARK    7  A    between atoms: N_17  and  C_18
REMARK    8  A    between atoms: C_18  and  C_19
REMARK    9  A    between atoms: C_18  and  C_20
REMARK   10  A    between atoms: C_18  and  C_21
REMARK                            x       y       z     vdW  Elec       q    Type
REMARK                         _______ _______ _______ _____ _____    ______ ____
ROOT
ATOM      1  N   UNL     1      -2.785  -2.779   2.327  0.00  0.00    -0.310 N 
ATOM      2  C   UNL     1      -1.352  -2.513   2.472  0.00  0.00    +0.131 C 
ATOM      3  C   UNL     1      -3.430  -3.610   3.229  0.00  0.00    +0.161 A 
ATOM      4  N   UNL     1      -4.697  -3.965   3.253  0.00  0.00    -0.233 NA
ATOM      5  C   UNL     1      -5.162  -4.773   4.190  0.00  0.00    +0.122 A 
ATOM      6  C   UNL     1      -4.278  -5.215   5.116  0.00  0.00    -0.006 A 
ATOM      7  S   UNL     1      -2.782  -4.417   4.557  0.00  0.00    -0.059 S 
ENDROOT
BRANCH   1  11
ATOM      8  C   UNL     1      -4.107   0.457   2.400  0.00  0.00    -0.011 C 
ATOM      9  C   UNL     1      -4.832  -0.804   2.873  0.00  0.00    +0.005 C 
ATOM     10  C   UNL     1      -4.939  -1.797   1.714  0.00  0.00    +0.023 C 
ATOM     11  C   UNL     1      -3.536  -2.167   1.228  0.00  0.00    +0.075 C 
ATOM     12  C   UNL     1      -2.811  -0.906   0.755  0.00  0.00    +0.023 C 
ATOM     13  C   UNL     1      -2.704   0.086   1.914  0.00  0.00    +0.005 C 
BRANCH   8  15
ATOM     14  C   UNL     1      -5.400   1.915   3.963  0.00  0.00    +0.004 C 
ATOM     15  C   UNL     1      -4.000   1.449   3.559  0.00  0.00    -0.000 C 
ENDBRANCH   8  15
ENDBRANCH   1  11
BRANCH   6  16
ATOM     16  C   UNL     1      -4.496  -6.132   6.292  0.00  0.00    -0.037 C 
BRANCH  16  17
ATOM     17  N   UNL     1      -4.276  -7.523   5.875  0.00  0.00    +0.385 N 
ATOM     18  H   UNL     1      -4.924  -7.760   5.138  0.00  0.00    -0.085 HD
ATOM     19  H   UNL     1      -3.331  -7.628   5.537  0.00  0.00    -0.085 HD
BRANCH  17  20
ATOM     20  C   UNL     1      -4.488  -8.417   7.021  0.00  0.00    -0.076 C 
ATOM     21  C   UNL     1      -5.922  -8.259   7.532  0.00  0.00    -0.011 C 
ATOM     22  C   UNL     1      -4.259  -9.866   6.587  0.00  0.00    -0.011 C 
ATOM     23  C   UNL     1      -3.506  -8.058   8.137  0.00  0.00    -0.011 C 
ENDBRANCH  17  20
ENDBRANCH  16  17
ENDBRANCH   6  16
TORSDOF 5
