REMARK  Name = ZINC39638764
REMARK  8 active torsions:
REMARK  status: ('A' for Active; 'I' for Inactive)
REMARK    1  A    between atoms: C_1  and  C_2
REMARK    2  A    between atoms: C_2  and  O_3
REMARK    3  A    between atoms: O_3  and  C_4
REMARK    4  A    between atoms: C_9  and  C_10
REMARK    5  A    between atoms: C_10  and  N_11
REMARK    6  A    between atoms: C_12  and  C_14
REMARK    7  A    between atoms: C_25  and  C_27
REMARK    8  A    between atoms: C_28  and  C_32
REMARK                            x       y       z     vdW  Elec       q    Type
REMARK                         _______ _______ _______ _____ _____    ______ ____
ROOT
ATOM      1  C   UNL     1       0.218   0.343   6.274  0.00  0.00    +0.100 C 
ATOM      2  C   UNL     1      -0.491  -0.846   6.961  0.00  0.00    +0.121 C 
ATOM      3  N   UNL     1       0.215  -1.006   8.255  0.00  0.00    -0.296 N 
ATOM      4  C   UNL     1       0.470   0.383   8.709  0.00  0.00    +0.115 C 
ATOM      5  C   UNL     1       0.843   1.149   7.425  0.00  0.00    -0.004 C 
ATOM      6  C   UNL     1       0.260   2.558   7.461  0.00  0.00    -0.010 C 
ATOM      7  C   UNL     1       0.939   3.358   8.576  0.00  0.00    -0.082 C 
ATOM      8  N   UNL     1       2.386   3.412   8.331  0.00  0.00    +0.379 N 
ATOM      9  C   UNL     1       2.954   2.060   8.389  0.00  0.00    -0.082 C 
ATOM     10  C   UNL     1       2.360   1.205   7.267  0.00  0.00    -0.010 C 
ATOM     11  C   UNL     1       0.550  -2.153   8.877  0.00  0.00    +0.254 C 
ATOM     12  O   UNL     1       0.362  -3.222   8.326  0.00  0.00    -0.269 OA
ATOM     13  H   UNL     1       2.556   3.808   7.418  0.00  0.00    -0.086 HD
ATOM     14  H   UNL     1       2.823   3.990   9.032  0.00  0.00    -0.086 HD
ENDROOT
BRANCH  11  15
ATOM     15  C   UNL     1       1.141  -2.114  10.218  0.00  0.00    +0.077 A 
ATOM     16  C   UNL     1       1.648  -3.156  10.980  0.00  0.00    -0.031 A 
ATOM     17  C   UNL     1       2.141  -2.807  12.215  0.00  0.00    +0.011 A 
ATOM     18  C   UNL     1       2.102  -1.506  12.597  0.00  0.00    +0.046 A 
ATOM     19  S   UNL     1       1.402  -0.715  11.291  0.00  0.00    -0.092 S 
ATOM     20  C   UNL     1       1.657  -4.580  10.487  0.00  0.00    +0.045 C 
ENDBRANCH  11  15
BRANCH   1  22
ATOM     21  N   UNL     1       1.601   0.552   4.234  0.00  0.00    -0.311 N 
ATOM     22  C   UNL     1       1.289  -0.155   5.338  0.00  0.00    +0.218 C 
ATOM     23  O   UNL     1       1.871  -1.191   5.579  0.00  0.00    -0.275 OA
ATOM     24  H   UNL     1       1.136   1.381   4.042  0.00  0.00    +0.149 HD
BRANCH  21  25
ATOM     25  C   UNL     1       2.643   0.069   3.325  0.00  0.00    +0.143 C 
BRANCH  25  31
ATOM     26  C   UNL     1       3.531   2.199   2.345  0.00  0.00    +0.125 A 
ATOM     27  C   UNL     1       3.675   3.083   1.285  0.00  0.00    +0.046 A 
ATOM     28  C   UNL     1       3.082   2.805   0.069  0.00  0.00    +0.004 A 
ATOM     29  C   UNL     1       2.345   1.646  -0.093  0.00  0.00    +0.001 A 
ATOM     30  C   UNL     1       2.200   0.763   0.961  0.00  0.00    +0.009 A 
ATOM     31  C   UNL     1       2.796   1.034   2.178  0.00  0.00    +0.011 A 
BRANCH  26  32
ATOM     32  O   UNL     1       4.114   2.470   3.542  0.00  0.00    -0.492 OA
BRANCH  32  34
ATOM     33  C   UNL     1       5.434   3.819   5.052  0.00  0.00    +0.048 C 
ATOM     34  C   UNL     1       4.856   3.688   3.641  0.00  0.00    +0.225 C 
ENDBRANCH  32  34
ENDBRANCH  26  32
ENDBRANCH  25  31
ENDBRANCH  21  25
ENDBRANCH   1  22
TORSDOF 6
