REMARK  Name = ZINC16346661
REMARK  4 active torsions:
REMARK  status: ('A' for Active; 'I' for Inactive)
REMARK    1  A    between atoms: C_6  and  S_7
REMARK    2  A    between atoms: S_7  and  N_10
REMARK    3  A    between atoms: N_10  and  N_11
REMARK    4  A    between atoms: N_14  and  C_15
REMARK                            x       y       z     vdW  Elec       q    Type
REMARK                         _______ _______ _______ _____ _____    ______ ____
ROOT
ATOM      1  N   UNL     1      -1.204   3.239  -1.506  0.00  0.00    -0.216 N 
ATOM      2  C   UNL     1      -0.870   3.847  -2.661  0.00  0.00    +0.315 C 
ATOM      3  O   UNL     1      -1.136   5.021  -2.829  0.00  0.00    -0.251 OA
ATOM      4  N   UNL     1      -0.240   3.153  -3.630  0.00  0.00    -0.293 N 
ATOM      5  H   UNL     1      -1.657   3.738  -0.808  0.00  0.00    +0.172 HD
ATOM      6  H   UNL     1      -0.028   2.216  -3.496  0.00  0.00    +0.151 HD
ENDROOT
BRANCH   4   7
ATOM      7  C   UNL     1       0.123   3.814  -4.886  0.00  0.00    +0.037 C 
ATOM      8  C   UNL     1      -1.140   4.341  -5.570  0.00  0.00    +0.029 C 
ATOM      9  C   UNL     1      -0.761   5.031  -6.881  0.00  0.00    -0.008 C 
ATOM     10  C   UNL     1      -0.063   4.028  -7.802  0.00  0.00    +0.007 C 
ATOM     11  C   UNL     1       1.200   3.501  -7.119  0.00  0.00    -0.008 C 
ATOM     12  C   UNL     1       0.821   2.811  -5.807  0.00  0.00    +0.029 C 
ATOM     13  C   UNL     1       2.146   4.668  -6.826  0.00  0.00    +0.007 C 
ATOM     14  C   UNL     1       1.448   5.671  -5.905  0.00  0.00    -0.008 C 
ATOM     15  C   UNL     1       0.185   6.198  -6.588  0.00  0.00    +0.007 C 
ATOM     16  C   UNL     1       1.069   4.981  -4.593  0.00  0.00    +0.029 C 
ENDBRANCH   4   7
BRANCH   1  17
ATOM     17  N   UNL     1      -0.897   1.885  -1.312  0.00  0.00    -0.107 NA
ATOM     18  H   UNL     1      -1.201   1.223  -1.952  0.00  0.00    +0.172 HD
BRANCH  17  19
ATOM     19  S   UNL     1      -0.017   1.417   0.010  0.00  0.00    +0.074 S 
ATOM     20  O   UNL     1       0.002  -0.004   0.002  0.00  0.00    -0.152 OA
ATOM     21  O   UNL     1       1.172   2.195   0.003  0.00  0.00    -0.152 OA
BRANCH  19  27
ATOM     22  C   UNL     1      -0.717   3.145   2.004  0.00  0.00    +0.029 A 
ATOM     23  C   UNL     1      -1.434   3.526   3.122  0.00  0.00    +0.017 A 
ATOM     24  C   UNL     1      -2.353   2.659   3.683  0.00  0.00    +0.018 A 
ATOM     25  C   UNL     1      -2.559   1.411   3.121  0.00  0.00    +0.017 A 
ATOM     26  C   UNL     1      -1.846   1.033   2.000  0.00  0.00    +0.029 A 
ATOM     27  C   UNL     1      -0.927   1.900   1.439  0.00  0.00    +0.107 A 
ATOM     28 BR   UNL     1      -3.329   3.177   5.218  0.00  0.00    -0.050 Br
ENDBRANCH  19  27
ENDBRANCH  17  19
ENDBRANCH   1  17
TORSDOF 4
