REMARK  Name = ZINC06419637
REMARK  5 active torsions:
REMARK  status: ('A' for Active; 'I' for Inactive)
REMARK    1  A    between atoms: C_1  and  C_2
REMARK    2  A    between atoms: C_2  and  N_3
REMARK    3  A    between atoms: N_3  and  C_4
REMARK    4  A    between atoms: N_11  and  C_14
REMARK    5  A    between atoms: C_19  and  C_20
REMARK                            x       y       z     vdW  Elec       q    Type
REMARK                         _______ _______ _______ _____ _____    ______ ____
ROOT
ATOM      1  C   UNL     1      -1.601  -1.840   0.007  0.00  0.00    +0.085 C 
ATOM      2  C   UNL     1      -2.892  -2.320   0.122  0.00  0.00    +0.113 C 
ATOM      3  C   UNL     1      -3.169  -3.763   0.235  0.00  0.00    +0.256 C 
ATOM      4  O   UNL     1      -2.263  -4.575   0.232  0.00  0.00    -0.270 OA
ATOM      5  N   UNL     1      -4.454  -4.159   0.344  0.00  0.00    -0.263 N 
ATOM      6  C   UNL     1      -5.462  -3.275   0.349  0.00  0.00    +0.150 C 
ATOM      7  S   UNL     1      -7.061  -3.869   0.491  0.00  0.00    -0.018 S 
ATOM      8  N   UNL     1      -5.283  -1.950   0.250  0.00  0.00    -0.217 N 
ATOM      9  C   UNL     1      -4.051  -1.410   0.141  0.00  0.00    +0.263 C 
ATOM     10  O   UNL     1      -3.902  -0.206   0.057  0.00  0.00    -0.269 OA
ATOM     11  H   UNL     1      -4.654  -5.105   0.419  0.00  0.00    +0.157 HD
ENDROOT
BRANCH   8  12
ATOM     12  C   UNL     1      -6.401  -1.105   0.266  0.00  0.00    +0.046 A 
ATOM     13  C   UNL     1      -6.876  -0.602   1.470  0.00  0.00    +0.024 A 
ATOM     14  C   UNL     1      -7.978   0.230   1.482  0.00  0.00    +0.002 A 
ATOM     15  C   UNL     1      -8.608   0.562   0.297  0.00  0.00    +0.000 A 
ATOM     16  C   UNL     1      -8.138   0.063  -0.903  0.00  0.00    +0.005 A 
ATOM     17  C   UNL     1      -7.033  -0.766  -0.922  0.00  0.00    -0.029 A 
ATOM     18  C   UNL     1      -6.517  -1.305  -2.232  0.00  0.00    +0.045 C 
ENDBRANCH   8  12
BRANCH   1  19
ATOM     19  N   UNL     1      -1.366  -0.514   0.075  0.00  0.00    -0.349 N 
ATOM     20  H   UNL     1      -2.090   0.097   0.284  0.00  0.00    +0.146 HD
BRANCH  19  22
ATOM     21  C   UNL     1      -0.024   1.528  -0.029  0.00  0.00    +0.024 C 
ATOM     22  C   UNL     1      -0.017   0.004  -0.166  0.00  0.00    +0.097 C 
ENDBRANCH  19  22
ENDBRANCH   1  19
TORSDOF 3
