REMARK  Name = ZINC52901644
REMARK  4 active torsions:
REMARK  status: ('A' for Active; 'I' for Inactive)
REMARK    1  A    between atoms: C_1  and  N_2
REMARK    2  A    between atoms: C_3  and  N_22
REMARK    3  A    between atoms: C_4  and  C_17
REMARK    4  A    between atoms: C_5  and  C_7
REMARK                            x       y       z     vdW  Elec       q    Type
REMARK                         _______ _______ _______ _____ _____    ______ ____
ROOT
ATOM      1  C   UNL     1      -0.044   1.460   0.010  0.00  0.00    +0.172 C 
ATOM      2  N   UNL     1      -0.009  -0.004   0.002  0.00  0.00    -0.276 N 
ATOM      3  C   UNL     1       0.020  -0.790  -1.098  0.00  0.00    +0.121 A 
ATOM      4  C   UNL     1       0.048  -2.104  -0.663  0.00  0.00    +0.049 A 
ATOM      5  C   UNL     1       0.035  -2.078   0.746  0.00  0.00    +0.048 A 
ATOM      6  N   UNL     1       0.007  -0.830   1.132  0.00  0.00    -0.299 N 
ATOM      7  H   UNL     1      -0.004  -0.525   2.053  0.00  0.00    +0.187 HD
ENDROOT
BRANCH   5   8
ATOM      8  C   UNL     1       0.056  -3.281   1.652  0.00  0.00    +0.041 C 
ATOM      9  C   UNL     1      -1.051  -3.168   2.725  0.00  0.00    +0.013 C 
ATOM     10  C   UNL     1      -0.285  -3.157   4.083  0.00  0.00    -0.010 C 
ATOM     11  C   UNL     1       0.246  -4.614   4.244  0.00  0.00    +0.004 C 
ATOM     12  C   UNL     1       1.351  -4.749   3.172  0.00  0.00    +0.004 C 
ATOM     13  C   UNL     1       1.389  -3.330   2.461  0.00  0.00    -0.002 C 
ATOM     14  C   UNL     1       1.024  -2.394   3.671  0.00  0.00    +0.007 C 
ENDBRANCH   5   8
BRANCH   4  15
ATOM     15  C   UNL     1       0.084  -3.312  -1.517  0.00  0.00    +0.024 A 
ATOM     16  C   UNL     1       1.067  -3.736  -2.370  0.00  0.00    +0.016 A 
ATOM     17  C   UNL     1       0.875  -4.909  -3.071  0.00  0.00    +0.008 A 
ATOM     18  C   UNL     1      -0.276  -5.603  -2.896  0.00  0.00    +0.046 A 
ATOM     19  S   UNL     1      -1.141  -4.598  -1.699  0.00  0.00    -0.096 S 
ENDBRANCH   4  15
BRANCH   3  20
ATOM     20  N   UNL     1       0.020  -0.359  -2.419  0.00  0.00    -0.343 N 
ATOM     21  H   UNL     1      -0.001   0.590  -2.619  0.00  0.00    +0.144 HD
ATOM     22  H   UNL     1       0.042  -1.007  -3.141  0.00  0.00    +0.144 HD
ENDBRANCH   3  20
TORSDOF 3
