REMARK  Name = ZINC66115511
REMARK  11 active torsions:
REMARK  status: ('A' for Active; 'I' for Inactive)
REMARK    1  A    between atoms: C_1  and  C_2
REMARK    2  A    between atoms: C_2  and  C_4
REMARK    3  A    between atoms: C_4  and  O_5
REMARK    4  A    between atoms: O_5  and  C_6
REMARK    5  A    between atoms: C_7  and  C_14
REMARK    6  A    between atoms: C_11  and  O_12
REMARK    7  A    between atoms: O_12  and  C_13
REMARK    8  A    between atoms: C_14  and  N_15
REMARK    9  A    between atoms: C_21  and  C_23
REMARK   10  A    between atoms: C_23  and  C_24
REMARK   11  A    between atoms: N_26  and  N_27
REMARK                            x       y       z     vdW  Elec       q    Type
REMARK                         _______ _______ _______ _____ _____    ______ ____
ROOT
ATOM      1  N   UNL     1      -2.550  -1.311   2.851  0.00  0.00    +0.391 N 
ATOM      2  C   UNL     1      -4.003  -1.374   3.071  0.00  0.00    -0.058 C 
ATOM      3  C   UNL     1      -4.550   0.052   3.156  0.00  0.00    +0.085 C 
ATOM      4  N   UNL     1      -3.770   0.828   4.116  0.00  0.00    -0.318 N 
ATOM      5  C   UNL     1      -2.557   0.448   4.535  0.00  0.00    +0.200 C 
ATOM      6  O   UNL     1      -1.962   1.159   5.316  0.00  0.00    -0.278 OA
ATOM      7  C   UNL     1      -1.903  -0.824   4.075  0.00  0.00    +0.028 C 
ATOM      8  H   UNL     1      -4.145   1.652   4.464  0.00  0.00    +0.149 HD
ATOM      9  H   UNL     1      -2.349  -0.681   2.089  0.00  0.00    -0.080 HD
ENDROOT
BRANCH   1  10
ATOM     10  C   UNL     1      -2.043  -2.652   2.527  0.00  0.00    -0.038 C 
BRANCH  10  12
ATOM     11  C   UNL     1      -1.975  -2.664   0.022  0.00  0.00    +0.164 A 
ATOM     12  C   UNL     1      -2.589  -3.086   1.191  0.00  0.00    -0.019 A 
ATOM     13  C   UNL     1      -3.701  -3.904   1.131  0.00  0.00    +0.005 A 
ATOM     14  C   UNL     1      -4.204  -4.304  -0.093  0.00  0.00    +0.004 A 
ATOM     15  C   UNL     1      -3.596  -3.888  -1.263  0.00  0.00    +0.049 A 
ATOM     16  C   UNL     1      -2.485  -3.063  -1.210  0.00  0.00    +0.162 A 
BRANCH  16  17
ATOM     17  O   UNL     1      -1.889  -2.647  -2.360  0.00  0.00    -0.491 OA
ATOM     18  C   UNL     1      -2.466  -3.096  -3.588  0.00  0.00    +0.277 C 
ENDBRANCH  16  17
BRANCH  11  19
ATOM     19  O   UNL     1      -0.881  -1.859   0.079  0.00  0.00    -0.484 OA
BRANCH  19  20
ATOM     20  C   UNL     1      -1.097  -0.458  -0.102  0.00  0.00    +0.259 C 
BRANCH  20  22
ATOM     21  C   UNL     1       0.237   1.784  -0.005  0.00  0.00    +0.042 C 
ATOM     22  C   UNL     1       0.196   0.283   0.126  0.00  0.00    -0.043 C 
ATOM     23  C   UNL     1       1.283  -0.378   0.439  0.00  0.00    +0.011 C 
ENDBRANCH  20  22
ENDBRANCH  19  20
ENDBRANCH  11  19
ENDBRANCH  10  12
ENDBRANCH   1  10
BRANCH   7  24
ATOM     24  C   UNL     1      -0.422  -0.561   3.797  0.00  0.00    +0.091 C 
BRANCH  24  25
ATOM     25  C   UNL     1       0.279  -0.218   5.087  0.00  0.00    +0.225 C 
ATOM     26  O   UNL     1      -0.310  -0.322   6.142  0.00  0.00    -0.275 OA
ATOM     27  N   UNL     1       1.558   0.203   5.067  0.00  0.00    -0.254 N 
ATOM     28  H   UNL     1       2.029   0.286   4.223  0.00  0.00    +0.169 HD
BRANCH  27  29
ATOM     29  N   UNL     1       2.193   0.514   6.236  0.00  0.00    -0.254 NA
ATOM     30  H   UNL     1       3.142   0.813   6.064  0.00  0.00    +0.140 HD
ATOM     31  H   UNL     1       1.681   1.215   6.750  0.00  0.00    +0.140 HD
ENDBRANCH  27  29
ENDBRANCH  24  25
ENDBRANCH   7  24
TORSDOF 9
