REMARK  Name = ZINC37159649
REMARK  14 active torsions:
REMARK  status: ('A' for Active; 'I' for Inactive)
REMARK    1  A    between atoms: C_1  and  C_2
REMARK    2  A    between atoms: C_2  and  C_3
REMARK    3  A    between atoms: C_3  and  C_4
REMARK    4  A    between atoms: C_3  and  C_5
REMARK    5  A    between atoms: C_3  and  C_6
REMARK    6  A    between atoms: C_10  and  C_22
REMARK    7  A    between atoms: C_12  and  N_15
REMARK    8  A    between atoms: N_15  and  C_16
REMARK    9  A    between atoms: N_15  and  C_18
REMARK   10  A    between atoms: C_16  and  C_17
REMARK   11  A    between atoms: C_18  and  C_19
REMARK   12  A    between atoms: C_19  and  C_20
REMARK   13  A    between atoms: C_19  and  C_21
REMARK   14  A    between atoms: C_22  and  N_23
REMARK                            x       y       z     vdW  Elec       q    Type
REMARK                         _______ _______ _______ _____ _____    ______ ____
ROOT
ATOM      1  C   UNL     1      -0.002  -2.055  -1.891  0.00  0.00    -0.007 C 
ATOM      2  C   UNL     1       0.408  -2.559  -0.505  0.00  0.00    +0.004 C 
ATOM      3  C   UNL     1       0.532  -4.084  -0.533  0.00  0.00    +0.000 C 
ATOM      4  C   UNL     1       1.592  -4.491  -1.559  0.00  0.00    -0.042 C 
ATOM      5  C   UNL     1       1.182  -3.987  -2.944  0.00  0.00    -0.067 C 
ATOM      6  C   UNL     1       1.059  -2.462  -2.916  0.00  0.00    -0.011 C 
ENDROOT
BRANCH   1   7
ATOM      7  C   UNL     1      -0.125  -0.530  -1.863  0.00  0.00    -0.032 C 
ATOM      8  C   UNL     1      -0.535  -0.026  -3.248  0.00  0.00    +0.011 C 
ATOM      9  C   UNL     1       1.222   0.083  -1.475  0.00  0.00    +0.011 C 
BRANCH   7  11
ATOM     10  C   UNL     1      -1.308   1.402  -0.810  0.00  0.00    +0.004 C 
ATOM     11  C   UNL     1      -1.185  -0.123  -0.838  0.00  0.00    +0.003 C 
ENDBRANCH   7  11
ENDBRANCH   1   7
BRANCH   5  12
ATOM     12  N   UNL     1       2.200  -4.378  -3.928  0.00  0.00    +0.382 N 
ATOM     13  H   UNL     1       2.317  -5.380  -3.912  0.00  0.00    -0.081 HD
BRANCH  12  14
ATOM     14  C   UNL     1       3.476  -3.731  -3.596  0.00  0.00    -0.082 C 
ATOM     15  C   UNL     1       4.277  -4.635  -2.656  0.00  0.00    -0.017 C 
ENDBRANCH  12  14
BRANCH  12  16
ATOM     16  C   UNL     1       1.772  -3.957  -5.269  0.00  0.00    -0.076 C 
BRANCH  16  17
ATOM     17  C   UNL     1       2.719  -4.547  -6.316  0.00  0.00    -0.034 C 
ATOM     18  C   UNL     1       2.597  -6.072  -6.312  0.00  0.00    +0.005 C 
ATOM     19  C   UNL     1       2.349  -4.009  -7.699  0.00  0.00    +0.005 C 
ENDBRANCH  16  17
ENDBRANCH  12  16
ENDBRANCH   5  12
BRANCH   4  20
ATOM     20  C   UNL     1       1.715  -6.016  -1.587  0.00  0.00    -0.085 C 
BRANCH  20  21
ATOM     21  N   UNL     1       2.262  -6.486  -0.307  0.00  0.00    +0.378 N 
ATOM     22  H   UNL     1       3.173  -6.078  -0.160  0.00  0.00    -0.090 HD
ATOM     23  H   UNL     1       1.645  -6.212   0.443  0.00  0.00    -0.090 HD
ATOM     24  H   UNL     1       2.343  -7.492  -0.325  0.00  0.00    -0.090 HD
ENDBRANCH  20  21
ENDBRANCH   4  20
TORSDOF 8
