REMARK  Name = ZINC39431332
REMARK  5 active torsions:
REMARK  status: ('A' for Active; 'I' for Inactive)
REMARK    1  A    between atoms: C_1  and  N_2
REMARK    2  A    between atoms: N_9  and  C_12
REMARK    3  A    between atoms: N_16  and  C_17
REMARK    4  A    between atoms: C_17  and  C_18
REMARK    5  A    between atoms: C_18  and  C_19
REMARK                            x       y       z     vdW  Elec       q    Type
REMARK                         _______ _______ _______ _____ _____    ______ ____
ROOT
ATOM      1  C   UNL     1      -0.018   1.461   0.010  0.00  0.00    +0.136 C 
ATOM      2  N   UNL     1       0.002  -0.004   0.002  0.00  0.00    -0.266 N 
ATOM      3  C   UNL     1      -1.264  -0.754   0.004  0.00  0.00    +0.202 C 
ATOM      4  C   UNL     1      -1.137  -2.301  -0.032  0.00  0.00    +0.200 C 
ATOM      5  C   UNL     1       0.276  -2.844  -0.072  0.00  0.00    +0.247 C 
ATOM      6  O   UNL     1       0.474  -4.040  -0.096  0.00  0.00    -0.273 OA
ATOM      7  N   UNL     1       1.308  -1.982  -0.081  0.00  0.00    -0.227 N 
ATOM      8  C   UNL     1       1.173  -0.656  -0.013  0.00  0.00    +0.312 C 
ATOM      9  O   UNL     1       2.189   0.012  -0.019  0.00  0.00    -0.252 OA
ATOM     10  C   UNL     1       2.664  -2.535  -0.119  0.00  0.00    +0.143 C 
ATOM     11  N   UNL     1      -1.726  -2.713   1.252  0.00  0.00    -0.304 N 
ATOM     12  C   UNL     1      -2.133  -1.593   1.923  0.00  0.00    +0.156 C 
ATOM     13  N   UNL     1      -1.918  -0.472   1.288  0.00  0.00    -0.341 N 
ATOM     14  N   UNL     1      -2.730  -1.642   3.161  0.00  0.00    -0.318 N 
ATOM     15  H   UNL     1      -1.811  -3.626   1.569  0.00  0.00    +0.149 HD
ATOM     16  H   UNL     1      -3.003  -0.821   3.600  0.00  0.00    +0.149 HD
ATOM     17  H   UNL     1      -2.147   0.414   1.610  0.00  0.00    +0.164 HD
ENDROOT
BRANCH  14  18
ATOM     18  C   UNL     1      -2.953  -2.933   3.816  0.00  0.00    +0.109 C 
BRANCH  18  19
ATOM     19  C   UNL     1      -3.627  -2.707   5.171  0.00  0.00    +0.056 C 
BRANCH  19  20
ATOM     20  C   UNL     1      -3.857  -4.035   5.846  0.00  0.00    -0.021 A 
ATOM     21  C   UNL     1      -2.894  -4.773   6.667  0.00  0.00    +0.003 A 
ATOM     22  C   UNL     1      -1.578  -4.537   7.068  0.00  0.00    +0.010 A 
ATOM     23  C   UNL     1      -0.936  -5.448   7.858  0.00  0.00    +0.001 A 
ATOM     24  C   UNL     1      -1.581  -6.607   8.265  0.00  0.00    +0.002 A 
ATOM     25  C   UNL     1      -2.879  -6.861   7.880  0.00  0.00    +0.026 A 
ATOM     26  C   UNL     1      -3.553  -5.947   7.077  0.00  0.00    +0.047 A 
ATOM     27  N   UNL     1      -4.819  -5.911   6.538  0.00  0.00    -0.360 N 
ATOM     28  C   UNL     1      -4.984  -4.762   5.813  0.00  0.00    +0.087 A 
ATOM     29  H   UNL     1      -5.496  -6.596   6.658  0.00  0.00    +0.165 HD
ENDBRANCH  19  20
ENDBRANCH  18  19
ENDBRANCH  14  18
TORSDOF 3
