REMARK  Name = ZINC43737345
REMARK  5 active torsions:
REMARK  status: ('A' for Active; 'I' for Inactive)
REMARK    1  A    between atoms: C_1  and  C_2
REMARK    2  A    between atoms: C_5  and  O_29
REMARK    3  A    between atoms: C_18  and  C_28
REMARK    4  A    between atoms: C_22  and  N_27
REMARK    5  A    between atoms: C_24  and  O_26
REMARK                            x       y       z     vdW  Elec       q    Type
REMARK                         _______ _______ _______ _____ _____    ______ ____
ROOT
ATOM      1  C   UNL     1       0.029   1.468  -0.110  0.00  0.00    +0.012 C 
ATOM      2  C   UNL     1       0.025  -0.068  -0.108  0.00  0.00    -0.026 C 
ATOM      3  C   UNL     1       0.713  -0.550  -1.389  0.00  0.00    +0.010 C 
ATOM      4  C   UNL     1       2.169  -0.088  -1.420  0.00  0.00    +0.032 C 
ATOM      5  C   UNL     1       2.914  -0.626  -0.199  0.00  0.00    +0.115 C 
ATOM      6  C   UNL     1       2.239  -0.140   1.085  0.00  0.00    +0.035 C 
ATOM      7  C   UNL     1       0.782  -0.593   1.106  0.00  0.00    -0.002 C 
ATOM      8  C   UNL     1       0.097  -0.102   2.382  0.00  0.00    +0.004 C 
ATOM      9  C   UNL     1      -1.319  -0.666   2.426  0.00  0.00    +0.004 C 
ATOM     10  C   UNL     1      -2.148  -0.216   1.216  0.00  0.00    -0.004 C 
ATOM     11  C   UNL     1      -1.425  -0.526  -0.091  0.00  0.00    -0.001 C 
ATOM     12  C   UNL     1      -1.602  -1.994  -0.459  0.00  0.00    +0.005 C 
ATOM     13  C   UNL     1      -3.055  -2.248  -0.902  0.00  0.00    +0.010 C 
ATOM     14  C   UNL     1      -3.992  -1.340  -0.143  0.00  0.00    -0.005 C 
ATOM     15  C   UNL     1      -3.438  -1.017   1.257  0.00  0.00    -0.001 C 
ATOM     16  C   UNL     1      -4.625  -0.329   1.938  0.00  0.00    -0.009 C 
ATOM     17  C   UNL     1      -5.871  -1.031   1.338  0.00  0.00    -0.045 C 
ATOM     18  C   UNL     1      -5.332  -2.009   0.258  0.00  0.00    +0.106 C 
ATOM     19  C   UNL     1      -4.334  -0.083  -0.949  0.00  0.00    +0.014 C 
ENDROOT
BRANCH  17  20
ATOM     20  N   UNL     1      -6.577  -1.780   2.386  0.00  0.00    +0.382 N 
ATOM     21  H   UNL     1      -6.892  -1.142   3.102  0.00  0.00    -0.090 HD
ATOM     22  H   UNL     1      -7.373  -2.253   1.983  0.00  0.00    -0.090 HD
ATOM     23  H   UNL     1      -5.952  -2.460   2.792  0.00  0.00    -0.090 HD
ENDBRANCH  17  20
BRANCH  18  24
ATOM     24  O   UNL     1      -5.101  -3.299   0.817  0.00  0.00    -0.393 OA
ATOM     25  H   UNL     1      -5.906  -3.761   1.085  0.00  0.00    +0.210 HD
ENDBRANCH  18  24
BRANCH   5  26
ATOM     26  O   UNL     1       4.267  -0.163  -0.227  0.00  0.00    -0.392 OA
ATOM     27  H   UNL     1       4.762  -0.441  -1.010  0.00  0.00    +0.210 HD
ENDBRANCH   5  26
TORSDOF 3
