REMARK  Name = ZINC65397559
REMARK  6 active torsions:
REMARK  status: ('A' for Active; 'I' for Inactive)
REMARK    1  A    between atoms: C_1  and  C_2
REMARK    2  A    between atoms: C_7  and  N_8
REMARK    3  A    between atoms: C_9  and  C_18
REMARK    4  A    between atoms: C_12  and  C_15
REMARK    5  A    between atoms: C_21  and  C_24
REMARK    6  A    between atoms: C_29  and  O_30
REMARK                            x       y       z     vdW  Elec       q    Type
REMARK                         _______ _______ _______ _____ _____    ______ ____
ROOT
ATOM      1  N   UNL     1       0.161  -0.017   2.582  0.00  0.00    -0.246 N 
ATOM      2  C   UNL     1      -0.993  -0.191   3.479  0.00  0.00    +0.189 C 
ATOM      3  N   UNL     1      -0.746   0.694   4.644  0.00  0.00    -0.279 NA
ATOM      4  C   UNL     1       0.730   0.888   4.597  0.00  0.00    +0.144 C 
ATOM      5  N   UNL     1       1.004   0.915   3.140  0.00  0.00    -0.221 NA
ATOM      6  H   UNL     1      -1.230   1.573   4.540  0.00  0.00    +0.125 HD
ATOM      7  H   UNL     1       0.832   1.833   2.758  0.00  0.00    +0.146 HD
ENDROOT
BRANCH   1  14
ATOM      8  C   UNL     1      -0.681   1.242   0.139  0.00  0.00    +0.047 C 
ATOM      9  C   UNL     1      -0.025  -0.115   0.168  0.00  0.00    -0.012 A 
ATOM     10  C   UNL     1       0.202  -0.807  -1.003  0.00  0.00    +0.087 A 
ATOM     11  N   UNL     1       0.776  -1.996  -0.986  0.00  0.00    -0.367 N 
ATOM     12  C   UNL     1       1.156  -2.571   0.140  0.00  0.00    +0.084 A 
ATOM     13  C   UNL     1       0.966  -1.945   1.353  0.00  0.00    +0.042 A 
ATOM     14  C   UNL     1       0.367  -0.685   1.379  0.00  0.00    +0.052 A 
ATOM     15  H   UNL     1       0.922  -2.460  -1.825  0.00  0.00    +0.165 HD
ENDBRANCH   1  14
BRANCH   2  16
ATOM     16  C   UNL     1      -1.091  -1.648   3.933  0.00  0.00    +0.189 C 
ATOM     17  C   UNL     1      -2.262  -1.836   4.881  0.00  0.00    +0.034 C 
ATOM     18  C   UNL     1      -1.687  -2.248   6.027  0.00  0.00    +0.095 C 
ATOM     19  N   UNL     1      -0.338  -2.327   5.879  0.00  0.00    -0.154 NA
ATOM     20  N   UNL     1       0.073  -2.016   4.756  0.00  0.00    -0.176 NA
BRANCH  18  21
ATOM     21  C   UNL     1      -2.421  -2.571   7.275  0.00  0.00    +0.043 A 
ATOM     22  C   UNL     1      -1.726  -2.984   8.409  0.00  0.00    +0.014 A 
ATOM     23  C   UNL     1      -2.414  -3.283   9.568  0.00  0.00    +0.001 A 
ATOM     24  C   UNL     1      -3.793  -3.173   9.607  0.00  0.00    +0.004 A 
ATOM     25  C   UNL     1      -4.492  -2.764   8.488  0.00  0.00    +0.046 A 
ATOM     26  C   UNL     1      -3.814  -2.455   7.320  0.00  0.00    +0.126 A 
BRANCH  26  27
ATOM     27  O   UNL     1      -4.500  -2.047   6.220  0.00  0.00    -0.506 OA
ATOM     28  H   UNL     1      -4.776  -2.769   5.639  0.00  0.00    +0.292 HD
ENDBRANCH  26  27
ENDBRANCH  18  21
ENDBRANCH   2  16
BRANCH   4  29
ATOM     29  C   UNL     1       1.125   2.212   5.255  0.00  0.00    +0.022 C 
ATOM     30  C   UNL     1       2.217   2.170   6.325  0.00  0.00    +0.007 C 
ATOM     31  C   UNL     1       0.760   2.405   6.728  0.00  0.00    +0.007 C 
ENDBRANCH   4  29
TORSDOF 5
