REMARK  Name = ZINC19766855
REMARK  5 active torsions:
REMARK  status: ('A' for Active; 'I' for Inactive)
REMARK    1  A    between atoms: C_1  and  C_2
REMARK    2  A    between atoms: C_2  and  C_3
REMARK    3  A    between atoms: N_9  and  C_10
REMARK    4  A    between atoms: N_15  and  C_18
REMARK    5  A    between atoms: C_21  and  O_24
REMARK                            x       y       z     vdW  Elec       q    Type
REMARK                         _______ _______ _______ _____ _____    ______ ____
ROOT
ATOM      1  C   UNL     1      -1.005   1.931  -0.810  0.00  0.00    +0.029 C 
ATOM      2  C   UNL     1      -2.425   1.468  -0.425  0.00  0.00    +0.091 C 
ATOM      3  C   UNL     1      -2.856   0.627  -1.606  0.00  0.00    +0.225 C 
ATOM      4  O   UNL     1      -3.925   0.064  -1.714  0.00  0.00    -0.275 OA
ATOM      5  N   UNL     1      -1.871   0.602  -2.513  0.00  0.00    -0.212 N 
ATOM      6  C   UNL     1      -0.783   1.302  -2.169  0.00  0.00    +0.213 C 
ATOM      7  O   UNL     1       0.220   1.415  -2.840  0.00  0.00    -0.277 OA
ENDROOT
BRANCH   1  13
ATOM      8  C   UNL     1       1.304   2.021  -0.089  0.00  0.00    -0.068 C 
ATOM      9  C   UNL     1       2.269   1.595   1.020  0.00  0.00    -0.015 C 
ATOM     10  C   UNL     1       2.366   0.067   1.045  0.00  0.00    -0.003 C 
ATOM     11  C   UNL     1       0.969  -0.522   1.255  0.00  0.00    -0.019 C 
ATOM     12  C   UNL     1       0.042  -0.035   0.139  0.00  0.00    -0.077 C 
ATOM     13  N   UNL     1      -0.018   1.433   0.157  0.00  0.00    +0.390 N 
ATOM     14  H   UNL     1      -0.341   1.742   1.162  0.00  0.00    -0.080 HD
BRANCH   8  16
ATOM     15  C   UNL     1       2.554   4.158  -0.428  0.00  0.00    +0.002 C 
ATOM     16  C   UNL     1       1.189   3.546  -0.106  0.00  0.00    -0.019 C 
ENDBRANCH   8  16
ENDBRANCH   1  13
BRANCH   5  17
ATOM     17  C   UNL     1      -1.972  -0.100  -3.724  0.00  0.00    +0.044 A 
ATOM     18  C   UNL     1      -2.011   0.593  -4.926  0.00  0.00    +0.027 A 
ATOM     19  C   UNL     1      -2.105  -0.098  -6.118  0.00  0.00    +0.047 A 
ATOM     20  C   UNL     1      -2.170  -1.484  -6.113  0.00  0.00    +0.117 A 
ATOM     21  C   UNL     1      -2.136  -2.176  -4.912  0.00  0.00    +0.047 A 
ATOM     22  C   UNL     1      -2.037  -1.486  -3.720  0.00  0.00    +0.027 A 
BRANCH  20  23
ATOM     23  O   UNL     1      -2.267  -2.164  -7.287  0.00  0.00    -0.507 OA
ATOM     24  H   UNL     1      -2.319  -3.262  -7.283  0.00  0.00    +0.292 HD
ENDBRANCH  20  23
ENDBRANCH   5  17
TORSDOF 4
