REMARK  Name = ZINC66862796
REMARK  11 active torsions:
REMARK  status: ('A' for Active; 'I' for Inactive)
REMARK    1  A    between atoms: C_1  and  C_2
REMARK    2  A    between atoms: C_2  and  O_3
REMARK    3  A    between atoms: O_3  and  C_4
REMARK    4  A    between atoms: C_9  and  N_12
REMARK    5  A    between atoms: C_13  and  C_15
REMARK    6  A    between atoms: C_15  and  N_16
REMARK    7  A    between atoms: N_16  and  C_17
REMARK    8  A    between atoms: C_17  and  C_18
REMARK    9  A    between atoms: C_17  and  C_19
REMARK   10  A    between atoms: C_17  and  C_20
REMARK   11  A    between atoms: C_20  and  O_21
REMARK                            x       y       z     vdW  Elec       q    Type
REMARK                         _______ _______ _______ _____ _____    ______ ____
ROOT
ATOM      1  N   UNL     1       1.161  -3.643  -6.387  0.00  0.00    -0.314 N 
ATOM      2  C   UNL     1       1.687  -4.696  -7.042  0.00  0.00    +0.196 C 
ATOM      3  O   UNL     1       2.581  -5.340  -6.535  0.00  0.00    -0.278 OA
ATOM      4  H   UNL     1       0.446  -3.127  -6.792  0.00  0.00    +0.149 HD
ENDROOT
BRANCH   1  10
ATOM      5  C   UNL     1       0.776  -1.798  -1.335  0.00  0.00    +0.403 C 
ATOM      6  O   UNL     1       0.312  -2.549  -0.500  0.00  0.00    -0.226 OA
ATOM      7  N   UNL     1       1.395  -2.298  -2.422  0.00  0.00    -0.267 N 
ATOM      8  C   UNL     1       1.966  -1.403  -3.437  0.00  0.00    +0.113 C 
ATOM      9  C   UNL     1       1.404  -1.790  -4.809  0.00  0.00    +0.041 C 
ATOM     10  C   UNL     1       1.667  -3.276  -5.062  0.00  0.00    +0.076 C 
ATOM     11  C   UNL     1       0.956  -4.111  -3.995  0.00  0.00    +0.041 C 
ATOM     12  C   UNL     1       1.517  -3.750  -2.611  0.00  0.00    +0.113 C 
BRANCH   5  13
ATOM     13  O   UNL     1       0.671  -0.465  -1.174  0.00  0.00    -0.451 OA
BRANCH  13  15
ATOM     14  C   UNL     1      -0.019   1.526   0.010  0.00  0.00    +0.048 C 
ATOM     15  C   UNL     1       0.002  -0.004   0.002  0.00  0.00    +0.230 C 
ENDBRANCH  13  15
ENDBRANCH   5  13
ENDBRANCH   1  10
BRANCH   2  16
ATOM     16  C   UNL     1       1.166  -5.073  -8.405  0.00  0.00    +0.016 C 
BRANCH  16  17
ATOM     17  N   UNL     1       1.898  -6.245  -8.902  0.00  0.00    +0.390 N 
ATOM     18  H   UNL     1       2.881  -6.025  -8.967  0.00  0.00    -0.084 HD
ATOM     19  H   UNL     1       1.768  -7.018  -8.267  0.00  0.00    -0.084 HD
BRANCH  17  20
ATOM     20  C   UNL     1       1.390  -6.613 -10.231  0.00  0.00    -0.050 C 
ATOM     21  C   UNL     1      -0.100  -6.946 -10.133  0.00  0.00    -0.008 C 
ATOM     22  C   UNL     1       1.588  -5.441 -11.194  0.00  0.00    -0.008 C 
BRANCH  20  23
ATOM     23  C   UNL     1       2.153  -7.834 -10.749  0.00  0.00    +0.143 C 
BRANCH  23  24
ATOM     24  O   UNL     1       1.659  -8.191 -12.041  0.00  0.00    -0.396 OA
ATOM     25  H   UNL     1       2.098  -8.959 -12.431  0.00  0.00    +0.209 HD
ENDBRANCH  23  24
ENDBRANCH  20  23
ENDBRANCH  17  20
ENDBRANCH  16  17
ENDBRANCH   2  16
TORSDOF 8
