REMARK  Name = ZINC05119092
REMARK  7 active torsions:
REMARK  status: ('A' for Active; 'I' for Inactive)
REMARK    1  A    between atoms: C_1  and  C_2
REMARK    2  A    between atoms: C_2  and  C_3
REMARK    3  A    between atoms: C_3  and  C_28
REMARK    4  A    between atoms: N_15  and  C_20
REMARK    5  A    between atoms: N_18  and  N_19
REMARK    6  A    between atoms: C_20  and  C_21
REMARK    7  A    between atoms: C_21  and  C_22
REMARK                            x       y       z     vdW  Elec       q    Type
REMARK                         _______ _______ _______ _____ _____    ______ ____
ROOT
ATOM      1  C   UNL     1      -2.541   1.183   0.011  0.00  0.00    +0.004 C 
ATOM      2  C   UNL     1      -3.655   1.886   0.782  0.00  0.00    +0.047 C 
ATOM      3  C   UNL     1      -3.736   3.337   0.391  0.00  0.00    -0.037 A 
ATOM      4  C   UNL     1      -4.957   3.977   0.333  0.00  0.00    +0.004 A 
ATOM      5  C   UNL     1      -5.024   5.312  -0.023  0.00  0.00    +0.000 A 
ATOM      6  C   UNL     1      -3.871   6.015  -0.323  0.00  0.00    +0.001 A 
ATOM      7  C   UNL     1      -2.643   5.386  -0.271  0.00  0.00    +0.010 A 
ATOM      8  C   UNL     1      -2.572   4.042   0.096  0.00  0.00    +0.004 A 
ATOM      9  C   UNL     1      -1.270   3.339   0.150  0.00  0.00    +0.084 A 
ATOM     10  C   UNL     1      -1.255   1.953   0.120  0.00  0.00    +0.049 A 
ATOM     11  C   UNL     1      -0.023   1.290   0.192  0.00  0.00    +0.260 A 
ATOM     12  O   UNL     1       0.030   0.071   0.175  0.00  0.00    -0.267 OA
ATOM     13  N   UNL     1       1.105   2.028   0.275  0.00  0.00    -0.279 N 
ATOM     14  C   UNL     1       1.035   3.387   0.290  0.00  0.00    +0.213 A 
ATOM     15  N   UNL     1      -0.120   4.018   0.229  0.00  0.00    -0.214 NA
ATOM     16  N   UNL     1       2.192   4.116   0.369  0.00  0.00    -0.253 N 
ATOM     17  C   UNL     1      -2.338  -0.221   0.584  0.00  0.00    +0.016 C 
ATOM     18  H   UNL     1       3.048   3.663   0.414  0.00  0.00    +0.169 HD
ENDROOT
BRANCH  16  19
ATOM     19  N   UNL     1       2.139   5.481   0.385  0.00  0.00    -0.254 NA
ATOM     20  H   UNL     1       3.065   5.878   0.446  0.00  0.00    +0.140 HD
ATOM     21  H   UNL     1       1.647   5.834  -0.422  0.00  0.00    +0.140 HD
ENDBRANCH  16  19
BRANCH   1  23
ATOM     22  C   UNL     1      -1.838   0.345  -2.235  0.00  0.00    +0.005 C 
ATOM     23  C   UNL     1      -2.939   1.073  -1.462  0.00  0.00    +0.008 C 
ENDBRANCH   1  23
BRANCH  13  24
ATOM     24  C   UNL     1       2.408   1.364   0.349  0.00  0.00    +0.133 C 
BRANCH  24  25
ATOM     25  C   UNL     1       2.954   1.153  -1.064  0.00  0.00    +0.057 C 
BRANCH  25  26
ATOM     26  C   UNL     1       4.295   0.469  -0.988  0.00  0.00    -0.046 A 
ATOM     27  C   UNL     1       5.452   1.223  -0.908  0.00  0.00    +0.004 A 
ATOM     28  C   UNL     1       6.681   0.596  -0.833  0.00  0.00    +0.000 A 
ATOM     29  C   UNL     1       6.756  -0.784  -0.847  0.00  0.00    +0.000 A 
ATOM     30  C   UNL     1       5.600  -1.538  -0.932  0.00  0.00    +0.000 A 
ATOM     31  C   UNL     1       4.370  -0.911  -1.002  0.00  0.00    +0.004 A 
ENDBRANCH  25  26
ENDBRANCH  24  25
ENDBRANCH  13  24
TORSDOF 5
