REMARK  Name = ZINC08790360
REMARK  7 active torsions:
REMARK  status: ('A' for Active; 'I' for Inactive)
REMARK    1  A    between atoms: C_1  and  C_2
REMARK    2  A    between atoms: C_4  and  C_35
REMARK    3  A    between atoms: C_13  and  C_15
REMARK    4  A    between atoms: C_15  and  C_16
REMARK    5  A    between atoms: N_21  and  C_24
REMARK    6  A    between atoms: C_24  and  C_25
REMARK    7  A    between atoms: C_25  and  C_26
REMARK                            x       y       z     vdW  Elec       q    Type
REMARK                         _______ _______ _______ _____ _____    ______ ____
ROOT
ATOM      1  C   UNL     1       2.224  -5.872   2.454  0.00  0.00    +0.044 C 
ATOM      2  C   UNL     1       1.754  -5.839   1.023  0.00  0.00    -0.050 A 
ATOM      3  C   UNL     1       2.321  -6.686   0.088  0.00  0.00    +0.008 A 
ATOM      4  C   UNL     1       1.895  -6.660  -1.224  0.00  0.00    -0.029 A 
ATOM      5  C   UNL     1       0.889  -5.780  -1.617  0.00  0.00    +0.039 A 
ATOM      6  C   UNL     1       0.327  -4.932  -0.667  0.00  0.00    -0.027 A 
ATOM      7  C   UNL     1       0.755  -4.961   0.641  0.00  0.00    +0.008 A 
ATOM      8  C   UNL     1      -0.708  -4.125  -1.399  0.00  0.00    +0.050 C 
ATOM      9  C   UNL     1      -2.103  -4.318  -0.792  0.00  0.00    +0.088 C 
ATOM     10  C   UNL     1      -2.300  -3.085   0.134  0.00  0.00    +0.073 C 
ATOM     11  C   UNL     1      -0.993  -2.276  -0.001  0.00  0.00    -0.049 C 
ATOM     12  C   UNL     1      -3.431  -2.320  -0.514  0.00  0.00    +0.224 C 
ATOM     13  O   UNL     1      -3.897  -1.278  -0.105  0.00  0.00    -0.275 OA
ATOM     14  N   UNL     1      -3.838  -2.972  -1.610  0.00  0.00    -0.241 N 
ATOM     15  C   UNL     1      -3.167  -4.101  -1.866  0.00  0.00    +0.225 C 
ATOM     16  O   UNL     1      -3.375  -4.842  -2.803  0.00  0.00    -0.275 OA
ATOM     17  C   UNL     1      -0.652  -4.614  -2.820  0.00  0.00    +0.211 C 
ATOM     18  O   UNL     1      -1.331  -4.224  -3.747  0.00  0.00    -0.277 OA
ATOM     19  N   UNL     1       0.296  -5.570  -2.864  0.00  0.00    -0.286 N 
ATOM     20  C   UNL     1       2.519  -7.588  -2.235  0.00  0.00    +0.045 C 
ATOM     21  H   UNL     1       0.539  -6.055  -3.668  0.00  0.00    +0.155 HD
ATOM     22  N   UNL     1      -0.443  -2.701  -1.290  0.00  0.00    +0.394 N 
ATOM     23  H   UNL     1      -0.902  -2.195  -2.056  0.00  0.00    -0.083 HD
ATOM     24  H   UNL     1       0.568  -2.525  -1.320  0.00  0.00    -0.083 HD
ENDROOT
BRANCH  11  25
ATOM     25  C   UNL     1      -1.293  -0.775   0.010  0.00  0.00    +0.080 C 
BRANCH  25  26
ATOM     26  C   UNL     1       0.002  -0.004   0.002  0.00  0.00    +0.209 C 
ATOM     27  O   UNL     1       1.060  -0.596  -0.011  0.00  0.00    -0.276 OA
ATOM     28  N   UNL     1      -0.016   1.344   0.009  0.00  0.00    -0.329 N 
ATOM     29  H   UNL     1       0.817   1.840   0.004  0.00  0.00    +0.145 HD
ATOM     30  H   UNL     1      -0.863   1.817   0.016  0.00  0.00    +0.145 HD
ENDBRANCH  25  26
ENDBRANCH  11  25
BRANCH  14  31
ATOM     31  C   UNL     1      -4.928  -2.488  -2.460  0.00  0.00    +0.121 C 
BRANCH  31  32
ATOM     32  C   UNL     1      -4.360  -1.576  -3.549  0.00  0.00    +0.054 C 
BRANCH  32  33
ATOM     33  C   UNL     1      -5.482  -1.079  -4.424  0.00  0.00    -0.046 A 
ATOM     34  C   UNL     1      -5.852  -1.794  -5.547  0.00  0.00    +0.004 A 
ATOM     35  C   UNL     1      -6.884  -1.340  -6.347  0.00  0.00    +0.000 A 
ATOM     36  C   UNL     1      -7.539  -0.165  -6.029  0.00  0.00    +0.000 A 
ATOM     37  C   UNL     1      -7.166   0.553  -4.908  0.00  0.00    +0.000 A 
ATOM     38  C   UNL     1      -6.137   0.097  -4.106  0.00  0.00    +0.004 A 
ENDBRANCH  32  33
ENDBRANCH  31  32
ENDBRANCH  14  31
TORSDOF 5
