REMARK  Name = ZINC00491921
REMARK  5 active torsions:
REMARK  status: ('A' for Active; 'I' for Inactive)
REMARK    1  A    between atoms: C_1  and  O_2
REMARK    2  A    between atoms: O_2  and  C_3
REMARK    3  A    between atoms: N_5  and  N_6
REMARK    4  A    between atoms: C_7  and  C_8
REMARK    5  A    between atoms: C_13  and  O_14
REMARK                            x       y       z     vdW  Elec       q    Type
REMARK                         _______ _______ _______ _____ _____    ______ ____
ROOT
ATOM      1  C   UNL     1       1.155  -2.111  -0.020  0.00  0.00    +0.039 A 
ATOM      2  C   UNL     1       2.372  -2.797  -0.036  0.00  0.00    +0.033 A 
ATOM      3  C   UNL     1       2.384  -4.177  -0.043  0.00  0.00    +0.043 A 
ATOM      4  C   UNL     1       1.193  -4.886  -0.035  0.00  0.00    +0.043 A 
ATOM      5  C   UNL     1      -0.018  -4.218  -0.019  0.00  0.00    +0.084 A 
ATOM      6  C   UNL     1      -0.047  -2.832  -0.007  0.00  0.00    +0.144 A 
ATOM      7 CL   UNL     1      -1.503  -5.116  -0.009  0.00  0.00    -0.080 Cl
ATOM      8 CL   UNL     1       3.897  -5.028  -0.062  0.00  0.00    -0.083 Cl
ENDROOT
BRANCH   1  10
ATOM      9  N   UNL     1       0.002  -0.004   0.002  0.00  0.00    -0.185 NA
ATOM     10  C   UNL     1       1.135  -0.637  -0.012  0.00  0.00    +0.142 C 
BRANCH   9  13
ATOM     11  C   UNL     1      -1.193   2.055   0.019  0.00  0.00    +0.420 C 
ATOM     12  O   UNL     1      -1.210   3.270   0.026  0.00  0.00    -0.225 OA
ATOM     13  N   UNL     1      -0.017   1.397   0.010  0.00  0.00    -0.172 N 
ATOM     14  H   UNL     1       0.816   1.893   0.004  0.00  0.00    +0.181 HD
BRANCH  11  16
ATOM     15  C   UNL     1      -3.579   2.140   0.031  0.00  0.00    +0.282 C 
ATOM     16  O   UNL     1      -2.350   1.365   0.021  0.00  0.00    -0.453 OA
ENDBRANCH  11  16
ENDBRANCH   9  13
ENDBRANCH   1  10
BRANCH   6  17
ATOM     17  O   UNL     1      -1.236  -2.175   0.013  0.00  0.00    -0.505 OA
ATOM     18  H   UNL     1      -1.593  -1.980  -0.864  0.00  0.00    +0.292 HD
ENDBRANCH   6  17
TORSDOF 4
