REMARK  Name = ZINC67455522
REMARK  7 active torsions:
REMARK  status: ('A' for Active; 'I' for Inactive)
REMARK    1  A    between atoms: C_1  and  C_2
REMARK    2  A    between atoms: C_2  and  C_4
REMARK    3  A    between atoms: C_2  and  N_11
REMARK    4  A    between atoms: N_14  and  N_15
REMARK    5  A    between atoms: C_16  and  C_18
REMARK    6  A    between atoms: C_23  and  O_24
REMARK    7  A    between atoms: O_24  and  C_25
REMARK                            x       y       z     vdW  Elec       q    Type
REMARK                         _______ _______ _______ _____ _____    ______ ____
ROOT
ATOM      1  N   UNL     1      -1.367  -0.521  -0.077  0.00  0.00    -0.292 N 
ATOM      2  C   UNL     1      -1.944  -0.718  -1.279  0.00  0.00    +0.316 C 
ATOM      3  O   UNL     1      -1.328  -0.467  -2.298  0.00  0.00    -0.251 OA
ATOM      4  N   UNL     1      -3.203  -1.193  -1.353  0.00  0.00    -0.218 N 
ATOM      5  H   UNL     1      -1.857  -0.721   0.735  0.00  0.00    +0.151 HD
ATOM      6  H   UNL     1      -3.618  -1.335  -2.218  0.00  0.00    +0.174 HD
ENDROOT
BRANCH   4   7
ATOM      7  N   UNL     1      -3.912  -1.482  -0.179  0.00  0.00    -0.229 N 
ATOM      8  C   UNL     1      -5.171  -1.958  -0.253  0.00  0.00    +0.264 C 
ATOM      9  O   UNL     1      -5.691  -2.135  -1.337  0.00  0.00    -0.269 OA
ATOM     10  H   UNL     1      -3.496  -1.341   0.686  0.00  0.00    +0.173 HD
BRANCH   8  11
ATOM     11  C   UNL     1      -5.917  -2.262   0.983  0.00  0.00    +0.080 A 
ATOM     12  C   UNL     1      -5.325  -2.054   2.231  0.00  0.00    +0.017 A 
ATOM     13  C   UNL     1      -6.027  -2.340   3.381  0.00  0.00    +0.001 A 
ATOM     14  C   UNL     1      -7.320  -2.834   3.307  0.00  0.00    +0.004 A 
ATOM     15  C   UNL     1      -7.917  -3.044   2.080  0.00  0.00    +0.046 A 
ATOM     16  C   UNL     1      -7.226  -2.756   0.912  0.00  0.00    +0.132 A 
BRANCH  16  17
ATOM     17  O   UNL     1      -7.814  -2.957  -0.294  0.00  0.00    -0.494 OA
ATOM     18  C   UNL     1      -9.150  -3.463  -0.289  0.00  0.00    +0.277 C 
ENDBRANCH  16  17
ENDBRANCH   8  11
ENDBRANCH   4   7
BRANCH   1  20
ATOM     19  C   UNL     1      -0.028   1.526  -0.017  0.00  0.00    +0.033 C 
ATOM     20  C   UNL     1       0.002  -0.004   0.002  0.00  0.00    +0.103 C 
BRANCH  20  21
ATOM     21  C   UNL     1       0.644  -0.478   1.280  0.00  0.00    -0.013 A 
ATOM     22  C   UNL     1      -0.139  -0.765   2.382  0.00  0.00    +0.006 A 
ATOM     23  C   UNL     1       0.450  -1.200   3.555  0.00  0.00    +0.000 A 
ATOM     24  C   UNL     1       1.823  -1.349   3.626  0.00  0.00    +0.001 A 
ATOM     25  C   UNL     1       2.607  -1.062   2.524  0.00  0.00    +0.015 A 
ATOM     26  C   UNL     1       2.017  -0.631   1.349  0.00  0.00    +0.023 A 
ATOM     27 BR   UNL     1       3.089  -0.246  -0.161  0.00  0.00    -0.050 Br
ENDBRANCH  20  21
ENDBRANCH   1  20
TORSDOF 5
