REMARK  Name = ZINC63281998
REMARK  5 active torsions:
REMARK  status: ('A' for Active; 'I' for Inactive)
REMARK    1  A    between atoms: C_1  and  C_2
REMARK    2  A    between atoms: C_5  and  C_29
REMARK    3  A    between atoms: N_6  and  C_7
REMARK    4  A    between atoms: C_13  and  C_17
REMARK    5  A    between atoms: N_19  and  C_20
REMARK                            x       y       z     vdW  Elec       q    Type
REMARK                         _______ _______ _______ _____ _____    ______ ____
ROOT
ATOM      1  C   UNL     1      -0.057  -0.546   2.548  0.00  0.00    +0.238 C 
ATOM      2  N   UNL     1      -0.670  -1.622   3.339  0.00  0.00    -0.314 N 
ATOM      3  C   UNL     1      -1.841  -1.331   4.026  0.00  0.00    +0.043 A 
ATOM      4  C   UNL     1      -2.562  -2.237   4.830  0.00  0.00    +0.025 A 
ATOM      5  C   UNL     1      -3.712  -1.861   5.473  0.00  0.00    +0.015 A 
ATOM      6  C   UNL     1      -4.210  -0.561   5.354  0.00  0.00    +0.038 A 
ATOM      7  C   UNL     1      -3.510   0.357   4.561  0.00  0.00    +0.029 A 
ATOM      8  C   UNL     1      -2.361  -0.034   3.922  0.00  0.00    +0.033 A 
ATOM      9  S   UNL     1      -1.230   0.835   2.856  0.00  0.00    -0.079 S 
ATOM     10  H   UNL     1      -0.271  -2.505   3.378  0.00  0.00    +0.149 HD
ENDROOT
BRANCH   1  16
ATOM     11  C   UNL     1       2.411  -0.205   0.702  0.00  0.00    +0.063 C 
ATOM     12  C   UNL     1       1.063  -0.750   0.304  0.00  0.00    +0.018 A 
ATOM     13  C   UNL     1       0.717  -1.183  -0.925  0.00  0.00    +0.023 A 
ATOM     14  C   UNL     1      -0.625  -1.606  -0.861  0.00  0.00    +0.023 A 
ATOM     15  C   UNL     1      -1.048  -1.416   0.405  0.00  0.00    +0.018 A 
ATOM     16  N   UNL     1      -0.015  -0.895   1.126  0.00  0.00    -0.321 N 
ATOM     17  C   UNL     1      -2.425  -1.729   0.933  0.00  0.00    +0.063 C 
ENDBRANCH   1  16
BRANCH   6  18
ATOM     18  C   UNL     1      -5.448  -0.163   6.051  0.00  0.00    +0.247 C 
ATOM     19  O   UNL     1      -5.870   0.972   5.939  0.00  0.00    -0.270 OA
ATOM     20  N   UNL     1      -6.111  -1.057   6.811  0.00  0.00    -0.274 N 
ATOM     21  H   UNL     1      -5.774  -1.962   6.900  0.00  0.00    +0.153 HD
BRANCH  20  22
ATOM     22  C   UNL     1      -7.341  -0.662   7.502  0.00  0.00    +0.269 C 
ATOM     23  N   UNL     1      -8.465  -0.638   6.557  0.00  0.00    -0.348 N 
ATOM     24  C   UNL     1      -9.345  -1.501   6.976  0.00  0.00    +0.061 A 
ATOM     25  C   UNL     1     -10.656  -1.921   6.461  0.00  0.00    +0.027 A 
ATOM     26  C   UNL     1     -11.360  -2.860   7.123  0.00  0.00    +0.002 A 
ATOM     27  C   UNL     1     -10.893  -3.468   8.302  0.00  0.00    +0.002 A 
ATOM     28  C   UNL     1      -9.705  -3.156   8.859  0.00  0.00    +0.027 A 
ATOM     29  C   UNL     1      -8.850  -2.144   8.224  0.00  0.00    +0.061 A 
ATOM     30  N   UNL     1      -7.683  -1.654   8.528  0.00  0.00    -0.348 N 
ATOM     31  H   UNL     1      -8.538  -0.082   5.766  0.00  0.00    +0.163 HD
ATOM     32  H   UNL     1      -7.139  -1.900   9.293  0.00  0.00    +0.163 HD
ENDBRANCH  20  22
ENDBRANCH   6  18
TORSDOF 3
