REMARK  Name = ZINC30675205
REMARK  4 active torsions:
REMARK  status: ('A' for Active; 'I' for Inactive)
REMARK    1  A    between atoms: C_3  and  N_13
REMARK    2  A    between atoms: C_4  and  N_10
REMARK    3  A    between atoms: C_6  and  C_7
REMARK    4  A    between atoms: N_13  and  C_14
REMARK                            x       y       z     vdW  Elec       q    Type
REMARK                         _______ _______ _______ _____ _____    ______ ____
ROOT
ATOM      1  N   UNL     1       0.002   1.038  -0.015  0.00  0.00    -0.312 N 
ATOM      2  H   UNL     1       0.079  -0.059  -0.018  0.00  0.00    +0.152 HD
ENDROOT
BRANCH   1   3
ATOM      3  C   UNL     1       1.162   1.822  -0.018  0.00  0.00    +0.048 A 
ATOM      4  C   UNL     1       2.419   1.223   0.065  0.00  0.00    +0.028 A 
ATOM      5  C   UNL     1       3.537   2.036   0.054  0.00  0.00    +0.043 A 
ATOM      6  C   UNL     1       3.373   3.414  -0.030  0.00  0.00    +0.099 A 
ATOM      7  N   UNL     1       2.164   3.949  -0.102  0.00  0.00    -0.348 N 
ATOM      8  C   UNL     1       1.075   3.203  -0.099  0.00  0.00    +0.107 A 
ATOM      9  N   UNL     1       4.493   4.242  -0.036  0.00  0.00    -0.312 N 
ATOM     10  C   UNL     1       4.102   5.657  -0.096  0.00  0.00    +0.112 C 
ATOM     11  C   UNL     1       5.307   6.523   0.309  0.00  0.00    +0.061 C 
ATOM     12  C   UNL     1       6.502   6.014  -0.430  0.00  0.00    -0.004 A 
ATOM     13  C   UNL     1       6.603   4.829  -1.095  0.00  0.00    -0.020 A 
ATOM     14  C   UNL     1       7.821   4.567  -1.718  0.00  0.00    +0.013 A 
ATOM     15  C   UNL     1       8.828   5.468  -1.641  0.00  0.00    +0.046 A 
ATOM     16  S   UNL     1       8.087   6.766  -0.661  0.00  0.00    -0.101 S 
ATOM     17  C   UNL     1       5.410   3.877  -1.123  0.00  0.00    +0.142 C 
ATOM     18  H   UNL     1       2.049   5.041  -0.167  0.00  0.00    +0.167 HD
ENDBRANCH   1   3
BRANCH   1  21
ATOM     19  C   UNL     1      -3.221   2.312   1.184  0.00  0.00    +0.015 A 
ATOM     20  C   UNL     1      -1.983   1.710   1.174  0.00  0.00    +0.026 A 
ATOM     21  C   UNL     1      -1.249   1.647  -0.007  0.00  0.00    +0.062 A 
ATOM     22  C   UNL     1      -1.761   2.196  -1.180  0.00  0.00    +0.148 A 
ATOM     23  C   UNL     1      -3.000   2.795  -1.177  0.00  0.00    +0.047 A 
ATOM     24  C   UNL     1      -3.740   2.860   0.008  0.00  0.00    +0.039 A 
BRANCH  24  25
ATOM     25  C   UNL     1      -5.066   3.506   0.016  0.00  0.00    +0.242 C 
ATOM     26  O   UNL     1      -5.517   3.982  -1.008  0.00  0.00    -0.270 OA
ATOM     27  N   UNL     1      -5.779   3.568   1.158  0.00  0.00    -0.325 N 
ATOM     28  H   UNL     1      -6.768   4.049   1.164  0.00  0.00    +0.145 HD
ATOM     29  H   UNL     1      -5.371   3.137   2.085  0.00  0.00    +0.145 HD
ENDBRANCH  24  25
BRANCH  22  30
ATOM     30  N   UNL     1      -0.975   2.131  -2.432  0.00  0.00    +0.058 N 
ATOM     31  O   UNL     1      -1.367   2.712  -3.429  0.00  0.00    -0.126 OA
ATOM     32  O   UNL     1       0.065   1.497  -2.466  0.00  0.00    -0.126 OA
ENDBRANCH  22  30
ENDBRANCH   1  21
TORSDOF 4
