REMARK  Name = ZINC65217067
REMARK  7 active torsions:
REMARK  status: ('A' for Active; 'I' for Inactive)
REMARK    1  A    between atoms: C_1  and  C_2
REMARK    2  A    between atoms: C_2  and  C_3
REMARK    3  A    between atoms: C_6  and  C_15
REMARK    4  A    between atoms: C_8  and  C_14
REMARK    5  A    between atoms: C_15  and  N_16
REMARK    6  A    between atoms: C_17  and  C_19
REMARK    7  A    between atoms: C_19  and  C_20
REMARK                            x       y       z     vdW  Elec       q    Type
REMARK                         _______ _______ _______ _____ _____    ______ ____
ROOT
ATOM      1  N   UNL     1      -5.391   1.197  -1.609  0.00  0.00    -0.313 N 
ATOM      2  C   UNL     1      -5.934   1.603  -2.773  0.00  0.00    +0.217 C 
ATOM      3  O   UNL     1      -6.916   1.043  -3.213  0.00  0.00    -0.275 OA
ATOM      4  H   UNL     1      -4.606   1.646  -1.257  0.00  0.00    +0.149 HD
ENDROOT
BRANCH   1   5
ATOM      5  C   UNL     1      -5.987   0.079  -0.873  0.00  0.00    +0.129 C 
BRANCH   5   9
ATOM      6  C   UNL     1      -1.412  -0.526   0.013  0.00  0.00    +0.095 C 
ATOM      7  N   UNL     1      -2.510   0.154   0.021  0.00  0.00    -0.180 NA
ATOM      8  N   UNL     1      -3.760  -0.426   0.079  0.00  0.00    -0.222 N 
ATOM      9  C   UNL     1      -5.185  -0.176   0.404  0.00  0.00    +0.129 C 
ATOM     10  C   UNL     1      -5.661  -1.476   1.092  0.00  0.00    +0.077 C 
ATOM     11  N   UNL     1      -4.504  -2.411   1.014  0.00  0.00    -0.284 NA
ATOM     12  C   UNL     1      -3.752  -1.905  -0.152  0.00  0.00    +0.225 C 
ATOM     13  S   UNL     1      -1.957  -2.228   0.009  0.00  0.00    -0.069 S 
ATOM     14  C   UNL     1      -6.024  -1.200   2.553  0.00  0.00    +0.026 C 
ATOM     15  H   UNL     1      -3.945  -2.365   1.852  0.00  0.00    +0.125 HD
BRANCH   6  17
ATOM     16  C   UNL     1      -0.019   1.526   0.010  0.00  0.00    +0.011 C 
ATOM     17  C   UNL     1       0.002  -0.004   0.002  0.00  0.00    +0.061 C 
ENDBRANCH   6  17
ENDBRANCH   5   9
ENDBRANCH   1   5
BRANCH   2  18
ATOM     18  C   UNL     1      -5.322   2.754  -3.530  0.00  0.00    +0.129 C 
BRANCH  18  19
ATOM     19  C   UNL     1      -6.112   3.005  -4.788  0.00  0.00    -0.033 C 
ATOM     20  C   UNL     1      -7.109   3.904  -4.956  0.00  0.00    -0.001 A 
ATOM     21  C   UNL     1      -7.733   4.878  -4.052  0.00  0.00    +0.010 A 
ATOM     22  C   UNL     1      -8.735   5.657  -4.519  0.00  0.00    +0.001 A 
ATOM     23  C   UNL     1      -9.191   5.559  -5.840  0.00  0.00    +0.002 A 
ATOM     24  C   UNL     1      -8.668   4.689  -6.730  0.00  0.00    +0.026 A 
ATOM     25  C   UNL     1      -7.609   3.820  -6.347  0.00  0.00    +0.043 A 
ATOM     26  N   UNL     1      -6.946   2.905  -7.013  0.00  0.00    -0.380 N 
ATOM     27  C   UNL     1      -5.946   2.309  -6.120  0.00  0.00    +0.145 C 
ATOM     28  H   UNL     1      -7.091   2.666  -7.942  0.00  0.00    +0.160 HD
ENDBRANCH  18  19
ENDBRANCH   2  18
TORSDOF 5
