REMARK  Name = ZINC65481335
REMARK  10 active torsions:
REMARK  status: ('A' for Active; 'I' for Inactive)
REMARK    1  A    between atoms: C_1  and  C_2
REMARK    2  A    between atoms: C_2  and  N_3
REMARK    3  A    between atoms: N_3  and  C_4
REMARK    4  A    between atoms: N_3  and  C_6
REMARK    5  A    between atoms: C_4  and  C_5
REMARK    6  A    between atoms: C_6  and  C_7
REMARK    7  A    between atoms: C_6  and  C_22
REMARK    8  A    between atoms: C_7  and  N_8
REMARK    9  A    between atoms: N_11  and  N_12
REMARK   10  A    between atoms: C_13  and  C_15
REMARK                            x       y       z     vdW  Elec       q    Type
REMARK                         _______ _______ _______ _____ _____    ______ ____
ROOT
ATOM      1  N   UNL     1      -3.520  -2.250  -0.727  0.00  0.00    -0.299 N 
ATOM      2  C   UNL     1      -4.806  -2.641  -0.635  0.00  0.00    +0.316 C 
ATOM      3  O   UNL     1      -5.229  -3.101   0.408  0.00  0.00    -0.251 OA
ATOM      4  N   UNL     1      -5.624  -2.523  -1.700  0.00  0.00    -0.218 N 
ATOM      5  H   UNL     1      -3.202  -1.815  -1.534  0.00  0.00    +0.150 HD
ATOM      6  H   UNL     1      -6.567  -2.733  -1.612  0.00  0.00    +0.174 HD
ENDROOT
BRANCH   4   7
ATOM      7  N   UNL     1      -5.113  -2.098  -2.933  0.00  0.00    -0.229 N 
ATOM      8  C   UNL     1      -5.946  -1.878  -3.969  0.00  0.00    +0.260 C 
ATOM      9  O   UNL     1      -7.142  -2.048  -3.833  0.00  0.00    -0.269 OA
ATOM     10  H   UNL     1      -4.158  -1.962  -3.041  0.00  0.00    +0.173 HD
BRANCH   8  11
ATOM     11  C   UNL     1      -5.407  -1.429  -5.269  0.00  0.00    +0.038 A 
ATOM     12  C   UNL     1      -4.033  -1.239  -5.429  0.00  0.00    +0.016 A 
ATOM     13  C   UNL     1      -3.534  -0.821  -6.644  0.00  0.00    +0.039 A 
ATOM     14  C   UNL     1      -4.395  -0.589  -7.706  0.00  0.00    +0.123 A 
ATOM     15  C   UNL     1      -5.760  -0.777  -7.553  0.00  0.00    +0.039 A 
ATOM     16  C   UNL     1      -6.268  -1.201  -6.344  0.00  0.00    +0.016 A 
ATOM     17  F   UNL     1      -3.901  -0.179  -8.895  0.00  0.00    -0.205 F 
ENDBRANCH   8  11
ENDBRANCH   4   7
BRANCH   1  18
ATOM     18  C   UNL     1      -2.602  -2.481   0.391  0.00  0.00    +0.098 C 
BRANCH  18  19
ATOM     19  C   UNL     1      -1.251  -1.833   0.084  0.00  0.00    +0.016 C 
BRANCH  19  20
ATOM     20  C   UNL     1      -0.340  -1.982   1.276  0.00  0.00    +0.093 A 
ATOM     21  C   UNL     1       0.735  -2.787   1.349  0.00  0.00    +0.043 A 
ATOM     22  C   UNL     1       1.290  -2.613   2.637  0.00  0.00    +0.041 A 
ATOM     23  C   UNL     1       0.522  -1.711   3.274  0.00  0.00    +0.195 A 
ATOM     24  O   UNL     1      -0.461  -1.328   2.443  0.00  0.00    -0.469 OA
ENDBRANCH  19  20
BRANCH  19  25
ATOM     25  N   UNL     1      -1.447  -0.407  -0.208  0.00  0.00    +0.387 N 
ATOM     26  H   UNL     1      -2.046  -0.307  -1.013  0.00  0.00    -0.081 HD
BRANCH  25  28
ATOM     27  C   UNL     1      -2.415   1.696   0.593  0.00  0.00    -0.017 C 
ATOM     28  C   UNL     1      -2.070   0.249   0.950  0.00  0.00    -0.081 C 
ENDBRANCH  25  28
BRANCH  25  29
ATOM     29  C   UNL     1      -0.147   0.220  -0.484  0.00  0.00    -0.081 C 
ATOM     30  C   UNL     1       0.432  -0.357  -1.778  0.00  0.00    -0.017 C 
ENDBRANCH  25  29
ENDBRANCH  19  25
ENDBRANCH  18  19
ENDBRANCH   1  18
TORSDOF 8
