REMARK  Name = ZINC39779910
REMARK  7 active torsions:
REMARK  status: ('A' for Active; 'I' for Inactive)
REMARK    1  A    between atoms: C_1  and  C_2
REMARK    2  A    between atoms: C_2  and  C_22
REMARK    3  A    between atoms: N_4  and  C_10
REMARK    4  A    between atoms: C_6  and  C_8
REMARK    5  A    between atoms: C_6  and  C_9
REMARK    6  A    between atoms: C_10  and  C_11
REMARK    7  A    between atoms: C_11  and  C_12
REMARK                            x       y       z     vdW  Elec       q    Type
REMARK                         _______ _______ _______ _____ _____    ______ ____
ROOT
ATOM      1  C   UNL     1      -0.019   1.540   0.011  0.00  0.00    -0.009 C 
ATOM      2  C   UNL     1       0.002  -0.004   0.002  0.00  0.00    -0.060 C 
ATOM      3  C   UNL     1       0.674  -0.452  -1.293  0.00  0.00    +0.071 C 
ATOM      4  N   UNL     1       0.927  -1.898  -1.244  0.00  0.00    -0.305 NA
ATOM      5  C   UNL     1       1.871  -2.188  -0.157  0.00  0.00    +0.071 C 
ATOM      6  C   UNL     1       1.249  -1.804   1.183  0.00  0.00    -0.060 C 
ATOM      7  N   UNL     1       0.711  -0.453   1.190  0.00  0.00    +0.387 N 
ATOM      8  C   UNL     1       2.357  -1.884   2.255  0.00  0.00    -0.009 C 
ATOM      9  C   UNL     1       0.174  -2.829   1.558  0.00  0.00    -0.009 C 
ATOM     10  C   UNL     1      -1.454  -0.483   0.013  0.00  0.00    -0.009 C 
ATOM     11  H   UNL     1       1.479   0.200   1.373  0.00  0.00    -0.084 HD
ATOM     12  H   UNL     1       0.085  -0.359   1.994  0.00  0.00    -0.084 HD
ENDROOT
BRANCH   4  13
ATOM     13  C   UNL     1       1.438  -2.389  -2.531  0.00  0.00    +0.089 C 
BRANCH  13  14
ATOM     14  C   UNL     1       1.452  -3.919  -2.525  0.00  0.00    +0.052 C 
BRANCH  14  15
ATOM     15  C   UNL     1       1.976  -4.422  -3.845  0.00  0.00    -0.021 A 
ATOM     16  C   UNL     1       1.242  -4.783  -4.910  0.00  0.00    +0.087 A 
ATOM     17  N   UNL     1       2.063  -5.186  -5.927  0.00  0.00    -0.360 N 
ATOM     18  H   UNL     1       1.763  -5.493  -6.797  0.00  0.00    +0.165 HD
ATOM     19  C   UNL     1       3.379  -5.093  -5.532  0.00  0.00    +0.047 A 
ATOM     20  C   UNL     1       3.382  -4.604  -4.213  0.00  0.00    +0.003 A 
ATOM     21  C   UNL     1       4.593  -4.400  -3.548  0.00  0.00    +0.010 A 
ATOM     22  C   UNL     1       5.771  -4.673  -4.185  0.00  0.00    +0.001 A 
ATOM     23  C   UNL     1       5.773  -5.152  -5.488  0.00  0.00    +0.002 A 
ATOM     24  C   UNL     1       4.589  -5.369  -6.159  0.00  0.00    +0.026 A 
ENDBRANCH  14  15
ENDBRANCH  13  14
ENDBRANCH   4  13
TORSDOF 3
