REMARK  Name = ZINC00407857
REMARK  4 active torsions:
REMARK  status: ('A' for Active; 'I' for Inactive)
REMARK    1  A    between atoms: C_1  and  C_2
REMARK    2  A    between atoms: C_5  and  O_25
REMARK    3  A    between atoms: C_6  and  C_8
REMARK    4  A    between atoms: C_11  and  C_19
REMARK                            x       y       z     vdW  Elec       q    Type
REMARK                         _______ _______ _______ _____ _____    ______ ____
ROOT
ATOM      1  C   UNL     1      -0.019   1.529   0.010  0.00  0.00    +0.109 C 
ATOM      2  C   UNL     1       0.002  -0.004   0.002  0.00  0.00    +0.059 C 
ATOM      3  C   UNL     1       0.664  -0.506  -1.287  0.00  0.00    +0.143 C 
ATOM      4  N   UNL     1       1.928   0.205  -1.476  0.00  0.00    -0.226 N 
ATOM      5  C   UNL     1       2.244   1.375  -0.870  0.00  0.00    +0.215 A 
ATOM      6  N   UNL     1       3.441   1.722  -1.259  0.00  0.00    -0.202 NA
ATOM      7  C   UNL     1       3.917   0.806  -2.109  0.00  0.00    +0.247 A 
ATOM      8  N   UNL     1       3.024  -0.138  -2.269  0.00  0.00    -0.156 NA
ATOM      9  N   UNL     1       1.373   2.019  -0.000  0.00  0.00    -0.307 N 
ATOM     10  H   UNL     1       1.669   2.850   0.657  0.00  0.00    +0.150 HD
ENDROOT
BRANCH   1  16
ATOM     11  C   UNL     1       0.091   3.217  -4.698  0.00  0.00    +0.044 C 
ATOM     12  C   UNL     1      -0.690   2.840  -3.466  0.00  0.00    -0.050 A 
ATOM     13  C   UNL     1      -2.068   2.956  -3.459  0.00  0.00    +0.007 A 
ATOM     14  C   UNL     1      -2.786   2.611  -2.331  0.00  0.00    +0.046 A 
ATOM     15  C   UNL     1      -2.124   2.147  -1.204  0.00  0.00    +0.122 A 
ATOM     16  C   UNL     1      -0.741   2.031  -1.213  0.00  0.00    +0.014 A 
ATOM     17  C   UNL     1      -0.027   2.383  -2.342  0.00  0.00    +0.012 A 
BRANCH  15  18
ATOM     18  O   UNL     1      -2.828   1.806  -0.092  0.00  0.00    -0.506 OA
ATOM     19  H   UNL     1      -2.302   1.439   0.801  0.00  0.00    +0.292 HD
ENDBRANCH  15  18
ENDBRANCH   1  16
BRANCH   3  20
ATOM     20  C   UNL     1       0.929  -1.985  -1.176  0.00  0.00    -0.023 A 
ATOM     21  C   UNL     1       1.752  -2.467  -0.176  0.00  0.00    +0.006 A 
ATOM     22  C   UNL     1       1.991  -3.825  -0.071  0.00  0.00    +0.000 A 
ATOM     23  C   UNL     1       1.414  -4.700  -0.973  0.00  0.00    +0.000 A 
ATOM     24  C   UNL     1       0.595  -4.217  -1.976  0.00  0.00    +0.000 A 
ATOM     25  C   UNL     1       0.352  -2.860  -2.078  0.00  0.00    +0.006 A 
ENDBRANCH   3  20
TORSDOF 3
