REMARK  Name = ZINC51168267
REMARK  6 active torsions:
REMARK  status: ('A' for Active; 'I' for Inactive)
REMARK    1  A    between atoms: C_1  and  O_2
REMARK    2  A    between atoms: O_2  and  C_3
REMARK    3  A    between atoms: C_5  and  C_10
REMARK    4  A    between atoms: C_8  and  O_9
REMARK    5  A    between atoms: C_14  and  N_16
REMARK    6  A    between atoms: N_16  and  N_17
REMARK                            x       y       z     vdW  Elec       q    Type
REMARK                         _______ _______ _______ _____ _____    ______ ____
ROOT
ATOM      1  C   UNL     1       2.397   0.354  -4.221  0.00  0.00    +0.162 A 
ATOM      2  N   UNL     1       2.976  -0.256  -5.246  0.00  0.00    -0.232 NA
ATOM      3  C   UNL     1       3.530   0.441  -6.229  0.00  0.00    +0.050 A 
ATOM      4  C   UNL     1       3.498   1.820  -6.177  0.00  0.00    +0.015 A 
ATOM      5  C   UNL     1       2.880   2.436  -5.085  0.00  0.00    +0.139 A 
ATOM      6  N   UNL     1       2.341   1.676  -4.138  0.00  0.00    -0.211 NA
ATOM      7  C   UNL     1       4.183   2.397  -7.393  0.00  0.00    +0.041 C 
ATOM      8  C   UNL     1       5.016   1.234  -7.976  0.00  0.00    +0.011 C 
ATOM      9  C   UNL     1       4.240  -0.007  -7.486  0.00  0.00    +0.056 C 
ENDROOT
BRANCH   1  12
ATOM     10  C   UNL     1       0.606  -0.608  -1.056  0.00  0.00    +0.162 A 
ATOM     11  C   UNL     1       1.171   0.159  -2.059  0.00  0.00    +0.061 A 
ATOM     12  C   UNL     1       1.790  -0.463  -3.143  0.00  0.00    +0.023 A 
ATOM     13  C   UNL     1       1.838  -1.855  -3.212  0.00  0.00    +0.015 A 
ATOM     14  C   UNL     1       1.273  -2.615  -2.209  0.00  0.00    +0.050 A 
ATOM     15  C   UNL     1       0.661  -1.998  -1.128  0.00  0.00    +0.158 A 
BRANCH  10  17
ATOM     16  C   UNL     1      -0.017   1.425   0.010  0.00  0.00    +0.277 C 
ATOM     17  O   UNL     1       0.002  -0.004   0.002  0.00  0.00    -0.491 OA
ENDBRANCH  10  17
BRANCH  15  18
ATOM     18  O   UNL     1       0.110  -2.750  -0.139  0.00  0.00    -0.503 OA
ATOM     19  H   UNL     1      -0.818  -2.976  -0.287  0.00  0.00    +0.292 HD
ENDBRANCH  15  18
ENDBRANCH   1  12
BRANCH   5  20
ATOM     20  N   UNL     1       2.827   3.817  -4.995  0.00  0.00    -0.267 N 
ATOM     21  H   UNL     1       3.220   4.364  -5.693  0.00  0.00    +0.167 HD
BRANCH  20  22
ATOM     22  N   UNL     1       2.221   4.409  -3.924  0.00  0.00    -0.255 NA
ATOM     23  H   UNL     1       2.629   4.092  -3.057  0.00  0.00    +0.140 HD
ATOM     24  H   UNL     1       2.260   5.414  -3.996  0.00  0.00    +0.140 HD
ENDBRANCH  20  22
ENDBRANCH   5  20
TORSDOF 5
