REMARK  Name = ZINC37287375
REMARK  7 active torsions:
REMARK  status: ('A' for Active; 'I' for Inactive)
REMARK    1  A    between atoms: C_1  and  C_2
REMARK    2  A    between atoms: C_2  and  C_3
REMARK    3  A    between atoms: C_3  and  C_4
REMARK    4  A    between atoms: C_7  and  N_10
REMARK    5  A    between atoms: N_10  and  S_11
REMARK    6  A    between atoms: S_11  and  C_14
REMARK    7  A    between atoms: C_16  and  N_21
REMARK                            x       y       z     vdW  Elec       q    Type
REMARK                         _______ _______ _______ _____ _____    ______ ____
ROOT
ATOM      1  S   UNL     1      -0.538  -7.017  -0.796  0.00  0.00    +0.074 S 
ATOM      2  O   UNL     1      -1.680  -6.628  -1.547  0.00  0.00    -0.150 OA
ATOM      3  O   UNL     1      -0.064  -8.356  -0.770  0.00  0.00    -0.150 OA
ENDROOT
BRANCH   1   4
ATOM      4  C   UNL     1      -0.857  -6.562   0.876  0.00  0.00    +0.128 A 
ATOM      5  C   UNL     1      -2.066  -5.988   1.216  0.00  0.00    +0.053 A 
ATOM      6  C   UNL     1      -2.317  -5.630   2.535  0.00  0.00    +0.027 A 
ATOM      7  C   UNL     1      -1.351  -5.852   3.508  0.00  0.00    +0.024 A 
ATOM      8  C   UNL     1      -0.144  -6.427   3.162  0.00  0.00    +0.024 A 
ATOM      9  C   UNL     1       0.102  -6.787   1.848  0.00  0.00    +0.068 A 
ATOM     10 CL   UNL     1       1.617  -7.515   1.418  0.00  0.00    -0.082 Cl
BRANCH   6  11
ATOM     11  N   UNL     1      -3.539  -5.049   2.882  0.00  0.00    -0.358 N 
ATOM     12  H   UNL     1      -4.213  -4.894   2.202  0.00  0.00    +0.142 HD
ATOM     13  H   UNL     1      -3.714  -4.799   3.803  0.00  0.00    +0.142 HD
ENDBRANCH   6  11
ENDBRANCH   1   4
BRANCH   1  14
ATOM     14  N   UNL     1       0.720  -6.080  -1.327  0.00  0.00    -0.216 N 
ATOM     15  H   UNL     1       1.548  -6.496  -1.612  0.00  0.00    +0.174 HD
BRANCH  14  19
ATOM     16  C   UNL     1       0.328  -1.936  -1.437  0.00  0.00    -0.047 A 
ATOM     17  C   UNL     1       1.469  -2.507  -0.904  0.00  0.00    +0.005 A 
ATOM     18  C   UNL     1       1.602  -3.881  -0.866  0.00  0.00    +0.025 A 
ATOM     19  C   UNL     1       0.588  -4.690  -1.363  0.00  0.00    +0.048 A 
ATOM     20  C   UNL     1      -0.557  -4.113  -1.898  0.00  0.00    +0.025 A 
ATOM     21  C   UNL     1      -0.686  -2.738  -1.928  0.00  0.00    +0.005 A 
BRANCH  16  22
ATOM     22  C   UNL     1       0.186  -0.436  -1.476  0.00  0.00    +0.035 C 
BRANCH  22  24
ATOM     23  C   UNL     1      -0.620   1.571  -0.225  0.00  0.00    +0.004 C 
ATOM     24  C   UNL     1      -0.476   0.048  -0.185  0.00  0.00    +0.001 C 
ENDBRANCH  22  24
ENDBRANCH  16  22
ENDBRANCH  14  19
ENDBRANCH   1  14
TORSDOF 6
