REMARK  Name = ZINC22281618
REMARK  9 active torsions:
REMARK  status: ('A' for Active; 'I' for Inactive)
REMARK    1  A    between atoms: C_1  and  C_2
REMARK    2  A    between atoms: C_5  and  C_8
REMARK    3  A    between atoms: N_13  and  C_15
REMARK    4  A    between atoms: C_15  and  N_16
REMARK    5  A    between atoms: N_19  and  C_22
REMARK    6  A    between atoms: C_22  and  C_23
REMARK    7  A    between atoms: N_25  and  C_26
REMARK    8  A    between atoms: C_26  and  C_27
REMARK    9  A    between atoms: C_26  and  C_28
REMARK                            x       y       z     vdW  Elec       q    Type
REMARK                         _______ _______ _______ _____ _____    ______ ____
ROOT
ATOM      1  C   UNL     1       0.101  -7.525  -1.534  0.00  0.00    +0.072 C 
ENDROOT
BRANCH   1   7
ATOM      2  C   UNL     1       0.059  -4.252  -0.021  0.00  0.00    +0.160 A 
ATOM      3  N   UNL     1       0.070  -5.065   1.095  0.00  0.00    -0.317 N 
ATOM      4  H   UNL     1       0.066  -4.764   2.017  0.00  0.00    +0.169 HD
ATOM      5  C   UNL     1       0.086  -6.348   0.684  0.00  0.00    +0.174 A 
ATOM      6  S   UNL     1       0.104  -7.732   1.691  0.00  0.00    -0.012 S 
ATOM      7  N   UNL     1       0.086  -6.345  -0.665  0.00  0.00    -0.257 N 
ATOM      8  N   UNL     1       0.064  -5.008  -1.084  0.00  0.00    -0.153 NA
BRANCH   2  13
ATOM      9  C   UNL     1      -0.018   1.503   0.010  0.00  0.00    +0.044 C 
ATOM     10  C   UNL     1       0.002  -0.004   0.002  0.00  0.00    -0.050 A 
ATOM     11  C   UNL     1       0.006  -0.686  -1.202  0.00  0.00    +0.004 A 
ATOM     12  C   UNL     1       0.024  -2.066  -1.216  0.00  0.00    +0.012 A 
ATOM     13  C   UNL     1       0.040  -2.773  -0.013  0.00  0.00    +0.019 A 
ATOM     14  C   UNL     1       0.036  -2.079   1.197  0.00  0.00    +0.012 A 
ATOM     15  C   UNL     1       0.023  -0.699   1.198  0.00  0.00    +0.004 A 
ENDBRANCH   2  13
ENDBRANCH   1   7
BRANCH   1  16
ATOM     16  N   UNL     1      -1.234  -7.723  -2.113  0.00  0.00    +0.394 N 
ATOM     17  C   UNL     1      -1.559  -6.594  -2.994  0.00  0.00    -0.061 C 
ATOM     18  C   UNL     1      -2.958  -6.791  -3.582  0.00  0.00    +0.066 C 
ATOM     19  N   UNL     1      -2.994  -8.051  -4.338  0.00  0.00    -0.298 NA
ATOM     20  C   UNL     1      -2.647  -9.188  -3.475  0.00  0.00    +0.066 C 
ATOM     21  C   UNL     1      -1.251  -8.971  -2.888  0.00  0.00    -0.061 C 
ATOM     22  H   UNL     1      -1.917  -7.779  -1.372  0.00  0.00    -0.079 HD
BRANCH  19  23
ATOM     23  C   UNL     1      -4.307  -8.249  -4.968  0.00  0.00    +0.180 C 
BRANCH  23  24
ATOM     24  C   UNL     1      -4.235  -9.410  -5.925  0.00  0.00    +0.227 C 
ATOM     25  O   UNL     1      -3.193 -10.013  -6.070  0.00  0.00    -0.274 OA
ATOM     26  N   UNL     1      -5.329  -9.779  -6.622  0.00  0.00    -0.312 N 
ATOM     27  H   UNL     1      -6.162  -9.296  -6.506  0.00  0.00    +0.149 HD
BRANCH  26  28
ATOM     28  C   UNL     1      -5.259 -10.907  -7.553  0.00  0.00    +0.067 C 
ATOM     29  C   UNL     1      -5.485 -12.213  -6.789  0.00  0.00    +0.027 C 
ATOM     30  C   UNL     1      -6.338 -10.751  -8.626  0.00  0.00    +0.027 C 
ENDBRANCH  26  28
ENDBRANCH  23  24
ENDBRANCH  19  23
ENDBRANCH   1  16
TORSDOF 6
