REMARK  Name = ZINC55832554
REMARK  5 active torsions:
REMARK  status: ('A' for Active; 'I' for Inactive)
REMARK    1  A    between atoms: C_1  and  C_2
REMARK    2  A    between atoms: C_8  and  C_12
REMARK    3  A    between atoms: C_12  and  N_13
REMARK    4  A    between atoms: N_13  and  C_14
REMARK    5  A    between atoms: C_18  and  C_20
REMARK                            x       y       z     vdW  Elec       q    Type
REMARK                         _______ _______ _______ _____ _____    ______ ____
ROOT
ATOM      1  C   UNL     1      -0.018   1.503   0.010  0.00  0.00    +0.075 C 
ATOM      2  C   UNL     1       0.002  -0.004   0.002  0.00  0.00    +0.099 A 
ATOM      3  N   UNL     1      -0.997  -0.834   0.002  0.00  0.00    -0.159 NA
ATOM      4  N   UNL     1      -0.801  -2.212  -0.007  0.00  0.00    -0.171 N 
ATOM      5  C   UNL     1      -1.762  -3.182  -0.009  0.00  0.00    +0.275 A 
ATOM      6  O   UNL     1      -2.943  -2.873  -0.002  0.00  0.00    -0.266 OA
ATOM      7  C   UNL     1      -1.391  -4.527  -0.018  0.00  0.00    +0.097 A 
ATOM      8  C   UNL     1      -0.055  -4.869  -0.026  0.00  0.00    +0.066 A 
ATOM      9  N   UNL     1       0.855  -3.898  -0.024  0.00  0.00    -0.225 NA
ATOM     10  C   UNL     1       0.499  -2.639  -0.015  0.00  0.00    +0.199 A 
ATOM     11  S   UNL     1       1.406  -1.108  -0.018  0.00  0.00    -0.033 S 
ENDROOT
BRANCH   8  12
ATOM     12  C   UNL     1       0.366  -6.315  -0.036  0.00  0.00    +0.157 C 
BRANCH  12  13
ATOM     13  N   UNL     1       1.058  -6.614  -1.293  0.00  0.00    -0.338 N 
ATOM     14  H   UNL     1       1.177  -5.918  -1.958  0.00  0.00    +0.146 HD
BRANCH  13  15
ATOM     15  C   UNL     1       1.544  -7.901  -1.534  0.00  0.00    +0.029 A 
ATOM     16  C   UNL     1       1.368  -8.900  -0.583  0.00  0.00    +0.023 A 
ATOM     17  C   UNL     1       1.848 -10.175  -0.817  0.00  0.00    +0.003 A 
ATOM     18  C   UNL     1       2.506 -10.464  -1.996  0.00  0.00    +0.017 A 
ATOM     19  C   UNL     1       2.688  -9.468  -2.956  0.00  0.00    +0.026 A 
ATOM     20  C   UNL     1       2.199  -8.183  -2.723  0.00  0.00    +0.039 A 
BRANCH  19  21
ATOM     21  C   UNL     1       3.371  -9.766  -4.179  0.00  0.00    -0.070 C 
ATOM     22  C   UNL     1       3.931 -10.010  -5.181  0.00  0.00    +0.009 C 
ENDBRANCH  19  21
ENDBRANCH  13  15
ENDBRANCH  12  13
ENDBRANCH   8  12
TORSDOF 4
