REMARK  Name = ZINC62892518
REMARK  7 active torsions:
REMARK  status: ('A' for Active; 'I' for Inactive)
REMARK    1  A    between atoms: C_1  and  C_2
REMARK    2  A    between atoms: C_2  and  C_3
REMARK    3  A    between atoms: C_3  and  C_4
REMARK    4  A    between atoms: C_4  and  C_9
REMARK    5  A    between atoms: N_11  and  C_12
REMARK    6  A    between atoms: C_12  and  C_14
REMARK    7  A    between atoms: C_12  and  C_15
REMARK                            x       y       z     vdW  Elec       q    Type
REMARK                         _______ _______ _______ _____ _____    ______ ____
ROOT
ATOM      1  C   UNL     1       1.319  -2.656  -0.155  0.00  0.00    +0.218 C 
ATOM      2  O   UNL     1       2.357  -3.281  -0.226  0.00  0.00    -0.275 OA
ATOM      3  N   UNL     1       0.688  -2.531   1.029  0.00  0.00    -0.308 N 
ATOM      4  H   UNL     1      -0.101  -1.972   1.101  0.00  0.00    +0.149 HD
ENDROOT
BRANCH   1   5
ATOM      5  C   UNL     1       0.736  -2.022  -1.391  0.00  0.00    +0.030 C 
ATOM      6  C   UNL     1      -0.684  -2.576  -1.678  0.00  0.00    -0.005 C 
ATOM      7  C   UNL     1      -0.361  -3.893  -2.427  0.00  0.00    -0.082 C 
ATOM      8  N   UNL     1       0.820  -3.575  -3.258  0.00  0.00    +0.380 N 
ATOM      9  C   UNL     1       1.532  -2.437  -2.646  0.00  0.00    -0.067 C 
ATOM     10  H   UNL     1       1.432  -4.376  -3.299  0.00  0.00    -0.086 HD
ATOM     11  H   UNL     1       0.523  -3.327  -4.190  0.00  0.00    -0.086 HD
BRANCH   5  12
ATOM     12  C   UNL     1       0.704  -0.498  -1.251  0.00  0.00    +0.014 C 
BRANCH  12  14
ATOM     13  C   UNL     1       2.104   1.554  -0.984  0.00  0.00    +0.004 C 
ATOM     14  C   UNL     1       2.128   0.026  -1.055  0.00  0.00    -0.002 C 
ENDBRANCH  12  14
ENDBRANCH   5  12
ENDBRANCH   1   5
BRANCH   3  15
ATOM     15  C   UNL     1       1.195  -3.238   2.208  0.00  0.00    +0.107 C 
ATOM     16  C   UNL     1       0.636  -4.662   2.228  0.00  0.00    +0.033 C 
BRANCH  15  17
ATOM     17  C   UNL     1       0.762  -2.511   3.455  0.00  0.00    +0.011 A 
ATOM     18  C   UNL     1       1.461  -2.273   4.591  0.00  0.00    +0.014 A 
ATOM     19  C   UNL     1       0.854  -1.577   5.619  0.00  0.00    +0.028 A 
ATOM     20  C   UNL     1      -0.424  -1.152   5.460  0.00  0.00    +0.078 A 
ATOM     21  S   UNL     1      -0.804  -1.732   3.815  0.00  0.00    -0.080 S 
ATOM     22 CL   UNL     1      -1.428  -0.267   6.566  0.00  0.00    -0.076 Cl
ENDBRANCH  15  17
ENDBRANCH   3  15
TORSDOF 5
