REMARK  Name = ZINC13637340
REMARK  6 active torsions:
REMARK  status: ('A' for Active; 'I' for Inactive)
REMARK    1  A    between atoms: C_2  and  C_3
REMARK    2  A    between atoms: C_3  and  N_4
REMARK    3  A    between atoms: N_4  and  S_5
REMARK    4  A    between atoms: S_5  and  C_8
REMARK    5  A    between atoms: C_21  and  C_24
REMARK    6  A    between atoms: C_27  and  O_30
REMARK                            x       y       z     vdW  Elec       q    Type
REMARK                         _______ _______ _______ _____ _____    ______ ____
ROOT
ATOM      1  C   UNL     1       1.067   1.586   3.410  0.00  0.00    +0.106 A 
ATOM      2  C   UNL     1       1.978   0.667   2.921  0.00  0.00    +0.030 A 
ATOM      3  C   UNL     1       3.330   0.866   3.106  0.00  0.00    +0.025 A 
ATOM      4  C   UNL     1       3.788   1.983   3.794  0.00  0.00    +0.031 A 
ATOM      5  C   UNL     1       2.861   2.912   4.280  0.00  0.00    -0.018 A 
ATOM      6  C   UNL     1       1.512   2.706   4.088  0.00  0.00    +0.034 A 
ATOM      7  C   UNL     1       3.390   4.102   4.980  0.00  0.00    +0.049 C 
ATOM      8  C   UNL     1       2.594   4.836   5.996  0.00  0.00    -0.023 C 
ATOM      9  C   UNL     1       3.426   5.357   6.891  0.00  0.00    -0.030 C 
ATOM     10  C   UNL     1       4.867   4.973   6.550  0.00  0.00    +0.033 C 
ATOM     11  C   UNL     1       4.663   3.670   5.767  0.00  0.00    +0.029 C 
ATOM     12  C   UNL     1       5.697   3.328   4.709  0.00  0.00    +0.105 C 
ATOM     13  N   UNL     1       5.163   2.148   3.996  0.00  0.00    -0.336 N 
ATOM     14  H   UNL     1       5.778   1.475   3.662  0.00  0.00    +0.147 HD
ENDROOT
BRANCH  12  15
ATOM     15  C   UNL     1       5.865   4.482   3.754  0.00  0.00    -0.027 A 
ATOM     16  C   UNL     1       5.102   4.542   2.603  0.00  0.00    +0.009 A 
ATOM     17  C   UNL     1       5.249   5.601   1.729  0.00  0.00    +0.046 A 
ATOM     18  C   UNL     1       6.173   6.599   2.001  0.00  0.00    +0.117 A 
ATOM     19  C   UNL     1       6.942   6.534   3.154  0.00  0.00    +0.046 A 
ATOM     20  C   UNL     1       6.787   5.476   4.028  0.00  0.00    +0.009 A 
BRANCH  18  21
ATOM     21  O   UNL     1       6.325   7.639   1.139  0.00  0.00    -0.507 OA
ATOM     22  H   UNL     1       6.988   7.487   0.451  0.00  0.00    +0.292 HD
ENDBRANCH  18  21
ENDBRANCH  12  15
BRANCH   1  23
ATOM     23  S   UNL     1      -0.660   1.327   3.175  0.00  0.00    +0.059 S 
ATOM     24  O   UNL     1      -1.323   2.047   4.205  0.00  0.00    -0.153 OA
ATOM     25  O   UNL     1      -0.839  -0.070   2.986  0.00  0.00    -0.153 OA
BRANCH  23  26
ATOM     26  N   UNL     1      -1.074   2.054   1.746  0.00  0.00    -0.186 NA
ATOM     27  H   UNL     1      -1.681   2.811   1.745  0.00  0.00    +0.148 HD
BRANCH  26  28
ATOM     28  C   UNL     1      -0.526   1.554   0.483  0.00  0.00    +0.132 C 
BRANCH  28  30
ATOM     29  C   UNL     1      -0.705   2.772  -1.625  0.00  0.00    +0.005 C 
ATOM     30  C   UNL     1      -1.317   2.120  -0.668  0.00  0.00    -0.018 C 
ENDBRANCH  28  30
ENDBRANCH  26  28
ENDBRANCH  23  26
ENDBRANCH   1  23
TORSDOF 6
