REMARK  Name = ZINC67459766
REMARK  7 active torsions:
REMARK  status: ('A' for Active; 'I' for Inactive)
REMARK    1  A    between atoms: C_1  and  C_2
REMARK    2  A    between atoms: C_12  and  C_15
REMARK    3  A    between atoms: C_15  and  N_16
REMARK    4  A    between atoms: N_19  and  N_20
REMARK    5  A    between atoms: C_21  and  C_23
REMARK    6  A    between atoms: C_28  and  O_29
REMARK    7  A    between atoms: O_29  and  C_30
REMARK                            x       y       z     vdW  Elec       q    Type
REMARK                         _______ _______ _______ _____ _____    ______ ____
ROOT
ATOM      1  N   UNL     1      -3.369  -5.796  -4.369  0.00  0.00    -0.294 N 
ATOM      2  C   UNL     1      -3.827  -6.645  -5.310  0.00  0.00    +0.316 C 
ATOM      3  O   UNL     1      -4.917  -7.168  -5.179  0.00  0.00    -0.251 OA
ATOM      4  N   UNL     1      -3.077  -6.914  -6.397  0.00  0.00    -0.218 N 
ATOM      5  H   UNL     1      -2.500  -5.378  -4.474  0.00  0.00    +0.151 HD
ATOM      6  H   UNL     1      -3.407  -7.525  -7.075  0.00  0.00    +0.174 HD
ENDROOT
BRANCH   4   7
ATOM      7  N   UNL     1      -1.821  -6.312  -6.549  0.00  0.00    -0.229 N 
ATOM      8  C   UNL     1      -1.071  -6.581  -7.635  0.00  0.00    +0.264 C 
ATOM      9  O   UNL     1      -1.484  -7.347  -8.485  0.00  0.00    -0.269 OA
ATOM     10  H   UNL     1      -1.492  -5.700  -5.871  0.00  0.00    +0.173 HD
BRANCH   8  11
ATOM     11  C   UNL     1       0.251  -5.946  -7.795  0.00  0.00    +0.080 A 
ATOM     12  C   UNL     1       0.732  -5.070  -6.819  0.00  0.00    +0.017 A 
ATOM     13  C   UNL     1       1.968  -4.481  -6.973  0.00  0.00    +0.001 A 
ATOM     14  C   UNL     1       2.737  -4.754  -8.093  0.00  0.00    +0.004 A 
ATOM     15  C   UNL     1       2.274  -5.617  -9.065  0.00  0.00    +0.046 A 
ATOM     16  C   UNL     1       1.034  -6.224  -8.923  0.00  0.00    +0.132 A 
BRANCH  16  17
ATOM     17  O   UNL     1       0.580  -7.077  -9.875  0.00  0.00    -0.494 OA
ATOM     18  C   UNL     1       1.434  -7.311 -10.997  0.00  0.00    +0.277 C 
ENDBRANCH  16  17
ENDBRANCH   8  11
ENDBRANCH   4   7
BRANCH   1  19
ATOM     19  C   UNL     1      -4.185  -5.503  -3.188  0.00  0.00    +0.142 C 
BRANCH  19  30
ATOM     20  C   UNL     1       0.024   1.508  -0.007  0.00  0.00    +0.039 C 
ATOM     21  C   UNL     1       0.027  -0.022  -0.001  0.00  0.00    +0.132 C 
ATOM     22  C   UNL     1      -1.417  -0.537   0.001  0.00  0.00    +0.137 C 
ATOM     23  N   UNL     1      -1.389  -1.995   0.196  0.00  0.00    -0.312 N 
ATOM     24  C   UNL     1      -0.598  -2.529   1.316  0.00  0.00    +0.134 C 
ATOM     25  C   UNL     1       0.806  -1.917   1.250  0.00  0.00    +0.179 C 
ATOM     26  O   UNL     1       0.698  -0.493   1.171  0.00  0.00    -0.374 OA
ATOM     27  C   UNL     1      -2.091  -2.844  -0.652  0.00  0.00    +0.099 A 
ATOM     28  C   UNL     1      -2.927  -2.308  -1.627  0.00  0.00    +0.042 A 
ATOM     29  C   UNL     1      -3.619  -3.164  -2.464  0.00  0.00    +0.010 A 
ATOM     30  C   UNL     1      -3.451  -4.533  -2.299  0.00  0.00    -0.014 A 
ATOM     31  C   UNL     1      -2.604  -4.995  -1.311  0.00  0.00    +0.089 A 
ATOM     32  N   UNL     1      -1.953  -4.155  -0.530  0.00  0.00    -0.349 N 
ATOM     33  H   UNL     1      -1.361  -4.507   0.154  0.00  0.00    +0.167 HD
ENDBRANCH  19  30
ENDBRANCH   1  19
TORSDOF 5
