REMARK  Name = ZINC35374974
REMARK  8 active torsions:
REMARK  status: ('A' for Active; 'I' for Inactive)
REMARK    1  A    between atoms: C_1  and  C_2
REMARK    2  A    between atoms: C_2  and  C_3
REMARK    3  A    between atoms: C_3  and  C_5
REMARK    4  A    between atoms: C_3  and  C_6
REMARK    5  A    between atoms: C_6  and  N_7
REMARK    6  A    between atoms: C_8  and  C_10
REMARK    7  A    between atoms: N_23  and  C_24
REMARK    8  A    between atoms: N_23  and  C_25
REMARK                            x       y       z     vdW  Elec       q    Type
REMARK                         _______ _______ _______ _____ _____    ______ ____
ROOT
ATOM      1  C   UNL     1       4.464  -4.531   6.446  0.00  0.00    +0.028 C 
ATOM      2  C   UNL     1       5.997  -4.763   6.607  0.00  0.00    +0.061 C 
ATOM      3  S   UNL     1       5.968  -6.464   7.325  0.00  0.00    -0.174 S 
ATOM      4  C   UNL     1       4.283  -6.950   6.781  0.00  0.00    -0.016 C 
ATOM      5  N   UNL     1       3.843  -5.788   5.982  0.00  0.00    +0.397 N 
ATOM      6  C   UNL     1       4.360  -8.203   5.922  0.00  0.00    +0.017 C 
ATOM      7  C   UNL     1       2.954  -8.586   5.447  0.00  0.00    +0.109 C 
ATOM      8  N   UNL     1       2.071  -8.681   6.618  0.00  0.00    -0.286 N 
ATOM      9  C   UNL     1       1.976  -7.531   7.529  0.00  0.00    +0.109 C 
ATOM     10  C   UNL     1       3.388  -7.154   7.993  0.00  0.00    +0.017 C 
ATOM     11  C   UNL     1       1.361  -9.802   6.853  0.00  0.00    +0.304 C 
ATOM     12  O   UNL     1       1.590 -10.811   6.215  0.00  0.00    -0.252 OA
ATOM     13  N   UNL     1       0.397  -9.805   7.795  0.00  0.00    -0.292 N 
ATOM     14  C   UNL     1      -0.102 -11.074   8.328  0.00  0.00    +0.133 C 
ATOM     15  C   UNL     1      -0.150  -8.538   8.286  0.00  0.00    +0.133 C 
ATOM     16  H   UNL     1       2.840  -5.704   6.053  0.00  0.00    -0.083 HD
ATOM     17  H   UNL     1       4.091  -5.939   5.015  0.00  0.00    -0.083 HD
ENDROOT
BRANCH   1  19
ATOM     18  N   UNL     1       4.695  -2.200   5.653  0.00  0.00    -0.316 N 
ATOM     19  C   UNL     1       4.221  -3.442   5.434  0.00  0.00    +0.200 C 
ATOM     20  O   UNL     1       3.597  -3.683   4.422  0.00  0.00    -0.278 OA
ATOM     21  H   UNL     1       5.194  -2.007   6.462  0.00  0.00    +0.149 HD
BRANCH  18  22
ATOM     22  C   UNL     1       4.458  -1.141   4.669  0.00  0.00    +0.107 C 
BRANCH  22  23
ATOM     23  C   UNL     1       5.097   0.161   5.157  0.00  0.00    +0.003 C 
ATOM     24  C   UNL     1       6.617  -0.006   5.213  0.00  0.00    +0.009 C 
BRANCH  23  26
ATOM     25  C   UNL     1       5.278   2.619   4.745  0.00  0.00    +0.004 C 
ATOM     26  C   UNL     1       4.745   1.295   4.192  0.00  0.00    +0.001 C 
ENDBRANCH  23  26
ENDBRANCH  22  23
ENDBRANCH  18  22
ENDBRANCH   1  19
TORSDOF 4
