REMARK  Name = ZINC48834044
REMARK  6 active torsions:
REMARK  status: ('A' for Active; 'I' for Inactive)
REMARK    1  A    between atoms: C_1  and  C_2
REMARK    2  A    between atoms: C_2  and  C_4
REMARK    3  A    between atoms: C_2  and  S_12
REMARK    4  A    between atoms: S_12  and  C_13
REMARK    5  A    between atoms: C_16  and  C_20
REMARK    6  A    between atoms: C_17  and  N_19
REMARK                            x       y       z     vdW  Elec       q    Type
REMARK                         _______ _______ _______ _____ _____    ______ ____
ROOT
ATOM      1  S   UNL     1       0.851  -0.589  -1.490  0.00  0.00    -0.078 S 
ENDROOT
BRANCH   1   2
ATOM      2  C   UNL     1       2.509  -0.029  -1.285  0.00  0.00    +0.191 A 
ATOM      3  N   UNL     1       2.828   0.650  -0.189  0.00  0.00    -0.229 NA
ATOM      4  C   UNL     1       4.057   1.089   0.008  0.00  0.00    +0.136 A 
ATOM      5  C   UNL     1       5.035   0.832  -0.960  0.00  0.00    +0.109 A 
ATOM      6  C   UNL     1       4.658   0.108  -2.112  0.00  0.00    +0.138 A 
ATOM      7  N   UNL     1       3.401  -0.302  -2.227  0.00  0.00    -0.206 NA
BRANCH   6   8
ATOM      8  N   UNL     1       5.582  -0.173  -3.098  0.00  0.00    -0.342 N 
ATOM      9  H   UNL     1       6.499   0.128  -3.003  0.00  0.00    +0.144 HD
ATOM     10  H   UNL     1       5.314  -0.671  -3.886  0.00  0.00    +0.144 HD
ENDBRANCH   6   8
BRANCH   5  11
ATOM     11  C   UNL     1       6.380   1.291  -0.786  0.00  0.00    +0.104 C 
ATOM     12  N   UNL     1       7.447   1.656  -0.649  0.00  0.00    -0.191 NA
ENDBRANCH   5  11
ENDBRANCH   1   2
BRANCH   1  14
ATOM     13  C   UNL     1      -0.019   1.526   0.010  0.00  0.00    +0.024 C 
ATOM     14  C   UNL     1       0.002  -0.004   0.002  0.00  0.00    +0.081 C 
BRANCH  14  15
ATOM     15  C   UNL     1      -1.412  -0.526   0.013  0.00  0.00    -0.033 A 
ATOM     16  C   UNL     1      -2.275  -0.202  -1.018  0.00  0.00    +0.007 A 
ATOM     17  C   UNL     1      -3.572  -0.680  -1.010  0.00  0.00    +0.040 A 
ATOM     18  C   UNL     1      -4.007  -1.483   0.030  0.00  0.00    +0.142 A 
ATOM     19  C   UNL     1      -3.141  -1.807   1.063  0.00  0.00    +0.076 A 
ATOM     20  C   UNL     1      -1.842  -1.332   1.050  0.00  0.00    +0.027 A 
ATOM     21 CL   UNL     1      -3.684  -2.814   2.368  0.00  0.00    -0.081 Cl
ATOM     22  F   UNL     1      -5.274  -1.950   0.039  0.00  0.00    -0.204 F 
ENDBRANCH  14  15
ENDBRANCH   1  14
TORSDOF 5
