REMARK  Name = ZINC12301845
REMARK  9 active torsions:
REMARK  status: ('A' for Active; 'I' for Inactive)
REMARK    1  A    between atoms: C_1  and  C_2
REMARK    2  A    between atoms: C_2  and  C_3
REMARK    3  A    between atoms: C_2  and  C_4
REMARK    4  A    between atoms: C_2  and  C_5
REMARK    5  A    between atoms: C_5  and  N_6
REMARK    6  A    between atoms: C_12  and  C_14
REMARK    7  A    between atoms: C_14  and  C_15
REMARK    8  A    between atoms: C_20  and  O_23
REMARK    9  A    between atoms: O_23  and  C_24
REMARK                            x       y       z     vdW  Elec       q    Type
REMARK                         _______ _______ _______ _____ _____    ______ ____
ROOT
ATOM      1  N   UNL     1       1.704  -0.145  -1.007  0.00  0.00    +0.389 N 
ATOM      2  C   UNL     1       2.358  -0.729   0.174  0.00  0.00    -0.059 C 
ATOM      3  C   UNL     1       3.762  -0.136   0.304  0.00  0.00    +0.085 C 
ATOM      4  N   UNL     1       4.471  -0.252  -0.969  0.00  0.00    -0.318 N 
ATOM      5  C   UNL     1       3.841  -0.481  -2.126  0.00  0.00    +0.200 C 
ATOM      6  O   UNL     1       4.497  -0.541  -3.144  0.00  0.00    -0.278 OA
ATOM      7  C   UNL     1       2.353  -0.666  -2.217  0.00  0.00    +0.028 C 
ATOM      8  H   UNL     1       5.436  -0.160  -0.974  0.00  0.00    +0.149 HD
ATOM      9  H   UNL     1       1.793   0.860  -0.982  0.00  0.00    -0.081 HD
ENDROOT
BRANCH   1  10
ATOM     10  C   UNL     1       0.282  -0.513  -1.014  0.00  0.00    -0.072 C 
BRANCH  10  12
ATOM     11  C   UNL     1      -0.442   1.870  -0.812  0.00  0.00    +0.009 C 
ATOM     12  C   UNL     1      -0.508   0.485  -0.165  0.00  0.00    -0.052 C 
ATOM     13  C   UNL     1       0.097   0.549   1.239  0.00  0.00    +0.009 C 
ATOM     14  C   UNL     1      -1.967   0.034  -0.072  0.00  0.00    +0.009 C 
ENDBRANCH  10  12
ENDBRANCH   1  10
BRANCH   7  15
ATOM     15  C   UNL     1       1.822   0.084  -3.440  0.00  0.00    +0.090 C 
BRANCH  15  16
ATOM     16  C   UNL     1       2.181   1.543  -3.330  0.00  0.00    +0.214 C 
ATOM     17  O   UNL     1       2.900   1.925  -2.430  0.00  0.00    -0.276 OA
ATOM     18  N   UNL     1       1.704   2.425  -4.231  0.00  0.00    -0.301 N 
ATOM     19  C   UNL     1       0.828   1.979  -5.323  0.00  0.00    +0.110 C 
ATOM     20  C   UNL     1       1.418   2.454  -6.654  0.00  0.00    +0.050 C 
ATOM     21  C   UNL     1       1.635   3.968  -6.600  0.00  0.00    +0.121 C 
ATOM     22  C   UNL     1       2.627   4.304  -5.485  0.00  0.00    +0.050 C 
ATOM     23  C   UNL     1       2.046   3.851  -4.137  0.00  0.00    +0.110 C 
BRANCH  21  24
ATOM     24  O   UNL     1       2.155   4.420  -7.852  0.00  0.00    -0.380 OA
ATOM     25  C   UNL     1       1.784   5.758  -8.188  0.00  0.00    +0.194 C 
ENDBRANCH  21  24
ENDBRANCH  15  16
ENDBRANCH   7  15
TORSDOF 5
