REMARK  Name = ZINC35434294
REMARK  5 active torsions:
REMARK  status: ('A' for Active; 'I' for Inactive)
REMARK    1  A    between atoms: C_1  and  C_2
REMARK    2  A    between atoms: C_2  and  N_3
REMARK    3  A    between atoms: N_3  and  C_4
REMARK    4  A    between atoms: C_4  and  C_5
REMARK    5  A    between atoms: C_6  and  N_14
REMARK                            x       y       z     vdW  Elec       q    Type
REMARK                         _______ _______ _______ _____ _____    ______ ____
ROOT
ATOM      1  C   UNL     1       1.415  -2.433  -2.455  0.00  0.00    +0.046 A 
ATOM      2  C   UNL     1       0.844  -2.696  -3.651  0.00  0.00    +0.125 A 
ATOM      3  N   UNL     1       1.794  -3.104  -4.495  0.00  0.00    -0.214 NA
ATOM      4  C   UNL     1       2.962  -3.109  -3.868  0.00  0.00    +0.140 A 
ATOM      5  N   UNL     1       2.754  -2.684  -2.581  0.00  0.00    -0.304 N 
ATOM      6  C   UNL     1       3.798  -2.588  -1.708  0.00  0.00    +0.093 A 
ATOM      7  C   UNL     1       5.051  -2.904  -2.097  0.00  0.00    +0.018 A 
ATOM      8  C   UNL     1       5.297  -3.339  -3.410  0.00  0.00    +0.005 A 
ATOM      9  C   UNL     1       4.264  -3.448  -4.288  0.00  0.00    +0.047 A 
ENDROOT
BRANCH   2  10
ATOM     10  N   UNL     1      -0.514  -2.564  -3.953  0.00  0.00    -0.378 NA
ATOM     11  C   UNL     1      -1.053  -3.867  -4.363  0.00  0.00    +0.086 C 
ATOM     12  C   UNL     1      -2.578  -3.841  -4.283  0.00  0.00    +0.017 C 
ATOM     13  C   UNL     1      -3.018  -3.175  -2.979  0.00  0.00    +0.001 C 
ATOM     14  C   UNL     1      -3.702  -1.841  -3.293  0.00  0.00    +0.000 C 
ATOM     15  C   UNL     1      -2.631  -0.819  -3.685  0.00  0.00    +0.001 C 
ATOM     16  C   UNL     1      -2.132  -1.124  -5.098  0.00  0.00    +0.017 C 
ATOM     17  C   UNL     1      -0.680  -1.595  -5.045  0.00  0.00    +0.086 C 
ATOM     18  H   UNL     1      -1.010  -2.238  -3.137  0.00  0.00    +0.128 HD
ENDBRANCH   2  10
BRANCH   1  19
ATOM     19  C   UNL     1       0.710  -1.947  -1.215  0.00  0.00    -0.024 C 
BRANCH  19  20
ATOM     20  N   UNL     1       0.690  -0.478  -1.207  0.00  0.00    +0.383 N 
ATOM     21  H   UNL     1       0.202  -0.144  -2.024  0.00  0.00    -0.085 HD
ATOM     22  H   UNL     1       1.636  -0.129  -1.214  0.00  0.00    -0.085 HD
BRANCH  20  24
ATOM     23  C   UNL     1      -0.019   1.526   0.010  0.00  0.00    -0.017 C 
ATOM     24  C   UNL     1       0.002  -0.004   0.002  0.00  0.00    -0.086 C 
ENDBRANCH  20  24
ENDBRANCH  19  20
ENDBRANCH   1  19
TORSDOF 4
