REMARK  Name = ZINC31973867
REMARK  6 active torsions:
REMARK  status: ('A' for Active; 'I' for Inactive)
REMARK    1  A    between atoms: C_1  and  O_2
REMARK    2  A    between atoms: O_2  and  C_3
REMARK    3  A    between atoms: C_8  and  C_9
REMARK    4  A    between atoms: C_10  and  C_22
REMARK    5  A    between atoms: C_12  and  C_17
REMARK    6  A    between atoms: C_22  and  N_23
REMARK                            x       y       z     vdW  Elec       q    Type
REMARK                         _______ _______ _______ _____ _____    ______ ____
ROOT
ATOM      1  C   UNL     1       0.266  -0.290   0.560  0.00  0.00    +0.095 A 
ATOM      2  C   UNL     1       1.534  -0.556   0.162  0.00  0.00    +0.035 A 
ATOM      3  N   UNL     1       2.183   0.661  -0.016  0.00  0.00    -0.289 N 
ATOM      4  C   UNL     1       3.436   1.112  -0.396  0.00  0.00    +0.097 A 
ATOM      5  C   UNL     1       3.692   2.437  -0.450  0.00  0.00    +0.078 A 
ATOM      6  S   UNL     1       2.127   3.137   0.048  0.00  0.00    -0.057 S 
ATOM      7  C   UNL     1       1.246   1.612   0.292  0.00  0.00    +0.179 A 
ATOM      8  N   UNL     1       0.122   1.049   0.630  0.00  0.00    -0.221 NA
ENDROOT
BRANCH   1  14
ATOM      9  C   UNL     1      -2.062  -1.164   0.322  0.00  0.00    +0.129 A 
ATOM     10  C   UNL     1      -3.031  -2.111   0.608  0.00  0.00    +0.046 A 
ATOM     11  C   UNL     1      -2.736  -3.175   1.438  0.00  0.00    +0.004 A 
ATOM     12  C   UNL     1      -1.471  -3.306   1.982  0.00  0.00    +0.001 A 
ATOM     13  C   UNL     1      -0.493  -2.373   1.701  0.00  0.00    +0.014 A 
ATOM     14  C   UNL     1      -0.781  -1.296   0.866  0.00  0.00    +0.044 A 
BRANCH   9  16
ATOM     15  C   UNL     1      -3.682  -0.043  -1.009  0.00  0.00    +0.277 C 
ATOM     16  O   UNL     1      -2.353  -0.113  -0.489  0.00  0.00    -0.494 OA
ENDBRANCH   9  16
ENDBRANCH   1  14
BRANCH   4  17
ATOM     17  C   UNL     1       4.491   0.146  -0.742  0.00  0.00    +0.152 A 
ATOM     18  C   UNL     1       5.832   0.382  -0.715  0.00  0.00    +0.051 A 
ATOM     19  C   UNL     1       6.463  -0.812  -1.117  0.00  0.00    +0.042 A 
ATOM     20  C   UNL     1       5.490  -1.709  -1.366  0.00  0.00    +0.196 A 
ATOM     21  O   UNL     1       4.299  -1.129  -1.133  0.00  0.00    -0.461 OA
ENDBRANCH   4  17
BRANCH   2  22
ATOM     22  C   UNL     1       2.131  -1.923  -0.049  0.00  0.00    -0.029 C 
BRANCH  22  23
ATOM     23  N   UNL     1       2.057  -2.276  -1.473  0.00  0.00    +0.382 N 
ATOM     24  H   UNL     1       2.494  -3.274  -1.627  0.00  0.00    -0.090 HD
ATOM     25  H   UNL     1       2.617  -1.536  -2.063  0.00  0.00    -0.090 HD
ATOM     26  H   UNL     1       1.006  -2.283  -1.795  0.00  0.00    -0.090 HD
ENDBRANCH  22  23
ENDBRANCH   2  22
TORSDOF 5
