REMARK  Name = ZINC54597455
REMARK  10 active torsions:
REMARK  status: ('A' for Active; 'I' for Inactive)
REMARK    1  A    between atoms: C_1  and  C_2
REMARK    2  A    between atoms: C_2  and  C_12
REMARK    3  A    between atoms: C_4  and  C_6
REMARK    4  A    between atoms: C_6  and  N_7
REMARK    5  A    between atoms: N_7  and  C_8
REMARK    6  A    between atoms: C_8  and  C_9
REMARK    7  A    between atoms: C_8  and  C_10
REMARK    8  A    between atoms: C_8  and  C_11
REMARK    9  A    between atoms: C_12  and  C_13
REMARK   10  A    between atoms: C_13  and  C_14
REMARK                            x       y       z     vdW  Elec       q    Type
REMARK                         _______ _______ _______ _____ _____    ______ ____
ROOT
ATOM      1  C   UNL     1      -0.019   1.526   0.010  0.00  0.00    +0.011 C 
ATOM      2  C   UNL     1       0.002  -0.004   0.002  0.00  0.00    -0.030 C 
ATOM      3  C   UNL     1      -0.825  -0.728   1.066  0.00  0.00    +0.009 C 
ATOM      4  C   UNL     1       0.701  -0.708   1.167  0.00  0.00    -0.022 C 
ENDROOT
BRANCH   4   5
ATOM      5  C   UNL     1       1.447  -2.008   0.862  0.00  0.00    -0.078 C 
BRANCH   5   6
ATOM      6  N   UNL     1       2.147  -2.466   2.069  0.00  0.00    +0.382 N 
ATOM      7  H   UNL     1       2.807  -1.762   2.363  0.00  0.00    -0.085 HD
ATOM      8  H   UNL     1       1.476  -2.628   2.806  0.00  0.00    -0.085 HD
BRANCH   6   9
ATOM      9  C   UNL     1       2.862  -3.715   1.776  0.00  0.00    -0.077 C 
ATOM     10  C   UNL     1       3.879  -3.471   0.659  0.00  0.00    -0.011 C 
ATOM     11  C   UNL     1       3.592  -4.192   3.034  0.00  0.00    -0.011 C 
ATOM     12  C   UNL     1       1.862  -4.784   1.331  0.00  0.00    -0.011 C 
ENDBRANCH   6   9
ENDBRANCH   5   6
ENDBRANCH   4   5
BRANCH   2  13
ATOM     13  C   UNL     1       0.102  -0.655  -1.379  0.00  0.00    +0.011 C 
BRANCH  13  14
ATOM     14  C   UNL     1      -0.659   0.194  -2.399  0.00  0.00    +0.036 C 
BRANCH  14  15
ATOM     15  C   UNL     1      -0.560  -0.447  -3.760  0.00  0.00    -0.044 A 
ATOM     16  C   UNL     1       0.485  -0.119  -4.603  0.00  0.00    +0.007 A 
ATOM     17  C   UNL     1       0.580  -0.705  -5.851  0.00  0.00    +0.050 A 
ATOM     18  C   UNL     1      -0.373  -1.623  -6.261  0.00  0.00    +0.166 A 
ATOM     19  C   UNL     1      -1.427  -1.953  -5.411  0.00  0.00    +0.166 A 
ATOM     20  C   UNL     1      -1.512  -1.367  -4.159  0.00  0.00    +0.053 A 
ATOM     21  O   UNL     1      -2.222  -2.869  -6.038  0.00  0.00    -0.453 OA
ATOM     22  C   UNL     1      -1.874  -2.788  -7.433  0.00  0.00    +0.466 C 
ATOM     23  O   UNL     1      -0.509  -2.331  -7.420  0.00  0.00    -0.453 OA
ENDBRANCH  14  15
ENDBRANCH  13  14
ENDBRANCH   2  13
TORSDOF 6
