REMARK  Name = ZINC04883789
REMARK  8 active torsions:
REMARK  status: ('A' for Active; 'I' for Inactive)
REMARK    1  A    between atoms: C_1  and  C_2
REMARK    2  A    between atoms: C_2  and  C_3
REMARK    3  A    between atoms: C_3  and  C_23
REMARK    4  A    between atoms: C_8  and  C_10
REMARK    5  A    between atoms: C_13  and  O_16
REMARK    6  A    between atoms: N_19  and  C_22
REMARK    7  A    between atoms: C_23  and  O_25
REMARK    8  A    between atoms: O_25  and  C_26
REMARK                            x       y       z     vdW  Elec       q    Type
REMARK                         _______ _______ _______ _____ _____    ______ ____
ROOT
ATOM      1  C   UNL     1       3.416   6.038   0.379  0.00  0.00    +0.043 C 
ATOM      2  C   UNL     1       3.555   5.931  -1.154  0.00  0.00    +0.086 C 
ATOM      3  C   UNL     1       2.906   4.569  -1.519  0.00  0.00    +0.077 C 
ATOM      4  C   UNL     1       2.436   3.981  -0.172  0.00  0.00    -0.027 C 
ATOM      5  C   UNL     1       1.688   4.989  -2.340  0.00  0.00    +0.224 C 
ATOM      6  O   UNL     1       0.882   4.229  -2.833  0.00  0.00    -0.275 OA
ATOM      7  N   UNL     1       1.651   6.323  -2.436  0.00  0.00    -0.245 N 
ATOM      8  C   UNL     1       2.651   6.952  -1.807  0.00  0.00    +0.225 C 
ATOM      9  O   UNL     1       2.808   8.154  -1.768  0.00  0.00    -0.275 OA
ATOM     10  C   UNL     1       0.603   7.036  -3.169  0.00  0.00    +0.141 C 
ATOM     11  N   UNL     1       2.293   5.153   0.691  0.00  0.00    +0.395 N 
ATOM     12  H   UNL     1       1.403   5.628   0.499  0.00  0.00    -0.083 HD
ATOM     13  H   UNL     1       2.325   4.873   1.678  0.00  0.00    -0.083 HD
ENDROOT
BRANCH   4  14
ATOM     14  C   UNL     1       1.125   3.259  -0.343  0.00  0.00    -0.060 A 
ATOM     15  C   UNL     1       1.098   1.877  -0.386  0.00  0.00    +0.005 A 
ATOM     16  C   UNL     1      -0.104   1.213  -0.542  0.00  0.00    +0.045 A 
ATOM     17  C   UNL     1      -1.283   1.934  -0.662  0.00  0.00    +0.117 A 
ATOM     18  C   UNL     1      -1.254   3.320  -0.614  0.00  0.00    +0.045 A 
ATOM     19  C   UNL     1      -0.050   3.979  -0.457  0.00  0.00    +0.005 A 
BRANCH  17  20
ATOM     20  O   UNL     1      -2.465   1.283  -0.821  0.00  0.00    -0.507 OA
ATOM     21  H   UNL     1      -2.912   1.070   0.010  0.00  0.00    +0.292 HD
ENDBRANCH  17  20
ENDBRANCH   4  14
BRANCH   1  23
ATOM     22  C   UNL     1       4.455   5.457   2.576  0.00  0.00    +0.003 C 
ATOM     23  C   UNL     1       4.688   5.537   1.066  0.00  0.00    -0.004 C 
ENDBRANCH   1  23
BRANCH   1  24
ATOM     24  C   UNL     1       3.125   7.460   0.782  0.00  0.00    +0.297 C 
ATOM     25  O   UNL     1       4.024   8.180   1.151  0.00  0.00    -0.252 OA
BRANCH  24  26
ATOM     26  O   UNL     1       1.868   7.928   0.733  0.00  0.00    -0.469 OA
ATOM     27  C   UNL     1       1.662   9.308   1.136  0.00  0.00    +0.280 C 
ENDBRANCH  24  26
ENDBRANCH   1  24
TORSDOF 5
