REMARK  Name = ZINC61594908
REMARK  9 active torsions:
REMARK  status: ('A' for Active; 'I' for Inactive)
REMARK    1  A    between atoms: C_1  and  C_2
REMARK    2  A    between atoms: C_2  and  C_3
REMARK    3  A    between atoms: C_3  and  N_4
REMARK    4  A    between atoms: C_10  and  S_11
REMARK    5  A    between atoms: S_11  and  C_12
REMARK    6  A    between atoms: C_12  and  C_14
REMARK    7  A    between atoms: C_12  and  C_21
REMARK    8  A    between atoms: C_21  and  C_23
REMARK    9  A    between atoms: C_21  and  N_24
REMARK                            x       y       z     vdW  Elec       q    Type
REMARK                         _______ _______ _______ _____ _____    ______ ____
ROOT
ATOM      1  C   UNL     1       4.040  -3.660  -0.483  0.00  0.00    +0.069 C 
ENDROOT
BRANCH   1   2
ATOM      2  C   UNL     1       5.373  -3.116  -0.926  0.00  0.00    -0.036 A 
ATOM      3  C   UNL     1       5.436  -2.196  -1.956  0.00  0.00    +0.006 A 
ATOM      4  C   UNL     1       6.659  -1.696  -2.363  0.00  0.00    +0.015 A 
ATOM      5  C   UNL     1       7.820  -2.116  -1.739  0.00  0.00    +0.018 A 
ATOM      6  C   UNL     1       7.756  -3.037  -0.708  0.00  0.00    +0.015 A 
ATOM      7  C   UNL     1       6.532  -3.532  -0.299  0.00  0.00    +0.006 A 
ATOM      8 BR   UNL     1       9.493  -1.433  -2.295  0.00  0.00    -0.050 Br
ENDBRANCH   1   2
BRANCH   1   9
ATOM      9  C   UNL     1       3.535  -4.674  -1.512  0.00  0.00    -0.060 C 
ATOM     10  C   UNL     1       3.274  -3.964  -2.842  0.00  0.00    -0.013 C 
BRANCH   9  11
ATOM     11  N   UNL     1       4.548  -5.720  -1.706  0.00  0.00    +0.381 N 
ATOM     12  H   UNL     1       4.674  -6.231  -0.845  0.00  0.00    -0.090 HD
ATOM     13  H   UNL     1       4.245  -6.352  -2.431  0.00  0.00    -0.090 HD
ATOM     14  H   UNL     1       5.423  -5.295  -1.975  0.00  0.00    -0.090 HD
ENDBRANCH   9  11
ENDBRANCH   1   9
BRANCH   1  15
ATOM     15  S   UNL     1       2.848  -2.299  -0.341  0.00  0.00    -0.080 S 
BRANCH  15  22
ATOM     16  N   UNL     1       0.297  -2.384   0.804  0.00  0.00    -0.271 N 
ATOM     17  C   UNL     1      -0.555  -3.287   1.329  0.00  0.00    +0.345 A 
ATOM     18  O   UNL     1      -1.665  -3.056   1.774  0.00  0.00    -0.245 OA
ATOM     19  N   UNL     1       0.044  -4.494   1.271  0.00  0.00    -0.226 N 
ATOM     20  H   UNL     1      -0.329  -5.336   1.576  0.00  0.00    +0.194 HD
ATOM     21  N   UNL     1       1.306  -4.308   0.689  0.00  0.00    -0.145 NA
ATOM     22  C   UNL     1       1.439  -3.044   0.410  0.00  0.00    +0.193 A 
BRANCH  16  23
ATOM     23  C   UNL     1       0.047  -0.947   0.670  0.00  0.00    +0.129 C 
BRANCH  23  25
ATOM     24  C   UNL     1      -0.877   0.834  -0.819  0.00  0.00    +0.005 C 
ATOM     25  C   UNL     1      -0.617  -0.668  -0.679  0.00  0.00    +0.018 C 
ENDBRANCH  23  25
ENDBRANCH  16  23
ENDBRANCH  15  22
ENDBRANCH   1  15
TORSDOF 7
