REMARK  Name = ZINC45607213
REMARK  6 active torsions:
REMARK  status: ('A' for Active; 'I' for Inactive)
REMARK    1  A    between atoms: C_1  and  C_2
REMARK    2  A    between atoms: C_2  and  C_4
REMARK    3  A    between atoms: C_2  and  N_13
REMARK    4  A    between atoms: C_4  and  C_5
REMARK    5  A    between atoms: C_5  and  C_6
REMARK    6  A    between atoms: C_9  and  O_12
REMARK                            x       y       z     vdW  Elec       q    Type
REMARK                         _______ _______ _______ _____ _____    ______ ____
ROOT
ATOM      1  N   UNL     1      -1.361  -0.536  -0.010  0.00  0.00    -0.297 N 
ATOM      2  C   UNL     1      -2.051  -0.642  -1.163  0.00  0.00    +0.303 C 
ATOM      3  O   UNL     1      -1.568  -0.232  -2.201  0.00  0.00    -0.253 OA
ATOM      4  N   UNL     1      -3.277  -1.202  -1.165  0.00  0.00    -0.283 N 
ATOM      5  C   UNL     1      -3.927  -1.586   0.096  0.00  0.00    +0.128 C 
ATOM      6  C   UNL     1      -5.297  -0.902   0.169  0.00  0.00    +0.125 C 
ATOM      7  N   UNL     1      -6.009  -1.139  -1.095  0.00  0.00    -0.314 N 
ATOM      8  C   UNL     1      -5.359  -0.755  -2.356  0.00  0.00    +0.125 C 
ATOM      9  C   UNL     1      -3.991  -1.434  -2.429  0.00  0.00    +0.128 C 
ATOM     10  C   UNL     1      -7.273  -1.716  -1.097  0.00  0.00    +0.099 A 
ATOM     11  C   UNL     1      -7.925  -1.955   0.109  0.00  0.00    +0.042 A 
ATOM     12  C   UNL     1      -9.182  -2.530   0.092  0.00  0.00    +0.005 A 
ATOM     13  C   UNL     1      -9.749  -2.849  -1.135  0.00  0.00    +0.018 A 
ATOM     14  C   UNL     1      -9.046  -2.584  -2.293  0.00  0.00    +0.084 A 
ATOM     15  N   UNL     1      -7.849  -2.030  -2.247  0.00  0.00    -0.350 N 
ATOM     16  H   UNL     1      -1.774  -0.796   0.828  0.00  0.00    +0.151 HD
ATOM     17  H   UNL     1      -7.378  -1.851  -3.076  0.00  0.00    +0.166 HD
ENDROOT
BRANCH   1  19
ATOM     18  C   UNL     1      -0.009   1.502   0.020  0.00  0.00    +0.028 C 
ATOM     19  C   UNL     1       0.013  -0.028  -0.023  0.00  0.00    +0.072 C 
BRANCH  19  20
ATOM     20  C   UNL     1       0.766  -0.562   1.197  0.00  0.00    +0.026 C 
BRANCH  20  21
ATOM     21  C   UNL     1       0.896  -2.082   1.090  0.00  0.00    +0.037 C 
BRANCH  21  22
ATOM     22  C   UNL     1       1.637  -2.608   2.292  0.00  0.00    -0.047 A 
ATOM     23  C   UNL     1       3.016  -2.715   2.261  0.00  0.00    +0.007 A 
ATOM     24  C   UNL     1       3.698  -3.197   3.361  0.00  0.00    +0.045 A 
ATOM     25  C   UNL     1       2.999  -3.575   4.498  0.00  0.00    +0.117 A 
ATOM     26  C   UNL     1       1.616  -3.467   4.527  0.00  0.00    +0.045 A 
ATOM     27  C   UNL     1       0.939  -2.979   3.426  0.00  0.00    +0.007 A 
BRANCH  25  28
ATOM     28  O   UNL     1       3.667  -4.050   5.582  0.00  0.00    -0.507 OA
ATOM     29  H   UNL     1       3.932  -3.366   6.212  0.00  0.00    +0.292 HD
ENDBRANCH  25  28
ENDBRANCH  21  22
ENDBRANCH  20  21
ENDBRANCH  19  20
ENDBRANCH   1  19
TORSDOF 5
