REMARK  Name = ZINC39687157
REMARK  7 active torsions:
REMARK  status: ('A' for Active; 'I' for Inactive)
REMARK    1  A    between atoms: C_1  and  C_2
REMARK    2  A    between atoms: C_2  and  C_4
REMARK    3  A    between atoms: C_2  and  N_12
REMARK    4  A    between atoms: C_4  and  C_5
REMARK    5  A    between atoms: C_13  and  C_15
REMARK    6  A    between atoms: C_26  and  C_28
REMARK    7  A    between atoms: C_31  and  C_33
REMARK                            x       y       z     vdW  Elec       q    Type
REMARK                         _______ _______ _______ _____ _____    ______ ____
ROOT
ATOM      1  C   UNL     1       0.926  -0.899  -3.628  0.00  0.00    +0.100 C 
ATOM      2  C   UNL     1       1.269  -2.402  -3.532  0.00  0.00    +0.121 C 
ATOM      3  N   UNL     1       0.181  -3.082  -4.274  0.00  0.00    -0.294 N 
ATOM      4  C   UNL     1      -0.073  -2.205  -5.442  0.00  0.00    +0.115 C 
ATOM      5  C   UNL     1       0.048  -0.773  -4.884  0.00  0.00    -0.004 C 
ATOM      6  C   UNL     1      -1.331  -0.234  -4.514  0.00  0.00    -0.010 C 
ATOM      7  C   UNL     1      -2.166  -0.065  -5.786  0.00  0.00    -0.082 C 
ATOM      8  N   UNL     1      -1.486   0.861  -6.700  0.00  0.00    +0.379 N 
ATOM      9  C   UNL     1      -0.201   0.292  -7.124  0.00  0.00    -0.082 C 
ATOM     10  C   UNL     1       0.717   0.137  -5.909  0.00  0.00    -0.010 C 
ATOM     11  C   UNL     1      -0.437  -4.237  -3.958  0.00  0.00    +0.282 C 
ATOM     12  O   UNL     1      -1.256  -4.717  -4.719  0.00  0.00    -0.267 OA
ATOM     13  H   UNL     1      -2.067   1.018  -7.510  0.00  0.00    -0.086 HD
ATOM     14  H   UNL     1      -1.325   1.739  -6.229  0.00  0.00    -0.086 HD
ENDROOT
BRANCH  11  15
ATOM     15  C   UNL     1      -0.123  -4.915  -2.698  0.00  0.00    +0.190 A 
ATOM     16  C   UNL     1      -0.601  -6.145  -2.300  0.00  0.00    +0.055 A 
ATOM     17  C   UNL     1      -0.050  -6.404  -1.041  0.00  0.00    +0.050 A 
ATOM     18  C   UNL     1       0.738  -5.335  -0.720  0.00  0.00    +0.136 A 
ATOM     19  O   UNL     1       0.690  -4.448  -1.727  0.00  0.00    -0.450 OA
BRANCH  18  20
ATOM     20  C   UNL     1       1.516  -5.183   0.526  0.00  0.00    +0.017 A 
ATOM     21  C   UNL     1       1.578  -6.232   1.446  0.00  0.00    +0.014 A 
ATOM     22  C   UNL     1       2.307  -6.084   2.607  0.00  0.00    +0.039 A 
ATOM     23  C   UNL     1       2.977  -4.898   2.862  0.00  0.00    +0.123 A 
ATOM     24  C   UNL     1       2.918  -3.853   1.953  0.00  0.00    +0.039 A 
ATOM     25  C   UNL     1       2.197  -3.992   0.785  0.00  0.00    +0.014 A 
ATOM     26  F   UNL     1       3.689  -4.758   4.002  0.00  0.00    -0.205 F 
ENDBRANCH  18  20
ENDBRANCH  11  15
BRANCH   1  28
ATOM     27  N   UNL     1       0.215   0.830  -2.008  0.00  0.00    -0.312 N 
ATOM     28  C   UNL     1       0.162  -0.456  -2.407  0.00  0.00    +0.218 C 
ATOM     29  O   UNL     1      -0.501  -1.257  -1.783  0.00  0.00    -0.275 OA
ATOM     30  H   UNL     1       0.801   1.455  -2.463  0.00  0.00    +0.149 HD
BRANCH  27  32
ATOM     31  C   UNL     1      -1.973   1.747  -1.414  0.00  0.00    +0.028 C 
ATOM     32  C   UNL     1      -0.613   1.285  -0.888  0.00  0.00    +0.074 C 
BRANCH  32  33
ATOM     33  C   UNL     1       0.083   2.449  -0.180  0.00  0.00    +0.060 C 
BRANCH  33  34
ATOM     34  C   UNL     1       1.358   1.960   0.457  0.00  0.00    -0.010 A 
ATOM     35  C   UNL     1       1.355   1.533   1.772  0.00  0.00    +0.006 A 
ATOM     36  C   UNL     1       2.524   1.084   2.356  0.00  0.00    +0.000 A 
ATOM     37  C   UNL     1       3.698   1.062   1.627  0.00  0.00    +0.003 A 
ATOM     38  C   UNL     1       3.704   1.488   0.312  0.00  0.00    +0.038 A 
ATOM     39  C   UNL     1       2.532   1.933  -0.276  0.00  0.00    +0.127 A 
ATOM     40  F   UNL     1       2.535   2.345  -1.562  0.00  0.00    -0.205 F 
ENDBRANCH  33  34
ENDBRANCH  32  33
ENDBRANCH  27  32
ENDBRANCH   1  28
TORSDOF 6
