REMARK  Name = ZINC67031066
REMARK  5 active torsions:
REMARK  status: ('A' for Active; 'I' for Inactive)
REMARK    1  A    between atoms: C_4  and  N_10
REMARK    2  A    between atoms: C_5  and  C_7
REMARK    3  A    between atoms: C_11  and  C_13
REMARK    4  A    between atoms: N_16  and  C_18
REMARK    5  A    between atoms: C_21  and  N_24
REMARK                            x       y       z     vdW  Elec       q    Type
REMARK                         _______ _______ _______ _____ _____    ______ ____
ROOT
ATOM      1  N   UNL     1       3.495  -0.529  -0.056  0.00  0.00    -0.280 N 
ATOM      2  C   UNL     1       4.607   0.219  -0.205  0.00  0.00    +0.268 C 
ATOM      3  O   UNL     1       4.525   1.432  -0.222  0.00  0.00    -0.268 OA
ATOM      4  H   UNL     1       3.568  -1.492   0.039  0.00  0.00    +0.155 HD
ENDROOT
BRANCH   1   8
ATOM      5  C   UNL     1      -0.253   1.294  -0.008  0.00  0.00    +0.001 A 
ATOM      6  C   UNL     1       0.812   1.903  -0.653  0.00  0.00    +0.002 A 
ATOM      7  C   UNL     1       2.054   1.302  -0.670  0.00  0.00    +0.024 A 
ATOM      8  C   UNL     1       2.244   0.079  -0.039  0.00  0.00    +0.046 A 
ATOM      9  C   UNL     1       1.168  -0.540   0.614  0.00  0.00    +0.058 A 
ATOM     10  C   UNL     1      -0.084   0.081   0.623  0.00  0.00    +0.015 A 
BRANCH   9  11
ATOM     11  C   UNL     1       1.356  -1.839   1.287  0.00  0.00    +0.243 C 
ATOM     12  O   UNL     1       2.466  -2.330   1.360  0.00  0.00    -0.270 OA
ATOM     13  N   UNL     1       0.298  -2.481   1.821  0.00  0.00    -0.325 N 
ATOM     14  H   UNL     1      -0.587  -2.089   1.762  0.00  0.00    +0.145 HD
ATOM     15  H   UNL     1       0.422  -3.335   2.263  0.00  0.00    +0.145 HD
ENDBRANCH   9  11
ENDBRANCH   1   8
BRANCH   2  16
ATOM     16  C   UNL     1       5.923  -0.434  -0.346  0.00  0.00    +0.148 A 
ATOM     17  C   UNL     1       7.171   0.214  -0.503  0.00  0.00    +0.054 A 
ATOM     18  C   UNL     1       8.087  -0.778  -0.592  0.00  0.00    +0.115 A 
ATOM     19  N   UNL     1       7.414  -1.954  -0.492  0.00  0.00    -0.239 N 
ATOM     20  N   UNL     1       6.158  -1.732  -0.345  0.00  0.00    -0.162 NA
BRANCH  19  21
ATOM     21  C   UNL     1       8.005  -3.224  -0.539  0.00  0.00    +0.065 A 
ATOM     22  C   UNL     1       9.380  -3.346  -0.692  0.00  0.00    +0.030 A 
ATOM     23  C   UNL     1       9.960  -4.598  -0.737  0.00  0.00    +0.035 A 
ATOM     24  C   UNL     1       9.173  -5.730  -0.631  0.00  0.00    +0.126 A 
ATOM     25  C   UNL     1       7.803  -5.612  -0.479  0.00  0.00    +0.035 A 
ATOM     26  C   UNL     1       7.218  -4.362  -0.427  0.00  0.00    +0.030 A 
BRANCH  24  27
ATOM     27  N   UNL     1       9.797  -7.072  -0.680  0.00  0.00    +0.056 N 
ATOM     28  O   UNL     1      10.994  -7.176  -0.813  0.00  0.00    -0.126 OA
ATOM     29  O   UNL     1       9.110  -8.062  -0.587  0.00  0.00    -0.126 OA
ENDBRANCH  24  27
ENDBRANCH  19  21
ENDBRANCH   2  16
TORSDOF 5
