REMARK  Name = ZINC40464435
REMARK  11 active torsions:
REMARK  status: ('A' for Active; 'I' for Inactive)
REMARK    1  A    between atoms: C_1  and  C_2
REMARK    2  A    between atoms: C_2  and  C_3
REMARK    3  A    between atoms: C_3  and  N_4
REMARK    4  A    between atoms: C_5  and  C_7
REMARK    5  A    between atoms: C_7  and  N_8
REMARK    6  A    between atoms: N_8  and  C_9
REMARK    7  A    between atoms: C_10  and  C_12
REMARK    8  A    between atoms: C_12  and  C_14
REMARK    9  A    between atoms: C_12  and  N_22
REMARK   10  A    between atoms: C_14  and  C_15
REMARK   11  A    between atoms: C_18  and  O_21
REMARK                            x       y       z     vdW  Elec       q    Type
REMARK                         _______ _______ _______ _____ _____    ______ ____
ROOT
ATOM      1  C   UNL     1       2.032  -5.316  -5.867  0.00  0.00    +0.017 C 
ENDROOT
BRANCH   1   4
ATOM      2  N   UNL     1       2.027  -4.602  -3.498  0.00  0.00    -0.297 N 
ATOM      3  C   UNL     1       3.475  -4.827  -3.477  0.00  0.00    +0.132 C 
ATOM      4  C   UNL     1       1.326  -4.830  -4.627  0.00  0.00    +0.202 C 
ATOM      5  O   UNL     1       0.128  -4.644  -4.644  0.00  0.00    -0.277 OA
BRANCH   2   6
ATOM      6  C   UNL     1       1.341  -4.130  -2.293  0.00  0.00    +0.203 C 
BRANCH   6   8
ATOM      7  N   UNL     1       0.738  -1.962  -1.265  0.00  0.00    -0.314 N 
ATOM      8  C   UNL     1       1.321  -2.623  -2.285  0.00  0.00    +0.230 C 
ATOM      9  O   UNL     1       1.829  -2.004  -3.196  0.00  0.00    -0.274 OA
ATOM     10  H   UNL     1       0.332  -2.457  -0.536  0.00  0.00    +0.149 HD
BRANCH   7  11
ATOM     11  C   UNL     1       0.718  -0.497  -1.257  0.00  0.00    +0.104 C 
BRANCH  11  13
ATOM     12  C   UNL     1      -0.019   1.526   0.010  0.00  0.00    +0.005 C 
ATOM     13  C   UNL     1       0.002  -0.004   0.002  0.00  0.00    +0.015 C 
ENDBRANCH  11  13
ENDBRANCH   7  11
ENDBRANCH   6   8
ENDBRANCH   2   6
ENDBRANCH   1   4
BRANCH   1  14
ATOM     14  N   UNL     1       1.056  -5.934  -6.775  0.00  0.00    +0.386 N 
ATOM     15  H   UNL     1       1.528  -6.260  -7.605  0.00  0.00    -0.089 HD
ATOM     16  H   UNL     1       0.613  -6.714  -6.312  0.00  0.00    -0.089 HD
ATOM     17  H   UNL     1       0.357  -5.253  -7.031  0.00  0.00    -0.089 HD
ENDBRANCH   1  14
BRANCH   1  18
ATOM     18  C   UNL     1       2.703  -4.134  -6.568  0.00  0.00    +0.028 C 
BRANCH  18  19
ATOM     19  C   UNL     1       3.510  -4.636  -7.738  0.00  0.00    -0.048 A 
ATOM     20  C   UNL     1       4.834  -4.992  -7.561  0.00  0.00    +0.007 A 
ATOM     21  C   UNL     1       5.575  -5.452  -8.632  0.00  0.00    +0.045 A 
ATOM     22  C   UNL     1       4.990  -5.556  -9.886  0.00  0.00    +0.117 A 
ATOM     23  C   UNL     1       3.661  -5.199 -10.060  0.00  0.00    +0.045 A 
ATOM     24  C   UNL     1       2.923  -4.744  -8.985  0.00  0.00    +0.007 A 
BRANCH  22  25
ATOM     25  O   UNL     1       5.718  -6.008 -10.941  0.00  0.00    -0.507 OA
ATOM     26  H   UNL     1       5.681  -6.967 -11.062  0.00  0.00    +0.292 HD
ENDBRANCH  22  25
ENDBRANCH  18  19
ENDBRANCH   1  18
TORSDOF 9
