REMARK  Name = ZINC43253445
REMARK  7 active torsions:
REMARK  status: ('A' for Active; 'I' for Inactive)
REMARK    1  A    between atoms: C_1  and  C_2
REMARK    2  A    between atoms: C_2  and  C_3
REMARK    3  A    between atoms: C_3  and  C_5
REMARK    4  A    between atoms: C_3  and  N_22
REMARK    5  A    between atoms: C_5  and  C_7
REMARK    6  A    between atoms: C_5  and  N_13
REMARK    7  A    between atoms: N_16  and  C_19
REMARK                            x       y       z     vdW  Elec       q    Type
REMARK                         _______ _______ _______ _____ _____    ______ ____
ROOT
ATOM      1  C   UNL     1       0.872  -2.034   1.171  0.00  0.00    +0.079 C 
ENDROOT
BRANCH   1   2
ATOM      2  N   UNL     1       1.481  -2.616   2.374  0.00  0.00    -0.300 NA
ATOM      3  C   UNL     1       2.821  -2.061   2.608  0.00  0.00    +0.066 C 
ATOM      4  C   UNL     1       3.395  -2.647   3.900  0.00  0.00    -0.063 C 
ATOM      5  N   UNL     1       3.466  -4.110   3.784  0.00  0.00    +0.383 N 
ATOM      6  C   UNL     1       2.117  -4.652   3.575  0.00  0.00    -0.063 C 
ATOM      7  C   UNL     1       1.532  -4.082   2.281  0.00  0.00    +0.066 C 
ATOM      8  H   UNL     1       4.053  -4.357   3.001  0.00  0.00    -0.081 HD
BRANCH   5   9
ATOM      9  C   UNL     1       4.034  -4.671   5.017  0.00  0.00    -0.069 C 
ATOM     10  C   UNL     1       5.425  -5.302   4.931  0.00  0.00    -0.017 C 
ATOM     11  C   UNL     1       4.191  -6.191   5.094  0.00  0.00    -0.017 C 
ENDBRANCH   5   9
ENDBRANCH   1   2
BRANCH   1  12
ATOM     12  C   UNL     1       1.621  -2.504  -0.049  0.00  0.00    +0.007 A 
ATOM     13  C   UNL     1       1.135  -3.035  -1.197  0.00  0.00    +0.014 A 
ATOM     14  C   UNL     1       2.019  -3.400  -2.195  0.00  0.00    +0.028 A 
ATOM     15  C   UNL     1       3.348  -3.214  -1.996  0.00  0.00    +0.078 A 
ATOM     16  S   UNL     1       3.379  -2.498  -0.360  0.00  0.00    -0.080 S 
ATOM     17 CL   UNL     1       4.674  -3.573  -3.057  0.00  0.00    -0.076 Cl
ENDBRANCH   1  12
BRANCH   1  18
ATOM     18  C   UNL     1       0.939  -0.507   1.254  0.00  0.00    -0.053 C 
BRANCH  18  19
ATOM     19  N   UNL     1       0.208  -0.049   2.443  0.00  0.00    +0.381 N 
ATOM     20  H   UNL     1      -0.755  -0.341   2.379  0.00  0.00    -0.090 HD
ATOM     21  H   UNL     1       0.627  -0.449   3.269  0.00  0.00    -0.090 HD
ATOM     22  H   UNL     1       0.253   0.957   2.498  0.00  0.00    -0.090 HD
ENDBRANCH  18  19
BRANCH  18  24
ATOM     23  C   UNL     1       0.482   1.619   0.024  0.00  0.00    +0.002 C 
ATOM     24  C   UNL     1       0.305   0.100   0.001  0.00  0.00    -0.018 C 
ENDBRANCH  18  24
ENDBRANCH   1  18
TORSDOF 6
