REMARK  Name = ZINC17097561
REMARK  9 active torsions:
REMARK  status: ('A' for Active; 'I' for Inactive)
REMARK    1  A    between atoms: C_1  and  C_2
REMARK    2  A    between atoms: C_9  and  C_11
REMARK    3  A    between atoms: C_14  and  N_18
REMARK    4  A    between atoms: C_16  and  O_17
REMARK    5  A    between atoms: N_18  and  C_19
REMARK    6  A    between atoms: C_19  and  N_21
REMARK    7  A    between atoms: C_22  and  C_24
REMARK    8  A    between atoms: C_26  and  C_31
REMARK    9  A    between atoms: C_28  and  C_30
REMARK                            x       y       z     vdW  Elec       q    Type
REMARK                         _______ _______ _______ _____ _____    ______ ____
ROOT
ATOM      1  C   UNL     1       0.116  -5.541   2.260  0.00  0.00    +0.078 A 
ATOM      2  C   UNL     1       0.507  -5.576   3.601  0.00  0.00    +0.018 A 
ATOM      3  C   UNL     1       0.518  -6.771   4.283  0.00  0.00    +0.024 A 
ATOM      4  C   UNL     1       0.142  -7.948   3.640  0.00  0.00    +0.036 A 
ATOM      5  C   UNL     1      -0.247  -7.923   2.308  0.00  0.00    +0.069 A 
ATOM      6  C   UNL     1      -0.269  -6.725   1.615  0.00  0.00    +0.131 A 
ENDROOT
BRANCH   1  15
ATOM      7  C   UNL     1       0.513   1.421  -0.175  0.00  0.00    +0.044 C 
ATOM      8  C   UNL     1       0.285  -0.068  -0.131  0.00  0.00    -0.047 A 
ATOM      9  C   UNL     1      -0.162  -0.730  -1.265  0.00  0.00    +0.005 A 
ATOM     10  C   UNL     1      -0.375  -2.090  -1.240  0.00  0.00    +0.032 A 
ATOM     11  C   UNL     1      -0.139  -2.807  -0.065  0.00  0.00    +0.110 A 
ATOM     12  C   UNL     1       0.313  -2.132   1.081  0.00  0.00    +0.156 A 
ATOM     13  C   UNL     1       0.527  -0.764   1.036  0.00  0.00    +0.052 A 
ATOM     14  O   UNL     1       0.451  -3.069   2.046  0.00  0.00    -0.435 OA
ATOM     15  C   UNL     1       0.102  -4.261   1.526  0.00  0.00    +0.232 A 
ATOM     16  N   UNL     1      -0.250  -4.117   0.272  0.00  0.00    -0.209 NA
ENDBRANCH   1  15
BRANCH   6  17
ATOM     17  O   UNL     1      -0.655  -6.698   0.314  0.00  0.00    -0.506 OA
ATOM     18  H   UNL     1       0.069  -6.825  -0.314  0.00  0.00    +0.292 HD
ENDBRANCH   6  17
BRANCH   4  19
ATOM     19  N   UNL     1       0.157  -9.156   4.338  0.00  0.00    -0.296 N 
ATOM     20  H   UNL     1       0.918  -9.387   4.894  0.00  0.00    +0.154 HD
BRANCH  19  21
ATOM     21  C   UNL     1      -0.886 -10.004   4.241  0.00  0.00    +0.141 C 
ATOM     22  S   UNL     1      -2.181  -9.649   3.178  0.00  0.00    -0.018 S 
BRANCH  21  23
ATOM     23  N   UNL     1      -0.911 -11.131   4.980  0.00  0.00    -0.264 N 
ATOM     24  C   UNL     1      -1.954 -11.978   4.882  0.00  0.00    +0.250 C 
ATOM     25  O   UNL     1      -2.873 -11.726   4.128  0.00  0.00    -0.270 OA
ATOM     26  H   UNL     1      -0.178 -11.332   5.582  0.00  0.00    +0.157 HD
BRANCH  24  27
ATOM     27  C   UNL     1      -1.982 -13.213   5.692  0.00  0.00    +0.038 A 
ATOM     28  C   UNL     1      -0.930 -13.503   6.564  0.00  0.00    +0.016 A 
ATOM     29  C   UNL     1      -0.962 -14.658   7.318  0.00  0.00    -0.049 A 
ATOM     30  C   UNL     1      -2.032 -15.528   7.211  0.00  0.00    +0.006 A 
ATOM     31  C   UNL     1      -3.077 -15.247   6.349  0.00  0.00    -0.049 A 
ATOM     32  C   UNL     1      -3.061 -14.093   5.593  0.00  0.00    +0.016 A 
ATOM     33  C   UNL     1      -4.239 -16.201   6.240  0.00  0.00    +0.044 C 
ATOM     34  C   UNL     1       0.172 -14.973   8.259  0.00  0.00    +0.044 C 
ENDBRANCH  24  27
ENDBRANCH  21  23
ENDBRANCH  19  21
ENDBRANCH   4  19
TORSDOF 6
