REMARK  Name = ZINC03443798
REMARK  7 active torsions:
REMARK  status: ('A' for Active; 'I' for Inactive)
REMARK    1  A    between atoms: C_1  and  C_2
REMARK    2  A    between atoms: C_11  and  N_15
REMARK    3  A    between atoms: N_15  and  C_16
REMARK    4  A    between atoms: C_16  and  C_18
REMARK    5  A    between atoms: C_16  and  C_19
REMARK    6  A    between atoms: C_22  and  S_25
REMARK    7  A    between atoms: S_25  and  N_28
REMARK                            x       y       z     vdW  Elec       q    Type
REMARK                         _______ _______ _______ _____ _____    ______ ____
ROOT
ATOM      1  N   UNL     1       5.288   0.177   0.754  0.00  0.00    -0.322 N 
ATOM      2  H   UNL     1       4.530  -0.407   0.915  0.00  0.00    +0.148 HD
ENDROOT
BRANCH   1  12
ATOM      3  C   UNL     1      -1.390  -0.225   1.537  0.00  0.00    +0.008 C 
ATOM      4  C   UNL     1      -0.050   0.234   0.957  0.00  0.00    -0.009 C 
ATOM      5  C   UNL     1       1.095  -0.270   1.840  0.00  0.00    +0.008 C 
ATOM      6  C   UNL     1       2.433  -0.033   1.139  0.00  0.00    +0.037 C 
ATOM      7  C   UNL     1       2.522   1.433   0.725  0.00  0.00    -0.025 A 
ATOM      8  C   UNL     1       1.407   2.193   0.643  0.00  0.00    -0.004 A 
ATOM      9  S   UNL     1       1.970   3.799   0.137  0.00  0.00    -0.073 S 
ATOM     10  C   UNL     1       3.696   3.453   0.034  0.00  0.00    +0.114 A 
ATOM     11  C   UNL     1       3.780   2.085   0.402  0.00  0.00    +0.051 A 
ATOM     12  C   UNL     1       5.080   1.502   0.413  0.00  0.00    +0.131 A 
ATOM     13  N   UNL     1       6.082   2.311   0.076  0.00  0.00    -0.220 NA
ATOM     14  C   UNL     1       5.927   3.577  -0.255  0.00  0.00    +0.224 A 
ATOM     15  N   UNL     1       4.746   4.182  -0.287  0.00  0.00    -0.228 NA
ATOM     16  C   UNL     1      -0.003   1.768   0.920  0.00  0.00    +0.046 C 
ENDBRANCH   1  12
BRANCH   1  17
ATOM     17  C   UNL     1       6.652  -0.343   0.873  0.00  0.00    +0.099 C 
ATOM     18  C   UNL     1       7.156  -0.772  -0.507  0.00  0.00    +0.033 C 
BRANCH  17  19
ATOM     19  C   UNL     1       6.658  -1.530   1.801  0.00  0.00    -0.027 A 
ATOM     20  C   UNL     1       5.626  -2.449   1.754  0.00  0.00    +0.007 A 
ATOM     21  C   UNL     1       5.634  -3.541   2.603  0.00  0.00    +0.029 A 
ATOM     22  C   UNL     1       6.668  -3.708   3.505  0.00  0.00    +0.105 A 
ATOM     23  C   UNL     1       7.697  -2.786   3.555  0.00  0.00    +0.029 A 
ATOM     24  C   UNL     1       7.691  -1.697   2.704  0.00  0.00    +0.007 A 
BRANCH  22  25
ATOM     25  S   UNL     1       6.674  -5.095   4.591  0.00  0.00    +0.056 S 
ATOM     26  O   UNL     1       5.883  -6.099   3.971  0.00  0.00    -0.153 OA
ATOM     27  O   UNL     1       8.028  -5.314   4.963  0.00  0.00    -0.153 OA
BRANCH  25  28
ATOM     28  N   UNL     1       5.872  -4.643   5.968  0.00  0.00    -0.204 NA
ATOM     29  H   UNL     1       5.387  -5.304   6.486  0.00  0.00    +0.144 HD
ATOM     30  H   UNL     1       5.887  -3.717   6.256  0.00  0.00    +0.144 HD
ENDBRANCH  25  28
ENDBRANCH  22  25
ENDBRANCH  17  19
ENDBRANCH   1  17
TORSDOF 5
