REMARK  Name = ZINC31995249
REMARK  2 active torsions:
REMARK  status: ('A' for Active; 'I' for Inactive)
REMARK    1  A    between atoms: N_7  and  C_9
REMARK    2  A    between atoms: C_9  and  C_10
REMARK                            x       y       z     vdW  Elec       q    Type
REMARK                         _______ _______ _______ _____ _____    ______ ____
ROOT
ATOM      1  C   UNL     1      -2.195  -5.948  -1.575  0.00  0.00    -0.019 C 
ATOM      2  C   UNL     1      -2.183  -4.426  -1.407  0.00  0.00    +0.001 C 
ATOM      3  C   UNL     1      -2.727  -4.069  -0.022  0.00  0.00    -0.059 C 
ATOM      4  C   UNL     1      -1.813  -4.664   1.053  0.00  0.00    +0.001 C 
ATOM      5  C   UNL     1      -0.419  -4.043   0.926  0.00  0.00    -0.018 C 
ATOM      6  C   UNL     1      -0.530  -2.523   1.056  0.00  0.00    -0.079 C 
ATOM      7  N   UNL     1      -1.413  -2.002   0.005  0.00  0.00    +0.380 N 
ATOM      8  C   UNL     1      -2.771  -2.548   0.134  0.00  0.00    -0.074 C 
ATOM      9  C   UNL     1      -4.137  -4.642   0.133  0.00  0.00    -0.078 C 
ATOM     10  N   UNL     1      -4.096  -6.100  -0.037  0.00  0.00    +0.379 N 
ATOM     11  C   UNL     1      -3.622  -6.466  -1.377  0.00  0.00    -0.083 C 
ATOM     12  H   UNL     1      -3.413  -6.536   0.708  0.00  0.00    -0.086 HD
ATOM     13  H   UNL     1      -1.011  -2.331  -0.965  0.00  0.00    -0.082 HD
ATOM     14  H   UNL     1      -5.105  -6.514   0.104  0.00  0.00    -0.086 HD
ENDROOT
BRANCH   7  15
ATOM     15  C   UNL     1      -1.433  -0.534   0.013  0.00  0.00    -0.075 C 
BRANCH  15  16
ATOM     16  C   UNL     1       0.001  -0.004  -0.029  0.00  0.00    -0.021 C 
ATOM     17  C   UNL     1      -0.018   1.525   0.028  0.00  0.00    -0.009 C 
ATOM     18  C   UNL     1      -0.797   2.070  -1.171  0.00  0.00    +0.007 C 
ATOM     19  C   UNL     1      -0.124   1.616  -2.467  0.00  0.00    -0.010 C 
ATOM     20  C   UNL     1       1.311   2.146  -2.509  0.00  0.00    +0.007 C 
ATOM     21  C   UNL     1       2.091   1.601  -1.311  0.00  0.00    -0.010 C 
ATOM     22  C   UNL     1       1.417   2.055  -0.014  0.00  0.00    +0.007 C 
ATOM     23  C   UNL     1       2.110   0.072  -1.367  0.00  0.00    +0.007 C 
ATOM     24  C   UNL     1       0.675  -0.458  -1.325  0.00  0.00    -0.009 C 
ATOM     25  C   UNL     1      -0.105   0.087  -2.523  0.00  0.00    +0.007 C 
ENDBRANCH  15  16
ENDBRANCH   7  15
TORSDOF 2
