REMARK  Name = ZINC55539994
REMARK  9 active torsions:
REMARK  status: ('A' for Active; 'I' for Inactive)
REMARK    1  A    between atoms: C_1  and  C_2
REMARK    2  A    between atoms: C_3  and  C_12
REMARK    3  A    between atoms: C_12  and  C_13
REMARK    4  A    between atoms: C_13  and  C_14
REMARK    5  A    between atoms: N_16  and  C_17
REMARK    6  A    between atoms: C_17  and  C_18
REMARK    7  A    between atoms: C_18  and  C_20
REMARK    8  A    between atoms: C_18  and  C_21
REMARK    9  A    between atoms: C_21  and  N_22
REMARK                            x       y       z     vdW  Elec       q    Type
REMARK                         _______ _______ _______ _____ _____    ______ ____
ROOT
ATOM      1  C   UNL     1      -3.994   1.081  -1.779  0.00  0.00    +0.213 C 
ATOM      2  O   UNL     1      -4.360   1.486  -0.696  0.00  0.00    -0.276 OA
ATOM      3  N   UNL     1      -4.777   1.254  -2.863  0.00  0.00    -0.315 N 
ATOM      4  H   UNL     1      -4.484   0.931  -3.729  0.00  0.00    +0.149 HD
ENDROOT
BRANCH   1   5
ATOM      5  C   UNL     1      -2.665   0.385  -1.913  0.00  0.00    +0.100 C 
BRANCH   5   6
ATOM      6  C   UNL     1      -1.983   0.320  -0.545  0.00  0.00    +0.051 C 
BRANCH   6   9
ATOM      7  C   UNL     1       0.424   1.843  -0.905  0.00  0.00    +0.064 C 
ATOM      8  C   UNL     1       0.480   0.339  -0.848  0.00  0.00    +0.026 A 
ATOM      9  C   UNL     1      -0.653  -0.376  -0.679  0.00  0.00    +0.036 A 
ATOM     10  C   UNL     1      -0.575  -1.789  -0.629  0.00  0.00    +0.257 A 
ATOM     11  O   UNL     1      -1.584  -2.455  -0.477  0.00  0.00    -0.267 OA
ATOM     12  N   UNL     1       0.625  -2.390  -0.750  0.00  0.00    -0.275 N 
ATOM     13  H   UNL     1       0.687  -3.358  -0.717  0.00  0.00    +0.173 HD
ATOM     14  C   UNL     1       1.739  -1.653  -0.918  0.00  0.00    +0.327 A 
ATOM     15  O   UNL     1       2.815  -2.209  -1.026  0.00  0.00    -0.247 OA
ATOM     16  N   UNL     1       1.678  -0.310  -0.973  0.00  0.00    -0.311 N 
ATOM     17  H   UNL     1       2.491   0.203  -1.098  0.00  0.00    +0.170 HD
ENDBRANCH   6   9
ENDBRANCH   5   6
ENDBRANCH   1   5
BRANCH   3  18
ATOM     18  C   UNL     1      -6.069   1.932  -2.733  0.00  0.00    +0.105 C 
BRANCH  18  19
ATOM     19  C   UNL     1      -6.751   1.996  -4.101  0.00  0.00    -0.014 C 
ATOM     20  C   UNL     1      -7.082   0.579  -4.573  0.00  0.00    +0.007 C 
BRANCH  19  21
ATOM     21  C   UNL     1      -8.041   2.812  -3.990  0.00  0.00    -0.074 C 
BRANCH  21  22
ATOM     22  N   UNL     1      -7.713   4.206  -3.667  0.00  0.00    +0.380 N 
ATOM     23  C   UNL     1      -7.046   4.856  -4.824  0.00  0.00    -0.079 C 
ATOM     24  C   UNL     1      -7.281   6.366  -4.567  0.00  0.00    -0.020 C 
ATOM     25  C   UNL     1      -8.710   6.398  -3.979  0.00  0.00    -0.020 C 
ATOM     26  C   UNL     1      -8.950   4.980  -3.429  0.00  0.00    -0.079 C 
ATOM     27  H   UNL     1      -7.116   4.245  -2.854  0.00  0.00    -0.082 HD
ENDBRANCH  21  22
ENDBRANCH  19  21
ENDBRANCH  18  19
ENDBRANCH   3  18
TORSDOF 7
