REMARK  Name = ZINC54796697
REMARK  6 active torsions:
REMARK  status: ('A' for Active; 'I' for Inactive)
REMARK    1  A    between atoms: C_1  and  C_2
REMARK    2  A    between atoms: C_3  and  C_8
REMARK    3  A    between atoms: C_8  and  N_9
REMARK    4  A    between atoms: N_9  and  C_10
REMARK    5  A    between atoms: C_13  and  O_17
REMARK    6  A    between atoms: O_17  and  C_18
REMARK                            x       y       z     vdW  Elec       q    Type
REMARK                         _______ _______ _______ _____ _____    ______ ____
ROOT
ATOM      1  C   UNL     1       1.585   0.531  -4.224  0.00  0.00    +0.030 A 
ATOM      2  C   UNL     1       0.539   0.622  -5.133  0.00  0.00    +0.046 A 
ATOM      3  C   UNL     1       0.775   1.081  -6.415  0.00  0.00    +0.086 A 
ATOM      4  C   UNL     1       2.058   1.451  -6.795  0.00  0.00    +0.163 A 
ATOM      5  C   UNL     1       3.103   1.360  -5.887  0.00  0.00    +0.086 A 
ATOM      6  C   UNL     1       2.867   0.907  -4.603  0.00  0.00    +0.046 A 
ATOM      7 CL   UNL     1       4.708   1.822  -6.363  0.00  0.00    -0.080 Cl
ATOM      8 CL   UNL     1      -0.533   1.194  -7.551  0.00  0.00    -0.080 Cl
ENDROOT
BRANCH   1   9
ATOM      9  N   UNL     1       1.347   0.066  -2.926  0.00  0.00    -0.338 N 
ATOM     10  H   UNL     1       2.077   0.007  -2.291  0.00  0.00    +0.146 HD
BRANCH   9  11
ATOM     11  C   UNL     1      -0.006  -0.331  -2.527  0.00  0.00    +0.156 C 
BRANCH  11  14
ATOM     12  C   UNL     1      -0.018   1.503   0.010  0.00  0.00    +0.065 C 
ATOM     13  C   UNL     1       0.002  -0.004   0.002  0.00  0.00    +0.035 A 
ATOM     14  C   UNL     1       0.008  -0.789  -1.092  0.00  0.00    +0.053 A 
ATOM     15  N   UNL     1       0.028  -2.085  -0.650  0.00  0.00    -0.348 N 
ATOM     16  H   UNL     1       0.037  -2.882  -1.202  0.00  0.00    +0.166 HD
ATOM     17  C   UNL     1       0.034  -2.046   0.700  0.00  0.00    +0.171 A 
ATOM     18  N   UNL     1       0.024  -0.798   1.083  0.00  0.00    -0.350 N 
ATOM     19  H   UNL     1       0.029  -0.493   2.004  0.00  0.00    +0.166 HD
ENDBRANCH  11  14
ENDBRANCH   9  11
ENDBRANCH   1   9
BRANCH   4  20
ATOM     20  O   UNL     1       2.289   1.902  -8.057  0.00  0.00    -0.431 OA
BRANCH  20  21
ATOM     21  C   UNL     1       2.170   3.309  -8.275  0.00  0.00    +0.541 C 
ATOM     22  F   UNL     1       0.870   3.721  -7.961  0.00  0.00    -0.166 F 
ATOM     23  F   UNL     1       3.083   3.987  -7.459  0.00  0.00    -0.166 F 
ENDBRANCH  20  21
ENDBRANCH   4  20
TORSDOF 5
