REMARK  Name = ZINC33697636
REMARK  7 active torsions:
REMARK  status: ('A' for Active; 'I' for Inactive)
REMARK    1  A    between atoms: C_1  and  C_2
REMARK    2  A    between atoms: C_2  and  O_3
REMARK    3  A    between atoms: O_3  and  C_4
REMARK    4  A    between atoms: C_7  and  C_10
REMARK    5  A    between atoms: N_18  and  C_21
REMARK    6  A    between atoms: C_29  and  N_33
REMARK    7  A    between atoms: C_30  and  C_31
REMARK                            x       y       z     vdW  Elec       q    Type
REMARK                         _______ _______ _______ _____ _____    ______ ____
ROOT
ATOM      1  C   UNL     1       1.109  -6.040  -1.847  0.00  0.00    +0.075 C 
ATOM      2  C   UNL     1       2.589  -6.399  -1.803  0.00  0.00    +0.110 C 
ATOM      3  C   UNL     1       2.860  -7.828  -2.303  0.00  0.00    +0.152 C 
ATOM      4  C   UNL     1       2.326  -8.676  -1.187  0.00  0.00    +0.240 C 
ATOM      5  O   UNL     1       1.845  -9.785  -1.273  0.00  0.00    -0.274 OA
ATOM      6  N   UNL     1       2.498  -7.938  -0.063  0.00  0.00    -0.209 N 
ATOM      7  C   UNL     1       2.856  -6.628  -0.298  0.00  0.00    +0.232 C 
ATOM      8  O   UNL     1       3.296  -5.819   0.491  0.00  0.00    -0.274 OA
ATOM      9  S   UNL     1       2.187  -8.171  -3.922  0.00  0.00    -0.096 S 
ATOM     10  C   UNL     1       0.655  -7.306  -3.978  0.00  0.00    +0.074 C 
ATOM     11  C   UNL     1       0.349  -6.408  -3.056  0.00  0.00    +0.064 C 
ENDROOT
BRANCH   6  12
ATOM     12  C   UNL     1       2.327  -8.459   1.228  0.00  0.00    +0.044 A 
ATOM     13  C   UNL     1       2.514  -7.643   2.336  0.00  0.00    +0.027 A 
ATOM     14  C   UNL     1       2.345  -8.157   3.607  0.00  0.00    +0.040 A 
ATOM     15  C   UNL     1       1.990  -9.485   3.776  0.00  0.00    +0.124 A 
ATOM     16  C   UNL     1       1.803 -10.300   2.672  0.00  0.00    +0.040 A 
ATOM     17  C   UNL     1       1.965  -9.788   1.400  0.00  0.00    +0.027 A 
ATOM     18  F   UNL     1       1.825  -9.986   5.020  0.00  0.00    -0.205 F 
ENDBRANCH   6  12
BRANCH   1  22
ATOM     19  C   UNL     1       0.777  -1.810  -1.336  0.00  0.00    +0.121 A 
ATOM     20  C   UNL     1       0.243  -2.669  -0.386  0.00  0.00    +0.046 A 
ATOM     21  C   UNL     1       0.351  -4.036  -0.554  0.00  0.00    +0.008 A 
ATOM     22  C   UNL     1       0.992  -4.548  -1.667  0.00  0.00    -0.038 A 
ATOM     23  C   UNL     1       1.525  -3.694  -2.615  0.00  0.00    +0.008 A 
ATOM     24  C   UNL     1       1.414  -2.327  -2.455  0.00  0.00    +0.046 A 
BRANCH  19  25
ATOM     25  O   UNL     1       0.671  -0.465  -1.174  0.00  0.00    -0.492 OA
BRANCH  25  27
ATOM     26  C   UNL     1      -0.019   1.526   0.010  0.00  0.00    +0.048 C 
ATOM     27  C   UNL     1       0.002  -0.004   0.002  0.00  0.00    +0.225 C 
ENDBRANCH  25  27
ENDBRANCH  19  25
ENDBRANCH   1  22
BRANCH  10  28
ATOM     28  N   UNL     1      -0.230  -7.561  -4.998  0.00  0.00    -0.352 N 
ATOM     29  H   UNL     1      -0.008  -8.214  -5.681  0.00  0.00    +0.143 HD
ATOM     30  H   UNL     1      -1.076  -7.089  -5.035  0.00  0.00    +0.143 HD
ENDBRANCH  10  28
BRANCH  11  31
ATOM     31  C   UNL     1      -0.875  -5.698  -3.273  0.00  0.00    +0.098 C 
ATOM     32  N   UNL     1      -1.846  -5.135  -3.446  0.00  0.00    -0.191 NA
ENDBRANCH  11  31
TORSDOF 6
