REMARK  Name = ZINC67271955
REMARK  13 active torsions:
REMARK  status: ('A' for Active; 'I' for Inactive)
REMARK    1  A    between atoms: C_1  and  C_2
REMARK    2  A    between atoms: N_5  and  C_8
REMARK    3  A    between atoms: C_8  and  C_10
REMARK    4  A    between atoms: C_8  and  C_11
REMARK    5  A    between atoms: C_11  and  N_12
REMARK    6  A    between atoms: C_13  and  C_15
REMARK    7  A    between atoms: C_17  and  O_28
REMARK    8  A    between atoms: C_18  and  O_23
REMARK    9  A    between atoms: C_19  and  O_21
REMARK   10  A    between atoms: O_21  and  C_22
REMARK   11  A    between atoms: O_23  and  C_24
REMARK   12  A    between atoms: C_24  and  C_25
REMARK   13  A    between atoms: O_28  and  C_29
REMARK                            x       y       z     vdW  Elec       q    Type
REMARK                         _______ _______ _______ _____ _____    ______ ____
ROOT
ATOM      1  C   UNL     1       1.276  -3.442  -4.868  0.00  0.00    +0.044 A 
ATOM      2  C   UNL     1       0.255  -2.518  -4.634  0.00  0.00    +0.062 A 
ATOM      3  C   UNL     1      -0.410  -1.941  -5.699  0.00  0.00    +0.166 A 
ATOM      4  C   UNL     1      -0.064  -2.280  -7.005  0.00  0.00    +0.204 A 
ATOM      5  C   UNL     1       0.953  -3.201  -7.240  0.00  0.00    +0.166 A 
ATOM      6  C   UNL     1       1.625  -3.777  -6.179  0.00  0.00    +0.062 A 
ENDROOT
BRANCH   1   8
ATOM      7  N   UNL     1       1.651  -3.736  -2.468  0.00  0.00    -0.313 N 
ATOM      8  C   UNL     1       1.989  -4.060  -3.732  0.00  0.00    +0.244 C 
ATOM      9  O   UNL     1       2.881  -4.860  -3.937  0.00  0.00    -0.270 OA
ATOM     10  H   UNL     1       0.939  -3.098  -2.305  0.00  0.00    +0.149 HD
BRANCH   7  11
ATOM     11  C   UNL     1       2.358  -4.349  -1.341  0.00  0.00    +0.089 C 
BRANCH  11  12
ATOM     12  C   UNL     1       1.709  -3.904  -0.029  0.00  0.00    -0.054 C 
ATOM     13  C   UNL     1       2.499  -4.475   1.150  0.00  0.00    -0.012 C 
BRANCH  12  18
ATOM     14  C   UNL     1       2.260   1.619   1.282  0.00  0.00    +0.007 C 
ATOM     15  C   UNL     1       2.320   0.091   1.323  0.00  0.00    -0.018 C 
ATOM     16  C   UNL     1       0.899  -0.479   1.276  0.00  0.00    -0.016 C 
ATOM     17  C   UNL     1       0.970  -2.007   1.237  0.00  0.00    -0.078 C 
ATOM     18  N   UNL     1       1.711  -2.437   0.045  0.00  0.00    +0.382 N 
ATOM     19  C   UNL     1       3.095  -1.954   0.119  0.00  0.00    -0.078 C 
ATOM     20  C   UNL     1       3.107  -0.424   0.115  0.00  0.00    -0.016 C 
ATOM     21  H   UNL     1       1.268  -2.060  -0.779  0.00  0.00    -0.081 HD
ENDBRANCH  12  18
ENDBRANCH  11  12
ENDBRANCH   7  11
ENDBRANCH   1   8
BRANCH   5  22
ATOM     22  O   UNL     1       1.288  -3.531  -8.516  0.00  0.00    -0.491 OA
ATOM     23  C   UNL     1       2.341  -4.483  -8.685  0.00  0.00    +0.277 C 
ENDBRANCH   5  22
BRANCH   3  24
ATOM     24  O   UNL     1      -1.405  -1.041  -5.472  0.00  0.00    -0.491 OA
ATOM     25  C   UNL     1      -1.708  -0.740  -4.109  0.00  0.00    +0.277 C 
ENDBRANCH   3  24
BRANCH   4  26
ATOM     26  O   UNL     1      -0.720  -1.712  -8.050  0.00  0.00    -0.476 OA
BRANCH  26  27
ATOM     27  C   UNL     1      -0.182  -0.494  -8.569  0.00  0.00    +0.324 C 
BRANCH  27  28
ATOM     28  C   UNL     1      -1.035  -0.016  -9.716  0.00  0.00    +0.248 C 
ATOM     29  O   UNL     1      -2.009  -0.655 -10.055  0.00  0.00    -0.272 OA
ATOM     30  N   UNL     1      -0.716   1.122 -10.364  0.00  0.00    -0.327 N 
ATOM     31  H   UNL     1       0.062   1.633 -10.093  0.00  0.00    +0.145 HD
ATOM     32  H   UNL     1      -1.266   1.430 -11.102  0.00  0.00    +0.145 HD
ENDBRANCH  27  28
ENDBRANCH  26  27
ENDBRANCH   4  26
TORSDOF 9
