REMARK  Name = ZINC44731495
REMARK  7 active torsions:
REMARK  status: ('A' for Active; 'I' for Inactive)
REMARK    1  A    between atoms: C_1  and  C_2
REMARK    2  A    between atoms: C_4  and  C_8
REMARK    3  A    between atoms: C_5  and  C_7
REMARK    4  A    between atoms: C_8  and  C_10
REMARK    5  A    between atoms: C_8  and  N_11
REMARK    6  A    between atoms: C_12  and  C_14
REMARK    7  A    between atoms: C_19  and  O_20
REMARK                            x       y       z     vdW  Elec       q    Type
REMARK                         _______ _______ _______ _____ _____    ______ ____
ROOT
ATOM      1  N   UNL     1      -2.786  -3.079   0.471  0.00  0.00    -0.305 N 
ATOM      2  C   UNL     1      -3.542  -4.045   1.030  0.00  0.00    +0.248 C 
ATOM      3  O   UNL     1      -3.104  -5.174   1.135  0.00  0.00    -0.270 OA
ATOM      4  H   UNL     1      -3.135  -2.178   0.387  0.00  0.00    +0.150 HD
ENDROOT
BRANCH   2   5
ATOM      5  C   UNL     1      -4.900  -3.731   1.513  0.00  0.00    +0.079 A 
ATOM      6  C   UNL     1      -5.408  -2.436   1.389  0.00  0.00    +0.036 A 
ATOM      7  C   UNL     1      -6.678  -2.149   1.843  0.00  0.00    +0.042 A 
ATOM      8  C   UNL     1      -7.454  -3.142   2.423  0.00  0.00    +0.023 A 
ATOM      9  C   UNL     1      -6.963  -4.425   2.552  0.00  0.00    +0.047 A 
ATOM     10  C   UNL     1      -5.689  -4.732   2.095  0.00  0.00    +0.129 A 
ATOM     11 CL   UNL     1      -7.309  -0.539   1.688  0.00  0.00    -0.084 Cl
BRANCH  10  12
ATOM     12  O   UNL     1      -5.208  -5.995   2.216  0.00  0.00    -0.506 OA
ATOM     13  H   UNL     1      -4.739  -6.159   3.045  0.00  0.00    +0.292 HD
ENDBRANCH  10  12
ENDBRANCH   2   5
BRANCH   1  14
ATOM     14  C   UNL     1      -1.437  -3.390  -0.009  0.00  0.00    +0.104 C 
ATOM     15  C   UNL     1      -1.518  -3.946  -1.432  0.00  0.00    +0.033 C 
BRANCH  14  19
ATOM     16  C   UNL     1      -0.018   1.503   0.010  0.00  0.00    +0.086 C 
ATOM     17  C   UNL     1       0.002  -0.004   0.002  0.00  0.00    +0.103 A 
ATOM     18  C   UNL     1      -1.078  -0.805   0.003  0.00  0.00    +0.050 A 
ATOM     19  C   UNL     1      -0.601  -2.136  -0.007  0.00  0.00    +0.013 A 
ATOM     20  C   UNL     1       0.742  -2.069  -0.013  0.00  0.00    +0.107 A 
ATOM     21  O   UNL     1       1.102  -0.775  -0.013  0.00  0.00    -0.465 OA
ATOM     22  C   UNL     1       1.684  -3.245  -0.023  0.00  0.00    +0.086 C 
ENDBRANCH  14  19
ENDBRANCH   1  14
TORSDOF 4
