REMARK  Name = ZINC19361998
REMARK  7 active torsions:
REMARK  status: ('A' for Active; 'I' for Inactive)
REMARK    1  A    between atoms: C_1  and  C_2
REMARK    2  A    between atoms: C_2  and  C_3
REMARK    3  A    between atoms: C_3  and  C_5
REMARK    4  A    between atoms: C_3  and  N_6
REMARK    5  A    between atoms: C_10  and  N_11
REMARK    6  A    between atoms: N_11  and  C_12
REMARK    7  A    between atoms: C_18  and  N_20
REMARK                            x       y       z     vdW  Elec       q    Type
REMARK                         _______ _______ _______ _____ _____    ______ ____
ROOT
ATOM      1  N   UNL     1      -0.111  -0.146   2.434  0.00  0.00    -0.246 N 
ATOM      2  C   UNL     1       0.368   0.685   3.382  0.00  0.00    +0.259 C 
ATOM      3  O   UNL     1       1.475   1.180   3.277  0.00  0.00    -0.269 OA
ATOM      4  C   UNL     1      -0.485   0.977   4.548  0.00  0.00    +0.113 C 
ATOM      5  C   UNL     1      -0.062   1.820   5.558  0.00  0.00    +0.086 C 
ATOM      6  C   UNL     1      -1.810   0.332   4.588  0.00  0.00    +0.256 C 
ATOM      7  O   UNL     1      -2.571   0.525   5.518  0.00  0.00    -0.270 OA
ATOM      8  N   UNL     1      -2.156  -0.477   3.566  0.00  0.00    -0.263 N 
ATOM      9  C   UNL     1      -1.330  -0.695   2.533  0.00  0.00    +0.146 C 
ATOM     10  S   UNL     1      -1.857  -1.733   1.278  0.00  0.00    -0.018 S 
ATOM     11  H   UNL     1      -3.024  -0.910   3.577  0.00  0.00    +0.157 HD
ENDROOT
BRANCH   1  12
ATOM     12  C   UNL     1       0.718  -0.452   1.265  0.00  0.00    +0.080 C 
ATOM     13  C   UNL     1       1.077   0.846   0.540  0.00  0.00    +0.028 C 
BRANCH  12  15
ATOM     14  C   UNL     1       1.649  -2.512   2.329  0.00  0.00    +0.006 C 
ATOM     15  C   UNL     1       2.000  -1.154   1.718  0.00  0.00    +0.019 C 
ENDBRANCH  12  15
ENDBRANCH   1  12
BRANCH   5  16
ATOM     16  N   UNL     1      -0.910   2.165   6.548  0.00  0.00    -0.348 N 
ATOM     17  H   UNL     1      -1.793   1.765   6.591  0.00  0.00    +0.146 HD
BRANCH  16  18
ATOM     18  C   UNL     1      -0.498   3.142   7.558  0.00  0.00    +0.055 C 
ATOM     19  C   UNL     1       0.277   2.432   8.669  0.00  0.00    +0.020 C 
ATOM     20  C   UNL     1      -0.617   1.373   9.319  0.00  0.00    +0.002 C 
ATOM     21  C   UNL     1      -1.856   2.047   9.912  0.00  0.00    -0.001 C 
ATOM     22  C   UNL     1      -2.631   2.758   8.800  0.00  0.00    -0.014 C 
ATOM     23  C   UNL     1      -1.737   3.816   8.151  0.00  0.00    -0.055 C 
BRANCH  23  24
ATOM     24  N   UNL     1      -2.482   4.498   7.084  0.00  0.00    +0.381 N 
ATOM     25  H   UNL     1      -2.765   3.825   6.389  0.00  0.00    -0.090 HD
ATOM     26  H   UNL     1      -3.299   4.942   7.476  0.00  0.00    -0.090 HD
ATOM     27  H   UNL     1      -1.892   5.196   6.656  0.00  0.00    -0.090 HD
ENDBRANCH  23  24
ENDBRANCH  16  18
ENDBRANCH   5  16
TORSDOF 5
