REMARK  Name = ZINC14138028
REMARK  3 active torsions:
REMARK  status: ('A' for Active; 'I' for Inactive)
REMARK    1  A    between atoms: C_3  and  N_10
REMARK    2  A    between atoms: C_6  and  C_7
REMARK    3  A    between atoms: C_14  and  N_18
REMARK                            x       y       z     vdW  Elec       q    Type
REMARK                         _______ _______ _______ _____ _____    ______ ____
ROOT
ATOM      1  N   UNL     1       3.580   2.135  -0.021  0.00  0.00    -0.209 N 
ATOM      2  C   UNL     1       3.625   3.470  -0.107  0.00  0.00    +0.228 C 
ATOM      3  O   UNL     1       2.662   4.202  -0.186  0.00  0.00    -0.275 OA
ATOM      4  C   UNL     1       5.069   3.921  -0.090  0.00  0.00    +0.125 C 
ATOM      5  C   UNL     1       5.859   2.601   0.022  0.00  0.00    +0.153 C 
ATOM      6  C   UNL     1       4.778   1.544   0.062  0.00  0.00    +0.244 C 
ATOM      7  O   UNL     1       4.967   0.349   0.153  0.00  0.00    -0.273 OA
ENDROOT
BRANCH   5   8
ATOM      8  N   UNL     1       6.651   2.576   1.259  0.00  0.00    -0.281 NA
ATOM      9  C   UNL     1       7.567   1.424   1.276  0.00  0.00    +0.104 C 
ATOM     10  C   UNL     1       8.571   1.611   2.415  0.00  0.00    +0.119 C 
ATOM     11  N   UNL     1       7.867   1.925   3.656  0.00  0.00    -0.313 N 
ATOM     12  C   UNL     1       6.606   2.367   3.684  0.00  0.00    +0.227 C 
ATOM     13  O   UNL     1       6.107   2.634   4.757  0.00  0.00    -0.274 OA
ATOM     14  C   UNL     1       5.780   2.548   2.442  0.00  0.00    +0.181 C 
ATOM     15  H   UNL     1       8.336   1.807   4.497  0.00  0.00    +0.149 HD
ENDBRANCH   5   8
BRANCH   1  18
ATOM     16  C   UNL     1       0.804   0.035   1.149  0.00  0.00    +0.017 A 
ATOM     17  C   UNL     1       1.985   0.742   1.136  0.00  0.00    +0.025 A 
ATOM     18  C   UNL     1       2.381   1.418  -0.013  0.00  0.00    +0.044 A 
ATOM     19  C   UNL     1       1.586   1.383  -1.154  0.00  0.00    +0.025 A 
ATOM     20  C   UNL     1       0.404   0.678  -1.150  0.00  0.00    +0.017 A 
ATOM     21  C   UNL     1       0.002  -0.003   0.003  0.00  0.00    +0.063 A 
BRANCH  21  22
ATOM     22  C   UNL     1      -1.263  -0.759   0.012  0.00  0.00    +0.387 C 
ATOM     23  O   UNL     1      -1.612  -1.355   1.021  0.00  0.00    -0.241 OA
ATOM     24  O   UNL     1      -1.963  -0.791  -0.991  0.00  0.00    -0.241 OA
ENDBRANCH  21  22
ENDBRANCH   1  18
TORSDOF 3
