REMARK  Name = ZINC64622311
REMARK  7 active torsions:
REMARK  status: ('A' for Active; 'I' for Inactive)
REMARK    1  A    between atoms: C_1  and  C_2
REMARK    2  A    between atoms: C_2  and  C_3
REMARK    3  A    between atoms: C_3  and  C_5
REMARK    4  A    between atoms: C_3  and  N_16
REMARK    5  A    between atoms: C_11  and  C_15
REMARK    6  A    between atoms: C_17  and  C_19
REMARK    7  A    between atoms: N_21  and  C_24
REMARK                            x       y       z     vdW  Elec       q    Type
REMARK                         _______ _______ _______ _____ _____    ______ ____
ROOT
ATOM      1  N   UNL     1      -2.082  -0.162   1.273  0.00  0.00    -0.304 N 
ATOM      2  C   UNL     1      -2.664   1.047   1.400  0.00  0.00    +0.261 C 
ATOM      3  O   UNL     1      -2.651   1.830   0.468  0.00  0.00    -0.269 OA
ATOM      4  H   UNL     1      -2.092  -0.785   2.016  0.00  0.00    +0.149 HD
ENDROOT
BRANCH   2   5
ATOM      5  C   UNL     1      -3.310   1.418   2.657  0.00  0.00    +0.120 C 
ATOM      6  C   UNL     1      -3.933   2.587   2.920  0.00  0.00    +0.119 C 
ATOM      7  N   UNL     1      -4.408   2.546   4.207  0.00  0.00    -0.253 N 
ATOM      8  N   UNL     1      -4.080   1.341   4.758  0.00  0.00    -0.160 NA
ATOM      9  N   UNL     1      -3.403   0.617   3.817  0.00  0.00    -0.259 N 
ATOM     10  H   UNL     1      -3.526   1.463   5.592  0.00  0.00    +0.168 HD
ATOM     11  H   UNL     1      -3.050  -0.280   3.926  0.00  0.00    +0.168 HD
BRANCH   7  12
ATOM     12  C   UNL     1      -5.145   3.619   4.880  0.00  0.00    +0.092 C 
ATOM     13  C   UNL     1      -4.371   4.069   6.121  0.00  0.00    +0.024 C 
ATOM     14  C   UNL     1      -5.141   5.189   6.823  0.00  0.00    +0.002 C 
ATOM     15  C   UNL     1      -6.521   4.677   7.240  0.00  0.00    +0.000 C 
ATOM     16  C   UNL     1      -7.294   4.228   5.998  0.00  0.00    +0.002 C 
ATOM     17  C   UNL     1      -6.525   3.107   5.296  0.00  0.00    +0.024 C 
ENDBRANCH   7  12
ENDBRANCH   2   5
BRANCH   1  18
ATOM     18  C   UNL     1      -1.433  -0.534   0.013  0.00  0.00    +0.115 C 
BRANCH  18  19
ATOM     19  C   UNL     1      -1.416  -2.058  -0.121  0.00  0.00    +0.195 C 
ATOM     20  N   UNL     1      -0.825  -2.662   1.079  0.00  0.00    -0.362 N 
ATOM     21  C   UNL     1      -1.731  -3.427   1.618  0.00  0.00    +0.060 A 
ATOM     22  C   UNL     1      -1.737  -4.280   2.814  0.00  0.00    +0.027 A 
ATOM     23  C   UNL     1      -2.848  -4.974   3.131  0.00  0.00    +0.005 A 
ATOM     24  C   UNL     1      -4.022  -4.920   2.359  0.00  0.00    -0.048 A 
ATOM     25  C   UNL     1      -4.124  -4.169   1.244  0.00  0.00    +0.030 A 
ATOM     26  C   UNL     1      -2.974  -3.369   0.800  0.00  0.00    +0.060 A 
ATOM     27  N   UNL     1      -2.788  -2.571  -0.213  0.00  0.00    -0.362 N 
ATOM     28  C   UNL     1      -5.213  -5.733   2.795  0.00  0.00    +0.044 C 
ATOM     29  H   UNL     1       0.075  -2.519   1.411  0.00  0.00    +0.162 HD
ATOM     30  H   UNL     1      -3.437  -2.356  -0.901  0.00  0.00    +0.162 HD
ENDBRANCH  18  19
BRANCH  18  32
ATOM     31  C   UNL     1      -0.019   1.526   0.010  0.00  0.00    +0.006 C 
ATOM     32  C   UNL     1       0.002  -0.004   0.002  0.00  0.00    +0.023 C 
ENDBRANCH  18  32
ENDBRANCH   1  18
TORSDOF 5
