REMARK  Name = ZINC66563433
REMARK  6 active torsions:
REMARK  status: ('A' for Active; 'I' for Inactive)
REMARK    1  A    between atoms: C_1  and  C_2
REMARK    2  A    between atoms: C_2  and  N_3
REMARK    3  A    between atoms: N_3  and  C_4
REMARK    4  A    between atoms: C_10  and  C_12
REMARK    5  A    between atoms: C_12  and  N_13
REMARK    6  A    between atoms: C_18  and  C_20
REMARK                            x       y       z     vdW  Elec       q    Type
REMARK                         _______ _______ _______ _____ _____    ______ ____
ROOT
ATOM      1  C   UNL     1      -1.615  -0.687  -2.245  0.00  0.00    +0.020 C 
ENDROOT
BRANCH   1   2
ATOM      2  N   UNL     1      -2.128  -1.051  -3.573  0.00  0.00    +0.393 N 
ATOM      3  C   UNL     1      -1.933  -2.489  -3.794  0.00  0.00    -0.077 C 
ATOM      4  C   UNL     1      -2.392  -2.858  -5.206  0.00  0.00    -0.019 C 
ATOM      5  C   UNL     1      -3.876  -2.513  -5.362  0.00  0.00    -0.003 C 
ATOM      6  C   UNL     1      -4.079  -1.027  -5.056  0.00  0.00    -0.006 C 
ATOM      7  C   UNL     1      -3.558  -0.725  -3.649  0.00  0.00    +0.020 C 
ATOM      8  H   UNL     1      -1.628  -0.533  -4.279  0.00  0.00    -0.080 HD
BRANCH   7   9
ATOM      9  C   UNL     1      -3.756   0.738  -3.344  0.00  0.00    +0.197 C 
ATOM     10  O   UNL     1      -2.872   1.532  -3.586  0.00  0.00    -0.278 OA
ATOM     11  N   UNL     1      -4.914   1.162  -2.802  0.00  0.00    -0.331 N 
ATOM     12  H   UNL     1      -5.621   0.526  -2.608  0.00  0.00    +0.145 HD
ATOM     13  H   UNL     1      -5.042   2.103  -2.605  0.00  0.00    +0.145 HD
ENDBRANCH   7   9
ENDBRANCH   1   2
BRANCH   1  15
ATOM     14  N   UNL     1       0.574  -0.582  -1.098  0.00  0.00    -0.277 N 
ATOM     15  C   UNL     1      -0.118  -0.859  -2.221  0.00  0.00    +0.203 C 
ATOM     16  O   UNL     1       0.464  -1.246  -3.212  0.00  0.00    -0.277 OA
BRANCH  14  17
ATOM     17  C   UNL     1       1.964  -0.646  -1.104  0.00  0.00    +0.009 C 
ATOM     18  C   UNL     1       2.540  -1.538  -0.345  0.00  0.00    -0.008 C 
ATOM     19  C   UNL     1       4.026  -1.716  -0.241  0.00  0.00    +0.029 C 
ATOM     20  C   UNL     1       4.722  -1.037  -1.422  0.00  0.00    +0.004 C 
ATOM     21  C   UNL     1       4.178   0.391  -1.552  0.00  0.00    +0.006 C 
ATOM     22  C   UNL     1       2.711   0.310  -1.987  0.00  0.00    +0.051 C 
ENDBRANCH  14  17
BRANCH  14  24
ATOM     23  C   UNL     1      -0.219   1.311   0.232  0.00  0.00    +0.025 C 
ATOM     24  C   UNL     1      -0.137  -0.213   0.128  0.00  0.00    +0.110 C 
ENDBRANCH  14  24
ENDBRANCH   1  15
TORSDOF 5
