REMARK  Name = ZINC58919584
REMARK  5 active torsions:
REMARK  status: ('A' for Active; 'I' for Inactive)
REMARK    1  A    between atoms: C_1  and  C_2
REMARK    2  A    between atoms: N_4  and  C_5
REMARK    3  A    between atoms: C_5  and  C_6
REMARK    4  A    between atoms: C_5  and  C_11
REMARK    5  A    between atoms: C_17  and  N_19
REMARK                            x       y       z     vdW  Elec       q    Type
REMARK                         _______ _______ _______ _____ _____    ______ ____
ROOT
ATOM      1  C   UNL     1      -0.447  -2.652   1.369  0.00  0.00    +0.236 C 
ATOM      2  O   UNL     1       0.283  -1.927   2.011  0.00  0.00    -0.274 OA
ATOM      3  N   UNL     1      -0.701  -3.904   1.799  0.00  0.00    -0.301 N 
ATOM      4  C   UNL     1      -1.578  -4.797   1.029  0.00  0.00    +0.107 C 
ATOM      5  C   UNL     1      -0.833  -6.108   0.760  0.00  0.00    +0.017 C 
ATOM      6  C   UNL     1      -0.347  -6.696   2.087  0.00  0.00    -0.012 C 
ATOM      7  C   UNL     1       0.622  -5.718   2.755  0.00  0.00    -0.051 C 
ATOM      8  C   UNL     1      -0.101  -4.404   3.043  0.00  0.00    +0.092 C 
ENDROOT
BRANCH   7   9
ATOM      9  N   UNL     1       1.113  -6.296   4.013  0.00  0.00    +0.383 N 
ATOM     10  C   UNL     1       1.893  -7.530   3.740  0.00  0.00    -0.078 C 
ATOM     11  C   UNL     1       2.773  -7.680   5.006  0.00  0.00    -0.020 C 
ATOM     12  C   UNL     1       3.139  -6.218   5.349  0.00  0.00    -0.020 C 
ATOM     13  C   UNL     1       2.051  -5.362   4.672  0.00  0.00    -0.078 C 
ATOM     14  H   UNL     1       0.339  -6.502   4.627  0.00  0.00    -0.081 HD
ENDBRANCH   7   9
BRANCH   1  15
ATOM     15  C   UNL     1      -1.070  -2.154   0.090  0.00  0.00    +0.162 C 
BRANCH  15  19
ATOM     16  C   UNL     1      -1.911   1.505   0.829  0.00  0.00    +0.109 C 
ATOM     17  C   UNL     1      -1.995   0.002   0.746  0.00  0.00    +0.211 C 
ATOM     18  O   UNL     1      -2.911  -0.584   1.283  0.00  0.00    -0.276 OA
ATOM     19  N   UNL     1      -1.052  -0.689   0.076  0.00  0.00    -0.304 N 
ATOM     20  H   UNL     1      -0.361  -0.217  -0.415  0.00  0.00    +0.149 HD
ENDBRANCH  15  19
BRANCH  15  21
ATOM     21  C   UNL     1      -0.275  -2.685  -1.105  0.00  0.00    +0.018 C 
ATOM     22  C   UNL     1       1.166  -2.134  -1.068  0.00  0.00    +0.006 C 
ATOM     23  C   UNL     1       1.514  -1.882  -2.556  0.00  0.00    +0.000 C 
ATOM     24  C   UNL     1       0.179  -1.350  -3.134  0.00  0.00    +0.000 C 
ATOM     25  C   UNL     1      -0.902  -2.186  -2.419  0.00  0.00    +0.006 C 
ENDBRANCH  15  21
ENDBRANCH   1  15
TORSDOF 4
