REMARK  Name = ZINC02719617
REMARK  4 active torsions:
REMARK  status: ('A' for Active; 'I' for Inactive)
REMARK    1  A    between atoms: C_7  and  C_11
REMARK    2  A    between atoms: C_11  and  C_12
REMARK    3  A    between atoms: C_12  and  N_13
REMARK    4  A    between atoms: N_13  and  C_14
REMARK                            x       y       z     vdW  Elec       q    Type
REMARK                         _______ _______ _______ _____ _____    ______ ____
ROOT
ATOM      1  C   UNL     1       0.236  -3.589  -1.455  0.00  0.00    +0.107 C 
ENDROOT
BRANCH   1   2
ATOM      2  N   UNL     1      -0.675  -4.736  -1.452  0.00  0.00    -0.327 N 
ATOM      3  H   UNL     1      -0.911  -5.166  -0.615  0.00  0.00    +0.148 HD
BRANCH   2   4
ATOM      4  C   UNL     1      -1.199  -5.207  -2.643  0.00  0.00    +0.150 A 
ATOM      5  C   UNL     1      -2.075  -6.306  -2.659  0.00  0.00    +0.147 A 
ATOM      6  N   UNL     1      -2.600  -7.119  -1.711  0.00  0.00    -0.231 NA
ATOM      7  C   UNL     1      -3.372  -8.001  -2.277  0.00  0.00    +0.198 A 
ATOM      8  N   UNL     1      -3.389  -7.808  -3.626  0.00  0.00    -0.329 N 
ATOM      9  C   UNL     1      -2.575  -6.738  -3.899  0.00  0.00    +0.163 A 
ATOM     10  N   UNL     1      -2.205  -6.098  -5.003  0.00  0.00    -0.216 NA
ATOM     11  C   UNL     1      -1.383  -5.072  -4.940  0.00  0.00    +0.225 A 
ATOM     12  N   UNL     1      -0.891  -4.627  -3.798  0.00  0.00    -0.219 NA
ATOM     13  H   UNL     1      -3.886  -8.331  -4.274  0.00  0.00    +0.168 HD
ENDBRANCH   2   4
ENDBRANCH   1   2
BRANCH   1  14
ATOM     14  C   UNL     1       0.666  -3.275  -0.021  0.00  0.00    +0.056 C 
BRANCH  14  21
ATOM     15  C   UNL     1      -0.017   1.362   0.009  0.00  0.00    +0.001 A 
ATOM     16  C   UNL     1       1.170   2.083   0.002  0.00  0.00    +0.002 A 
ATOM     17  C   UNL     1       2.386   1.436  -0.013  0.00  0.00    +0.026 A 
ATOM     18  C   UNL     1       2.428   0.046  -0.021  0.00  0.00    +0.047 A 
ATOM     19  C   UNL     1       1.223  -0.681  -0.013  0.00  0.00    +0.003 A 
ATOM     20  C   UNL     1       0.002  -0.004   0.002  0.00  0.00    +0.010 A 
ATOM     21  C   UNL     1       1.604  -2.095  -0.025  0.00  0.00    -0.021 A 
ATOM     22  C   UNL     1       2.945  -2.141  -0.038  0.00  0.00    +0.087 A 
ATOM     23  N   UNL     1       3.455  -0.871  -0.036  0.00  0.00    -0.360 N 
ATOM     24  H   UNL     1       4.399  -0.650  -0.044  0.00  0.00    +0.165 HD
ENDBRANCH  14  21
ENDBRANCH   1  14
TORSDOF 4
