REMARK  Name = ZINC45113699
REMARK  11 active torsions:
REMARK  status: ('A' for Active; 'I' for Inactive)
REMARK    1  A    between atoms: C_1  and  C_2
REMARK    2  A    between atoms: C_2  and  C_4
REMARK    3  A    between atoms: C_2  and  N_20
REMARK    4  A    between atoms: C_4  and  N_5
REMARK    5  A    between atoms: N_5  and  S_6
REMARK    6  A    between atoms: S_6  and  C_9
REMARK    7  A    between atoms: C_14  and  C_15
REMARK    8  A    between atoms: C_16  and  C_17
REMARK    9  A    between atoms: C_17  and  O_18
REMARK   10  A    between atoms: N_20  and  C_21
REMARK   11  A    between atoms: N_20  and  C_22
REMARK                            x       y       z     vdW  Elec       q    Type
REMARK                         _______ _______ _______ _____ _____    ______ ____
ROOT
ATOM      1  S   UNL     1       0.082  -2.743  -2.417  0.00  0.00    +0.060 S 
ATOM      2  O   UNL     1      -0.328  -4.091  -2.234  0.00  0.00    -0.153 OA
ATOM      3  O   UNL     1      -0.595  -1.853  -3.293  0.00  0.00    -0.153 OA
ENDROOT
BRANCH   1   4
ATOM      4  C   UNL     1       1.760  -2.796  -2.951  0.00  0.00    +0.121 A 
ATOM      5  C   UNL     1       2.157  -2.070  -4.055  0.00  0.00    +0.032 A 
ATOM      6  C   UNL     1       3.474  -2.109  -4.476  0.00  0.00    +0.040 A 
ATOM      7  C   UNL     1       4.403  -2.877  -3.793  0.00  0.00    +0.125 A 
ATOM      8  C   UNL     1       4.017  -3.608  -2.686  0.00  0.00    +0.057 A 
ATOM      9  C   UNL     1       2.691  -3.567  -2.254  0.00  0.00    +0.054 A 
ATOM     10  F   UNL     1       5.687  -2.912  -4.210  0.00  0.00    -0.205 F 
BRANCH   9  11
ATOM     11  C   UNL     1       2.286  -4.317  -1.104  0.00  0.00    -0.062 C 
ATOM     12  C   UNL     1       1.954  -4.933  -0.161  0.00  0.00    -0.069 C 
BRANCH  12  13
ATOM     13  C   UNL     1       1.537  -5.704   1.022  0.00  0.00    +0.244 C 
BRANCH  13  14
ATOM     14  O   UNL     1       2.663  -6.405   1.554  0.00  0.00    -0.383 OA
ATOM     15  H   UNL     1       2.462  -6.936   2.337  0.00  0.00    +0.211 HD
ENDBRANCH  13  14
ENDBRANCH  12  13
ENDBRANCH   9  11
ENDBRANCH   1   4
BRANCH   1  16
ATOM     16  N   UNL     1       0.067  -2.036  -0.919  0.00  0.00    -0.191 NA
ATOM     17  H   UNL     1      -0.233  -2.542  -0.147  0.00  0.00    +0.148 HD
BRANCH  16  18
ATOM     18  C   UNL     1       0.505  -0.648  -0.760  0.00  0.00    +0.090 C 
BRANCH  18  20
ATOM     19  C   UNL     1       0.750  -0.901   1.714  0.00  0.00    -0.012 C 
ATOM     20  C   UNL     1       0.047  -0.121   0.601  0.00  0.00    -0.057 C 
BRANCH  20  21
ATOM     21  N   UNL     1       0.385   1.305   0.714  0.00  0.00    +0.379 N 
ATOM     22  C   UNL     1      -0.347   2.063  -0.309  0.00  0.00    -0.096 C 
ATOM     23  C   UNL     1       0.009   1.793   2.047  0.00  0.00    -0.096 C 
ATOM     24  H   UNL     1       1.377   1.427   0.578  0.00  0.00    -0.082 HD
ENDBRANCH  20  21
ENDBRANCH  18  20
ENDBRANCH  16  18
ENDBRANCH   1  16
TORSDOF 8
