REMARK  Name = ZINC53875230
REMARK  10 active torsions:
REMARK  status: ('A' for Active; 'I' for Inactive)
REMARK    1  A    between atoms: C_1  and  C_2
REMARK    2  A    between atoms: C_2  and  C_3
REMARK    3  A    between atoms: C_7  and  N_22
REMARK    4  A    between atoms: C_9  and  C_12
REMARK    5  A    between atoms: C_12  and  N_13
REMARK    6  A    between atoms: N_13  and  C_14
REMARK    7  A    between atoms: N_13  and  C_17
REMARK    8  A    between atoms: C_14  and  C_15
REMARK    9  A    between atoms: C_15  and  O_16
REMARK   10  A    between atoms: N_22  and  C_23
REMARK                            x       y       z     vdW  Elec       q    Type
REMARK                         _______ _______ _______ _____ _____    ______ ____
ROOT
ATOM      1  C   UNL     1       1.462  -0.995   0.003  0.00  0.00    -0.011 C 
ATOM      2  C   UNL     1       2.829  -0.456   0.428  0.00  0.00    +0.002 C 
ATOM      3  C   UNL     1       2.981  -0.592   1.944  0.00  0.00    -0.015 C 
ATOM      4  C   UNL     1       2.869  -2.066   2.338  0.00  0.00    -0.071 C 
ATOM      5  C   UNL     1       1.502  -2.605   1.913  0.00  0.00    -0.042 C 
ATOM      6  C   UNL     1       1.350  -2.469   0.396  0.00  0.00    +0.003 C 
ENDROOT
BRANCH   4   7
ATOM      7  N   UNL     1       3.928  -2.833   1.669  0.00  0.00    +0.379 N 
ATOM      8  C   UNL     1       5.239  -2.396   2.167  0.00  0.00    -0.100 C 
ATOM      9  H   UNL     1       3.805  -3.816   1.863  0.00  0.00    -0.086 HD
ATOM     10  H   UNL     1       3.878  -2.678   0.673  0.00  0.00    -0.086 HD
ENDBRANCH   4   7
BRANCH   1  12
ATOM     11  C   UNL     1       1.297   0.623  -1.894  0.00  0.00    +0.004 C 
ATOM     12  C   UNL     1       1.310  -0.859  -1.514  0.00  0.00    +0.000 C 
ENDBRANCH   1  12
BRANCH   5  13
ATOM     13  C   UNL     1       1.390  -4.079   2.306  0.00  0.00    -0.076 C 
BRANCH  13  14
ATOM     14  N   UNL     1       0.048  -4.342   2.841  0.00  0.00    +0.383 N 
ATOM     15  H   UNL     1      -0.017  -5.307   3.129  0.00  0.00    -0.081 HD
BRANCH  14  16
ATOM     16  C   UNL     1      -0.199  -3.470   3.997  0.00  0.00    -0.068 C 
ATOM     17  C   UNL     1       0.804  -3.791   5.125  0.00  0.00    -0.015 C 
ATOM     18  C   UNL     1      -0.024  -3.633   6.425  0.00  0.00    -0.002 C 
ATOM     19  C   UNL     1      -1.405  -4.208   6.023  0.00  0.00    -0.002 C 
ATOM     20  C   UNL     1      -1.603  -3.735   4.568  0.00  0.00    -0.015 C 
ENDBRANCH  14  16
BRANCH  14  21
ATOM     21  C   UNL     1      -0.955  -4.073   1.802  0.00  0.00    -0.050 C 
BRANCH  21  22
ATOM     22  C   UNL     1      -0.664  -4.940   0.576  0.00  0.00    +0.137 C 
BRANCH  22  23
ATOM     23  O   UNL     1      -0.893  -6.313   0.898  0.00  0.00    -0.397 OA
ATOM     24  H   UNL     1      -0.728  -6.922   0.165  0.00  0.00    +0.209 HD
ENDBRANCH  22  23
ENDBRANCH  21  22
ENDBRANCH  14  21
ENDBRANCH  13  14
ENDBRANCH   5  13
TORSDOF 8
