REMARK  Name = ZINC27344954
REMARK  7 active torsions:
REMARK  status: ('A' for Active; 'I' for Inactive)
REMARK    1  A    between atoms: N_9  and  C_12
REMARK    2  A    between atoms: C_12  and  C_13
REMARK    3  A    between atoms: C_13  and  C_14
REMARK    4  A    between atoms: N_16  and  C_17
REMARK    5  A    between atoms: C_17  and  C_18
REMARK    6  A    between atoms: C_18  and  C_20
REMARK    7  A    between atoms: C_18  and  N_27
REMARK                            x       y       z     vdW  Elec       q    Type
REMARK                         _______ _______ _______ _____ _____    ______ ____
ROOT
ATOM      1  C   UNL     1      -1.416   1.798   0.475  0.00  0.00    +0.215 C 
ATOM      2  O   UNL     1      -2.396   1.089   0.393  0.00  0.00    -0.276 OA
ATOM      3  N   UNL     1      -0.185   1.265   0.342  0.00  0.00    -0.316 N 
ATOM      4  H   UNL     1       0.704   1.908   0.416  0.00  0.00    +0.149 HD
ENDROOT
BRANCH   1   5
ATOM      5  C   UNL     1      -1.573   3.276   0.725  0.00  0.00    +0.119 C 
BRANCH   5   6
ATOM      6  C   UNL     1      -3.060   3.619   0.835  0.00  0.00    +0.158 C 
BRANCH   6  15
ATOM      7  C   UNL     1      -3.740   9.625  -0.323  0.00  0.00    +0.001 A 
ATOM      8  C   UNL     1      -3.759  10.014   1.010  0.00  0.00    +0.002 A 
ATOM      9  C   UNL     1      -3.639   9.085   2.018  0.00  0.00    +0.030 A 
ATOM     10  C   UNL     1      -3.496   7.732   1.699  0.00  0.00    +0.100 A 
ATOM     11  C   UNL     1      -3.477   7.340   0.343  0.00  0.00    +0.068 A 
ATOM     12  C   UNL     1      -3.601   8.297  -0.662  0.00  0.00    +0.015 A 
ATOM     13  C   UNL     1      -3.326   5.910   0.034  0.00  0.00    +0.278 A 
ATOM     14  O   UNL     1      -3.302   5.510  -1.116  0.00  0.00    -0.265 OA
ATOM     15  N   UNL     1      -3.213   5.056   1.078  0.00  0.00    -0.210 N 
ATOM     16  N   UNL     1      -3.249   5.542   2.388  0.00  0.00    -0.062 NA
ATOM     17  N   UNL     1      -3.375   6.788   2.666  0.00  0.00    -0.131 NA
ENDBRANCH   6  15
ENDBRANCH   5   6
ENDBRANCH   1   5
BRANCH   3  18
ATOM     18  C   UNL     1      -0.032  -0.172   0.099  0.00  0.00    +0.093 C 
BRANCH  18  19
ATOM     19  C   UNL     1       1.445  -0.494  -0.140  0.00  0.00    -0.019 C 
BRANCH  19  20
ATOM     20  C   UNL     1       1.905   0.173  -1.411  0.00  0.00    -0.041 A 
ATOM     21  C   UNL     1       2.610   1.361  -1.352  0.00  0.00    +0.003 A 
ATOM     22  C   UNL     1       3.036   1.971  -2.517  0.00  0.00    +0.000 A 
ATOM     23  C   UNL     1       2.748   1.399  -3.742  0.00  0.00    +0.001 A 
ATOM     24  C   UNL     1       2.039   0.214  -3.803  0.00  0.00    +0.020 A 
ATOM     25  C   UNL     1       1.617  -0.399  -2.636  0.00  0.00    +0.043 A 
ATOM     26 CL   UNL     1       0.725  -1.887  -2.712  0.00  0.00    -0.083 Cl
ENDBRANCH  19  20
BRANCH  19  27
ATOM     27  N   UNL     1       2.243   0.001   0.990  0.00  0.00    +0.385 N 
ATOM     28  C   UNL     1       1.736  -0.540   2.277  0.00  0.00    -0.078 C 
ATOM     29  C   UNL     1       2.945  -0.372   3.232  0.00  0.00    -0.020 C 
ATOM     30  C   UNL     1       4.152  -0.690   2.321  0.00  0.00    -0.020 C 
ATOM     31  C   UNL     1       3.647  -0.454   0.886  0.00  0.00    -0.078 C 
ATOM     32  H   UNL     1       2.171   1.097   0.950  0.00  0.00    -0.081 HD
ENDBRANCH  19  27
ENDBRANCH  18  19
ENDBRANCH   3  18
TORSDOF 7
