REMARK  Name = ZINC39686539
REMARK  11 active torsions:
REMARK  status: ('A' for Active; 'I' for Inactive)
REMARK    1  A    between atoms: C_1  and  C_2
REMARK    2  A    between atoms: C_2  and  C_4
REMARK    3  A    between atoms: C_2  and  N_13
REMARK    4  A    between atoms: C_4  and  C_5
REMARK    5  A    between atoms: C_10  and  O_11
REMARK    6  A    between atoms: O_11  and  C_12
REMARK    7  A    between atoms: C_14  and  C_16
REMARK    8  A    between atoms: C_27  and  C_29
REMARK    9  A    between atoms: C_29  and  C_31
REMARK   10  A    between atoms: C_29  and  O_32
REMARK   11  A    between atoms: O_32  and  C_33
REMARK                            x       y       z     vdW  Elec       q    Type
REMARK                         _______ _______ _______ _____ _____    ______ ____
ROOT
ATOM      1  C   UNL     1       0.695  -0.974  -3.570  0.00  0.00    +0.100 C 
ATOM      2  C   UNL     1       1.758   0.026  -4.076  0.00  0.00    +0.121 C 
ATOM      3  N   UNL     1       1.667  -0.045  -5.554  0.00  0.00    -0.297 N 
ATOM      4  C   UNL     1       0.214  -0.156  -5.828  0.00  0.00    +0.115 C 
ATOM      5  C   UNL     1      -0.318  -1.090  -4.722  0.00  0.00    -0.004 C 
ATOM      6  C   UNL     1      -1.697  -0.630  -4.262  0.00  0.00    -0.010 C 
ATOM      7  C   UNL     1      -2.699  -0.809  -5.406  0.00  0.00    -0.082 C 
ATOM      8  N   UNL     1      -2.740  -2.221  -5.806  0.00  0.00    +0.379 N 
ATOM      9  C   UNL     1      -1.433  -2.631  -6.334  0.00  0.00    -0.082 C 
ATOM     10  C   UNL     1      -0.378  -2.528  -5.229  0.00  0.00    -0.010 C 
ATOM     11  C   UNL     1       2.676  -0.016  -6.446  0.00  0.00    +0.256 C 
ATOM     12  O   UNL     1       3.826  -0.011  -6.061  0.00  0.00    -0.272 OA
ATOM     13  H   UNL     1      -2.970  -2.790  -5.004  0.00  0.00    -0.086 HD
ATOM     14  H   UNL     1      -3.444  -2.348  -6.517  0.00  0.00    -0.086 HD
ENDROOT
BRANCH   1  16
ATOM     15  N   UNL     1      -0.153  -1.242  -1.262  0.00  0.00    -0.312 N 
ATOM     16  C   UNL     1       0.021  -0.441  -2.332  0.00  0.00    +0.218 C 
ATOM     17  O   UNL     1      -0.364   0.708  -2.297  0.00  0.00    -0.275 OA
ATOM     18  H   UNL     1       0.155  -2.162  -1.290  0.00  0.00    +0.149 HD
BRANCH  15  20
ATOM     19  C   UNL     1       0.227  -0.021   0.822  0.00  0.00    +0.028 C 
ATOM     20  C   UNL     1      -0.808  -0.725  -0.058  0.00  0.00    +0.074 C 
BRANCH  20  21
ATOM     21  C   UNL     1      -1.435  -1.884   0.719  0.00  0.00    +0.060 C 
BRANCH  21  22
ATOM     22  C   UNL     1      -2.539  -2.500  -0.101  0.00  0.00    -0.004 A 
ATOM     23  C   UNL     1      -3.847  -2.095   0.084  0.00  0.00    +0.007 A 
ATOM     24  C   UNL     1      -4.860  -2.660  -0.668  0.00  0.00    +0.000 A 
ATOM     25  C   UNL     1      -4.567  -3.632  -1.607  0.00  0.00    +0.004 A 
ATOM     26  C   UNL     1      -3.261  -4.040  -1.796  0.00  0.00    +0.046 A 
ATOM     27  C   UNL     1      -2.242  -3.470  -1.047  0.00  0.00    +0.123 A 
BRANCH  27  28
ATOM     28  O   UNL     1      -0.956  -3.866  -1.235  0.00  0.00    -0.495 OA
ATOM     29  C   UNL     1      -0.724  -4.870  -2.225  0.00  0.00    +0.277 C 
ENDBRANCH  27  28
ENDBRANCH  21  22
ENDBRANCH  20  21
ENDBRANCH  15  20
ENDBRANCH   1  16
BRANCH  11  30
ATOM     30  C   UNL     1       2.375   0.010  -7.923  0.00  0.00    +0.256 C 
ATOM     31  C   UNL     1       1.704   1.337  -8.283  0.00  0.00    +0.062 C 
BRANCH  30  32
ATOM     32  O   UNL     1       3.593  -0.122  -8.659  0.00  0.00    -0.480 OA
BRANCH  32  33
ATOM     33  C   UNL     1       3.501  -0.629  -9.917  0.00  0.00    +0.122 A 
ATOM     34  C   UNL     1       4.652  -0.897 -10.644  0.00  0.00    +0.045 A 
ATOM     35  C   UNL     1       4.556  -1.412 -11.922  0.00  0.00    +0.004 A 
ATOM     36  C   UNL     1       3.314  -1.660 -12.477  0.00  0.00    +0.000 A 
ATOM     37  C   UNL     1       2.166  -1.393 -11.755  0.00  0.00    +0.004 A 
ATOM     38  C   UNL     1       2.256  -0.884 -10.474  0.00  0.00    +0.045 A 
ENDBRANCH  32  33
ENDBRANCH  30  32
ENDBRANCH  11  30
TORSDOF 8
