REMARK  Name = ZINC39598828
REMARK  8 active torsions:
REMARK  status: ('A' for Active; 'I' for Inactive)
REMARK    1  A    between atoms: C_1  and  C_2
REMARK    2  A    between atoms: C_2  and  C_3
REMARK    3  A    between atoms: C_3  and  C_5
REMARK    4  A    between atoms: C_3  and  C_6
REMARK    5  A    between atoms: C_6  and  C_7
REMARK    6  A    between atoms: C_11  and  C_20
REMARK    7  A    between atoms: N_22  and  C_23
REMARK    8  A    between atoms: C_23  and  C_24
REMARK                            x       y       z     vdW  Elec       q    Type
REMARK                         _______ _______ _______ _____ _____    ______ ____
ROOT
ATOM      1  C   UNL     1       1.041  -2.557   2.373  0.00  0.00    +0.216 C 
ATOM      2  O   UNL     1       1.450  -1.690   3.117  0.00  0.00    -0.276 OA
ATOM      3  N   UNL     1       1.165  -3.854   2.718  0.00  0.00    -0.300 N 
ATOM      4  C   UNL     1       0.736  -5.044   1.945  0.00  0.00    +0.121 C 
ATOM      5  C   UNL     1       1.864  -6.077   2.162  0.00  0.00    +0.100 C 
ATOM      6  C   UNL     1       2.531  -5.659   3.484  0.00  0.00    -0.004 C 
ATOM      7  C   UNL     1       1.765  -4.413   3.953  0.00  0.00    +0.115 C 
ATOM      8  C   UNL     1       3.998  -5.312   3.249  0.00  0.00    -0.010 C 
ATOM      9  C   UNL     1       4.653  -4.954   4.586  0.00  0.00    -0.082 C 
ATOM     10  N   UNL     1       4.539  -6.091   5.508  0.00  0.00    +0.379 N 
ATOM     11  C   UNL     1       3.126  -6.359   5.801  0.00  0.00    -0.082 C 
ATOM     12  C   UNL     1       2.406  -6.776   4.516  0.00  0.00    -0.010 C 
ATOM     13  H   UNL     1       4.955  -6.907   5.086  0.00  0.00    -0.086 HD
ATOM     14  H   UNL     1       5.025  -5.875   6.366  0.00  0.00    -0.086 HD
ENDROOT
BRANCH   5  15
ATOM     15  C   UNL     1       2.856  -6.017   1.030  0.00  0.00    +0.218 C 
ATOM     16  O   UNL     1       3.049  -4.971   0.447  0.00  0.00    -0.275 OA
ATOM     17  N   UNL     1       3.530  -7.125   0.664  0.00  0.00    -0.315 N 
ATOM     18  H   UNL     1       3.376  -7.962   1.130  0.00  0.00    +0.149 HD
BRANCH  17  19
ATOM     19  C   UNL     1       4.494  -7.067  -0.437  0.00  0.00    +0.101 C 
ATOM     20  C   UNL     1       5.114  -8.450  -0.647  0.00  0.00    +0.024 C 
ENDBRANCH  17  19
ENDBRANCH   5  15
BRANCH   1  21
ATOM     21  C   UNL     1       0.396  -2.183   1.063  0.00  0.00    +0.099 C 
BRANCH  21  22
ATOM     22  C   UNL     1       0.382  -0.660   0.918  0.00  0.00    -0.006 C 
ATOM     23  C   UNL     1       1.819  -0.144   0.823  0.00  0.00    +0.008 C 
BRANCH  22  25
ATOM     24  C   UNL     1      -0.505   1.247  -0.430  0.00  0.00    +0.004 C 
ATOM     25  C   UNL     1      -0.383  -0.276  -0.350  0.00  0.00    +0.000 C 
ENDBRANCH  22  25
ENDBRANCH  21  22
ENDBRANCH   1  21
TORSDOF 5
