REMARK  Name = ZINC36955860
REMARK  5 active torsions:
REMARK  status: ('A' for Active; 'I' for Inactive)
REMARK    1  A    between atoms: C_1  and  C_2
REMARK    2  A    between atoms: C_5  and  C_7
REMARK    3  A    between atoms: C_7  and  C_9
REMARK    4  A    between atoms: C_7  and  N_10
REMARK    5  A    between atoms: C_17  and  N_21
REMARK                            x       y       z     vdW  Elec       q    Type
REMARK                         _______ _______ _______ _____ _____    ______ ____
ROOT
ATOM      1  N   UNL     1       2.811  -2.961  -0.914  0.00  0.00    -0.224 N 
ATOM      2  C   UNL     1       3.669  -1.937  -0.754  0.00  0.00    +0.255 C 
ATOM      3  O   UNL     1       3.633  -1.114   0.139  0.00  0.00    -0.270 OA
ATOM      4  C   UNL     1       4.662  -1.982  -1.847  0.00  0.00    +0.051 A 
ATOM      5  C   UNL     1       5.756  -1.207  -2.193  0.00  0.00    +0.014 A 
ATOM      6  C   UNL     1       6.506  -1.529  -3.317  0.00  0.00    +0.003 A 
ATOM      7  C   UNL     1       6.172  -2.616  -4.095  0.00  0.00    +0.023 A 
ATOM      8  C   UNL     1       5.073  -3.412  -3.764  0.00  0.00    +0.038 A 
ATOM      9  C   UNL     1       4.313  -3.098  -2.638  0.00  0.00    +0.070 A 
ATOM     10  C   UNL     1       3.128  -3.693  -1.998  0.00  0.00    +0.256 C 
ATOM     11  O   UNL     1       2.534  -4.679  -2.385  0.00  0.00    -0.269 OA
ENDROOT
BRANCH   8  12
ATOM     12  N   UNL     1       4.739  -4.505  -4.549  0.00  0.00    -0.357 N 
ATOM     13  H   UNL     1       5.271  -4.720  -5.332  0.00  0.00    +0.142 HD
ATOM     14  H   UNL     1       3.975  -5.055  -4.316  0.00  0.00    +0.142 HD
ENDBRANCH   8  12
BRANCH   1  15
ATOM     15  C   UNL     1       1.684  -3.245  -0.023  0.00  0.00    +0.147 C 
ATOM     16  C   UNL     1       2.205  -3.494   1.394  0.00  0.00    +0.037 C 
BRANCH  15  21
ATOM     17  C   UNL     1      -0.018   1.503   0.010  0.00  0.00    +0.086 C 
ATOM     18  C   UNL     1       0.002  -0.004   0.002  0.00  0.00    +0.102 A 
ATOM     19  C   UNL     1      -1.078  -0.805   0.003  0.00  0.00    +0.045 A 
ATOM     20  C   UNL     1      -0.601  -2.136  -0.007  0.00  0.00    +0.047 A 
ATOM     21  C   UNL     1       0.742  -2.069  -0.013  0.00  0.00    +0.126 A 
ATOM     22  O   UNL     1       1.102  -0.775  -0.013  0.00  0.00    -0.463 OA
ENDBRANCH  15  21
ENDBRANCH   1  15
TORSDOF 3
