REMARK  Name = ZINC36751713
REMARK  6 active torsions:
REMARK  status: ('A' for Active; 'I' for Inactive)
REMARK    1  A    between atoms: C_1  and  C_2
REMARK    2  A    between atoms: C_2  and  O_3
REMARK    3  A    between atoms: O_3  and  C_4
REMARK    4  A    between atoms: C_5  and  N_19
REMARK    5  A    between atoms: C_8  and  N_10
REMARK    6  A    between atoms: N_10  and  C_11
REMARK                            x       y       z     vdW  Elec       q    Type
REMARK                         _______ _______ _______ _____ _____    ______ ____
ROOT
ATOM      1  C   UNL     1       0.801  -1.825   1.309  0.00  0.00    +0.238 A 
ATOM      2  C   UNL     1       1.658  -2.332   2.284  0.00  0.00    +0.087 A 
ATOM      3  C   UNL     1       1.899  -3.700   2.327  0.00  0.00    +0.031 A 
ATOM      4  C   UNL     1       1.276  -4.512   1.393  0.00  0.00    +0.046 A 
ATOM      5  C   UNL     1       0.434  -3.939   0.449  0.00  0.00    +0.127 A 
ATOM      6  N   UNL     1       0.219  -2.631   0.437  0.00  0.00    -0.196 NA
ENDROOT
BRANCH   2   7
ATOM      7  N   UNL     1       2.268  -1.473   3.210  0.00  0.00    -0.354 N 
ATOM      8  H   UNL     1       2.096  -0.519   3.174  0.00  0.00    +0.142 HD
ATOM      9  H   UNL     1       2.864  -1.833   3.886  0.00  0.00    +0.142 HD
ENDBRANCH   2   7
BRANCH   5  10
ATOM     10  N   UNL     1      -0.197  -4.748  -0.494  0.00  0.00    -0.297 N 
ATOM     11  H   UNL     1      -0.124  -5.713  -0.430  0.00  0.00    +0.154 HD
BRANCH  10  12
ATOM     12  C   UNL     1      -0.935  -4.169  -1.531  0.00  0.00    +0.069 A 
ATOM     13  C   UNL     1      -0.569  -2.930  -2.038  0.00  0.00    +0.041 A 
ATOM     14  C   UNL     1      -1.300  -2.360  -3.064  0.00  0.00    +0.020 A 
ATOM     15  C   UNL     1      -2.396  -3.024  -3.586  0.00  0.00    +0.018 A 
ATOM     16  C   UNL     1      -2.765  -4.258  -3.083  0.00  0.00    +0.041 A 
ATOM     17  C   UNL     1      -2.034  -4.837  -2.061  0.00  0.00    +0.145 A 
ATOM     18  F   UNL     1      -2.391  -6.045  -1.575  0.00  0.00    -0.204 F 
ATOM     19 BR   UNL     1      -0.801  -0.672  -3.755  0.00  0.00    -0.050 Br
ENDBRANCH  10  12
ENDBRANCH   5  10
BRANCH   1  20
ATOM     20  O   UNL     1       0.557  -0.490   1.257  0.00  0.00    -0.475 OA
BRANCH  20  22
ATOM     21  C   UNL     1      -0.485   1.487   0.337  0.00  0.00    +0.048 C 
ATOM     22  C   UNL     1      -0.335  -0.033   0.238  0.00  0.00    +0.227 C 
ENDBRANCH  20  22
ENDBRANCH   1  20
TORSDOF 5
