REMARK  Name = ZINC04751264
REMARK  8 active torsions:
REMARK  status: ('A' for Active; 'I' for Inactive)
REMARK    1  A    between atoms: C_1  and  C_2
REMARK    2  A    between atoms: C_3  and  C_24
REMARK    3  A    between atoms: C_5  and  C_7
REMARK    4  A    between atoms: C_17  and  N_23
REMARK    5  A    between atoms: C_18  and  C_19
REMARK    6  A    between atoms: C_19  and  O_21
REMARK    7  A    between atoms: O_21  and  C_22
REMARK    8  A    between atoms: C_24  and  N_55
REMARK                            x       y       z     vdW  Elec       q    Type
REMARK                         _______ _______ _______ _____ _____    ______ ____
ROOT
ATOM      1  C   UNL     1      -0.960   4.484   3.900  0.00  0.00    +0.104 C 
ATOM      2  C   UNL     1      -0.587   4.125   5.318  0.00  0.00    +0.046 C 
ATOM      3  C   UNL     1      -1.446   4.349   6.329  0.00  0.00    +0.115 C 
ATOM      4  C   UNL     1      -1.079   3.978   7.747  0.00  0.00    +0.075 C 
ATOM      5  C   UNL     1       0.432   4.107   7.940  0.00  0.00    +0.016 C 
ATOM      6  C   UNL     1       1.131   3.187   6.933  0.00  0.00    +0.080 C 
ATOM      7  C   UNL     1       0.679   3.552   5.546  0.00  0.00    +0.163 C 
ATOM      8  O   UNL     1       1.420   3.349   4.604  0.00  0.00    -0.292 OA
ATOM      9  O   UNL     1      -2.653   4.904   6.114  0.00  0.00    -0.446 OA
ATOM     10  C   UNL     1      -2.871   5.623   5.003  0.00  0.00    +0.195 C 
ATOM     11  C   UNL     1      -2.096   5.469   3.899  0.00  0.00    +0.106 C 
ENDROOT
BRANCH   1  16
ATOM     12  C   UNL     1      -3.248  -0.254   1.802  0.00  0.00    +0.052 C 
ATOM     13  C   UNL     1      -2.467   0.983   2.163  0.00  0.00    -0.012 A 
ATOM     14  C   UNL     1      -1.387   1.520   1.545  0.00  0.00    -0.054 A 
ATOM     15  C   UNL     1      -0.830   2.678   2.055  0.00  0.00    +0.014 A 
ATOM     16  C   UNL     1      -1.377   3.239   3.161  0.00  0.00    +0.003 A 
ATOM     17  S   UNL     1      -2.722   2.119   3.516  0.00  0.00    -0.097 S 
BRANCH  14  18
ATOM     18  C   UNL     1      -0.806   0.869   0.317  0.00  0.00    -0.042 C 
BRANCH  18  24
ATOM     19  C   UNL     1       1.221   0.087   1.389  0.00  0.00    -0.050 C 
ATOM     20  C   UNL     1       1.975  -1.168   1.835  0.00  0.00    +0.141 C 
ATOM     21  O   UNL     1       2.220  -2.001   0.698  0.00  0.00    -0.383 OA
ATOM     22  C   UNL     1       1.031  -2.406   0.015  0.00  0.00    +0.141 C 
ATOM     23  C   UNL     1       0.267  -1.163  -0.450  0.00  0.00    -0.050 C 
ATOM     24  N   UNL     1      -0.036  -0.325   0.729  0.00  0.00    +0.385 N 
ATOM     25  H   UNL     1      -0.598  -0.871   1.393  0.00  0.00    -0.081 HD
ENDBRANCH  18  24
ENDBRANCH  14  18
ENDBRANCH   1  16
BRANCH  10  26
ATOM     26  N   UNL     1      -3.896   6.530   4.982  0.00  0.00    -0.329 N 
ATOM     27  H   UNL     1      -4.013   7.112   4.215  0.00  0.00    +0.145 HD
ATOM     28  H   UNL     1      -4.506   6.591   5.734  0.00  0.00    +0.145 HD
ENDBRANCH  10  26
BRANCH  11  29
ATOM     29  C   UNL     1      -2.357   6.233   2.751  0.00  0.00    +0.341 C 
ATOM     30  O   UNL     1      -1.655   7.193   2.485  0.00  0.00    -0.245 OA
BRANCH  29  31
ATOM     31  O   UNL     1      -3.386   5.904   1.940  0.00  0.00    -0.465 OA
ATOM     32  C   UNL     1      -3.593   6.725   0.789  0.00  0.00    +0.280 C 
ENDBRANCH  29  31
ENDBRANCH  11  29
TORSDOF 6
