REMARK  Name = ZINC35732524
REMARK  6 active torsions:
REMARK  status: ('A' for Active; 'I' for Inactive)
REMARK    1  A    between atoms: C_1  and  C_2
REMARK    2  A    between atoms: C_3  and  N_16
REMARK    3  A    between atoms: C_4  and  N_8
REMARK    4  A    between atoms: N_5  and  C_7
REMARK    5  A    between atoms: N_8  and  C_9
REMARK    6  A    between atoms: C_12  and  O_15
REMARK                            x       y       z     vdW  Elec       q    Type
REMARK                         _______ _______ _______ _____ _____    ______ ____
ROOT
ATOM      1  C   UNL     1      -0.506  -0.280   2.425  0.00  0.00    +0.070 C 
ATOM      2  C   UNL     1      -0.199  -0.769   1.033  0.00  0.00    +0.092 A 
ATOM      3  C   UNL     1      -0.342  -2.082   0.577  0.00  0.00    +0.188 A 
ATOM      4  C   UNL     1       0.036  -2.112  -0.731  0.00  0.00    +0.148 A 
ATOM      5  N   UNL     1       0.403  -0.858  -1.079  0.00  0.00    -0.251 N 
ATOM      6  N   UNL     1       0.241  -0.035   0.043  0.00  0.00    -0.173 NA
ATOM      7  C   UNL     1       0.881  -0.433  -2.397  0.00  0.00    +0.174 C 
ENDROOT
BRANCH   3   8
ATOM      8  N   UNL     1      -0.819  -3.235   1.373  0.00  0.00    +0.062 N 
ATOM      9  O   UNL     1      -1.998  -3.498   1.409  0.00  0.00    -0.126 OA
ATOM     10  O   UNL     1      -0.029  -3.913   1.988  0.00  0.00    -0.126 OA
ENDBRANCH   3   8
BRANCH   4  11
ATOM     11  N   UNL     1       0.044  -3.231  -1.560  0.00  0.00    -0.325 N 
ATOM     12  H   UNL     1      -0.040  -3.124  -2.520  0.00  0.00    +0.148 HD
BRANCH  11  13
ATOM     13  C   UNL     1       0.178  -4.570  -0.981  0.00  0.00    +0.072 C 
ATOM     14  C   UNL     1       1.649  -4.840  -0.656  0.00  0.00    +0.025 C 
ATOM     15  C   UNL     1       2.479  -4.753  -1.938  0.00  0.00    +0.033 C 
ATOM     16  C   UNL     1       1.978  -5.795  -2.941  0.00  0.00    +0.115 C 
ATOM     17  C   UNL     1       0.508  -5.525  -3.266  0.00  0.00    +0.033 C 
ATOM     18  C   UNL     1      -0.322  -5.612  -1.984  0.00  0.00    +0.025 C 
BRANCH  16  19
ATOM     19  O   UNL     1       2.754  -5.714  -4.139  0.00  0.00    -0.392 OA
ATOM     20  H   UNL     1       2.491  -6.347  -4.821  0.00  0.00    +0.210 HD
ENDBRANCH  16  19
ENDBRANCH  11  13
ENDBRANCH   4  11
TORSDOF 4
