REMARK  Name = ZINC04821174
REMARK  10 active torsions:
REMARK  status: ('A' for Active; 'I' for Inactive)
REMARK    1  A    between atoms: C_1  and  C_2
REMARK    2  A    between atoms: C_2  and  O_3
REMARK    3  A    between atoms: O_3  and  C_4
REMARK    4  A    between atoms: C_6  and  C_16
REMARK    5  A    between atoms: C_9  and  O_10
REMARK    6  A    between atoms: O_10  and  C_11
REMARK    7  A    between atoms: C_11  and  C_12
REMARK    8  A    between atoms: C_16  and  N_50
REMARK    9  A    between atoms: C_17  and  N_50
REMARK   10  A    between atoms: C_23  and  C_25
REMARK                            x       y       z     vdW  Elec       q    Type
REMARK                         _______ _______ _______ _____ _____    ______ ____
ROOT
ATOM      1  C   UNL     1       3.788  -0.500   2.032  0.00  0.00    +0.162 A 
ATOM      2  C   UNL     1       3.077   0.013   0.959  0.00  0.00    +0.052 A 
ATOM      3  C   UNL     1       2.125   0.993   1.166  0.00  0.00    -0.042 A 
ATOM      4  C   UNL     1       1.883   1.468   2.442  0.00  0.00    +0.046 A 
ATOM      5  C   UNL     1       2.585   0.955   3.518  0.00  0.00    +0.069 A 
ATOM      6  C   UNL     1       3.541  -0.027   3.317  0.00  0.00    +0.164 A 
ATOM      7 CL   UNL     1       0.691   2.704   2.696  0.00  0.00    -0.083 Cl
ENDROOT
BRANCH   1   8
ATOM      8  O   UNL     1       4.726  -1.464   1.829  0.00  0.00    -0.489 OA
BRANCH   8  10
ATOM      9  C   UNL     1       6.012  -2.980   0.454  0.00  0.00    +0.048 C 
ATOM     10  C   UNL     1       4.927  -1.901   0.483  0.00  0.00    +0.226 C 
ENDBRANCH   8  10
ENDBRANCH   1   8
BRANCH   6  11
ATOM     11  O   UNL     1       4.237  -0.528   4.372  0.00  0.00    -0.479 OA
BRANCH  11  12
ATOM     12  C   UNL     1       3.931   0.005   5.663  0.00  0.00    +0.324 C 
BRANCH  12  13
ATOM     13  C   UNL     1       4.794  -0.665   6.701  0.00  0.00    +0.248 C 
ATOM     14  O   UNL     1       5.592  -1.515   6.368  0.00  0.00    -0.272 OA
ATOM     15  N   UNL     1       4.678  -0.320   7.998  0.00  0.00    -0.327 N 
ATOM     16  H   UNL     1       4.039   0.360   8.264  0.00  0.00    +0.145 HD
ATOM     17  H   UNL     1       5.233  -0.751   8.666  0.00  0.00    +0.145 HD
ENDBRANCH  12  13
ENDBRANCH  11  12
ENDBRANCH   6  11
BRANCH   3  18
ATOM     18  C   UNL     1       1.353   1.550  -0.003  0.00  0.00    -0.045 C 
BRANCH  18  19
ATOM     19  N   UNL     1      -0.015   0.998   0.015  0.00  0.00    +0.384 N 
ATOM     20  H   UNL     1      -0.475   1.261   0.894  0.00  0.00    -0.085 HD
ATOM     21  H   UNL     1       0.032  -0.025  -0.054  0.00  0.00    -0.085 HD
BRANCH  19  22
ATOM     22  C   UNL     1      -0.795   1.527  -1.120  0.00  0.00    -0.069 C 
ATOM     23  C   UNL     1      -0.534   0.673  -2.362  0.00  0.00    -0.015 C 
ATOM     24  C   UNL     1      -1.350   1.216  -3.536  0.00  0.00    -0.002 C 
ATOM     25  C   UNL     1      -2.839   1.167  -3.188  0.00  0.00    +0.000 C 
ATOM     26  C   UNL     1      -3.101   2.022  -1.946  0.00  0.00    +0.002 C 
ATOM     27  C   UNL     1      -2.284   1.478  -0.772  0.00  0.00    -0.028 C 
ATOM     28  C   UNL     1      -2.696   0.031  -0.491  0.00  0.00    +0.006 C 
ENDBRANCH  19  22
ENDBRANCH  18  19
ENDBRANCH   3  18
TORSDOF 8
