REMARK  Name = ZINC65459713
REMARK  7 active torsions:
REMARK  status: ('A' for Active; 'I' for Inactive)
REMARK    1  A    between atoms: C_4  and  N_26
REMARK    2  A    between atoms: C_5  and  N_7
REMARK    3  A    between atoms: N_7  and  C_8
REMARK    4  A    between atoms: C_8  and  C_9
REMARK    5  A    between atoms: C_9  and  N_10
REMARK    6  A    between atoms: N_13  and  C_14
REMARK    7  A    between atoms: C_19  and  N_20
REMARK                            x       y       z     vdW  Elec       q    Type
REMARK                         _______ _______ _______ _____ _____    ______ ____
ROOT
ATOM      1  N   UNL     1      -1.930  -5.693   1.511  0.00  0.00    -0.298 N 
ATOM      2  C   UNL     1      -1.992  -6.988   1.880  0.00  0.00    +0.304 C 
ATOM      3  O   UNL     1      -0.976  -7.652   1.942  0.00  0.00    -0.253 OA
ATOM      4  N   UNL     1      -3.182  -7.546   2.180  0.00  0.00    -0.267 N 
ATOM      5  H   UNL     1      -2.741  -5.163   1.461  0.00  0.00    +0.150 HD
ATOM      6  H   UNL     1      -3.998  -7.032   2.080  0.00  0.00    +0.156 HD
ENDROOT
BRANCH   4   7
ATOM      7  C   UNL     1      -3.239  -8.871   2.636  0.00  0.00    +0.073 A 
ATOM      8  C   UNL     1      -2.269  -9.790   2.257  0.00  0.00    +0.028 A 
ATOM      9  C   UNL     1      -2.368 -11.089   2.734  0.00  0.00    +0.019 A 
ATOM     10  C   UNL     1      -3.417 -11.429   3.564  0.00  0.00    +0.084 A 
ATOM     11  N   UNL     1      -4.326 -10.536   3.910  0.00  0.00    -0.348 N 
ATOM     12  C   UNL     1      -4.269  -9.285   3.484  0.00  0.00    +0.121 A 
ATOM     13  H   UNL     1      -5.052 -10.803   4.494  0.00  0.00    +0.167 HD
BRANCH  12  14
ATOM     14  N   UNL     1      -5.246  -8.376   3.878  0.00  0.00    -0.311 N 
ATOM     15  C   UNL     1      -6.523  -8.273   3.154  0.00  0.00    +0.134 C 
ATOM     16  C   UNL     1      -7.665  -8.349   4.173  0.00  0.00    +0.178 C 
ATOM     17  O   UNL     1      -7.441  -7.385   5.204  0.00  0.00    -0.377 OA
ATOM     18  C   UNL     1      -6.248  -7.604   5.961  0.00  0.00    +0.178 C 
ATOM     19  C   UNL     1      -5.036  -7.493   5.037  0.00  0.00    +0.134 C 
ENDBRANCH  12  14
ENDBRANCH   4   7
BRANCH   1  20
ATOM     20  C   UNL     1      -0.637  -5.086   1.185  0.00  0.00    +0.124 C 
BRANCH  20  21
ATOM     21  C   UNL     1      -0.845  -3.619   0.801  0.00  0.00    +0.120 C 
BRANCH  21  22
ATOM     22  N   UNL     1       0.448  -3.012   0.475  0.00  0.00    -0.341 N 
ATOM     23  H   UNL     1       1.259  -3.542   0.524  0.00  0.00    +0.146 HD
BRANCH  22  28
ATOM     24  C   UNL     1      -0.553   0.456  -0.214  0.00  0.00    +0.002 A 
ATOM     25  C   UNL     1       0.641   0.988  -0.666  0.00  0.00    +0.002 A 
ATOM     26  C   UNL     1       1.771   0.194  -0.740  0.00  0.00    +0.034 A 
ATOM     27  C   UNL     1       1.710  -1.133  -0.362  0.00  0.00    +0.147 A 
ATOM     28  C   UNL     1       0.513  -1.671   0.092  0.00  0.00    +0.058 A 
ATOM     29  C   UNL     1      -0.621  -0.870   0.165  0.00  0.00    +0.025 A 
BRANCH  27  30
ATOM     30  N   UNL     1       2.920  -1.982  -0.442  0.00  0.00    +0.058 N 
ATOM     31  O   UNL     1       3.999  -1.527  -0.140  0.00  0.00    -0.126 OA
ATOM     32  O   UNL     1       2.829  -3.131  -0.809  0.00  0.00    -0.126 OA
ENDBRANCH  27  30
ENDBRANCH  22  28
ENDBRANCH  21  22
ENDBRANCH  20  21
ENDBRANCH   1  20
TORSDOF 7
