REMARK  Name = ZINC08157055
REMARK  9 active torsions:
REMARK  status: ('A' for Active; 'I' for Inactive)
REMARK    1  A    between atoms: C_1  and  C_2
REMARK    2  A    between atoms: C_2  and  C_3
REMARK    3  A    between atoms: C_2  and  C_4
REMARK    4  A    between atoms: C_4  and  C_6
REMARK    5  A    between atoms: C_4  and  O_12
REMARK    6  A    between atoms: O_12  and  C_13
REMARK    7  A    between atoms: C_13  and  C_15
REMARK    8  A    between atoms: N_18  and  C_21
REMARK    9  A    between atoms: C_24  and  C_26
REMARK                            x       y       z     vdW  Elec       q    Type
REMARK                         _______ _______ _______ _____ _____    ______ ____
ROOT
ATOM      1  C   UNL     1      -3.670   5.170   6.330  0.00  0.00    +0.101 C 
ATOM      2  C   UNL     1      -3.873   3.788   5.703  0.00  0.00    +0.033 C 
ATOM      3  C   UNL     1      -2.952   3.643   4.490  0.00  0.00    +0.107 C 
ATOM      4  N   UNL     1      -1.555   3.808   4.912  0.00  0.00    -0.317 N 
ATOM      5  C   UNL     1      -1.325   5.145   5.474  0.00  0.00    +0.107 C 
ATOM      6  C   UNL     1      -2.197   5.335   6.717  0.00  0.00    +0.033 C 
ENDROOT
BRANCH   4   7
ATOM      7  C   UNL     1      -0.683   3.554   3.860  0.00  0.00    +0.099 A 
ATOM      8  C   UNL     1       0.690   3.658   4.061  0.00  0.00    +0.042 A 
ATOM      9  C   UNL     1       1.546   3.402   3.005  0.00  0.00    +0.017 A 
ATOM     10  C   UNL     1       0.998   3.049   1.779  0.00  0.00    +0.071 A 
ATOM     11  C   UNL     1      -0.373   2.970   1.648  0.00  0.00    +0.096 A 
ATOM     12  N   UNL     1      -1.244   3.209   2.665  0.00  0.00    -0.349 N 
ATOM     13  H   UNL     1      -2.261   3.135   2.541  0.00  0.00    +0.167 HD
BRANCH  10  14
ATOM     14  C   UNL     1       1.893   2.760   0.601  0.00  0.00    +0.419 C 
ATOM     15  F   UNL     1       2.215   1.399   0.582  0.00  0.00    -0.166 F 
ATOM     16  F   UNL     1       3.065   3.516   0.710  0.00  0.00    -0.166 F 
ATOM     17  F   UNL     1       1.228   3.099  -0.583  0.00  0.00    -0.166 F 
ENDBRANCH  10  14
ENDBRANCH   4   7
BRANCH   1  18
ATOM     18  C   UNL     1      -4.531   5.296   7.561  0.00  0.00    +0.311 C 
ATOM     19  O   UNL     1      -5.235   4.375   7.902  0.00  0.00    -0.251 OA
BRANCH  18  20
ATOM     20  O   UNL     1      -4.515   6.431   8.278  0.00  0.00    -0.451 OA
BRANCH  20  21
ATOM     21  C   UNL     1      -5.370   6.481   9.450  0.00  0.00    +0.264 C 
BRANCH  21  22
ATOM     22  C   UNL     1      -4.750   7.386  10.484  0.00  0.00    +0.261 C 
ATOM     23  O   UNL     1      -3.727   7.985  10.231  0.00  0.00    -0.271 OA
ATOM     24  N   UNL     1      -5.334   7.530  11.690  0.00  0.00    -0.237 N 
ATOM     25  C   UNL     1      -4.731   8.262  12.648  0.00  0.00    +0.303 C 
ATOM     26  O   UNL     1      -3.661   8.792  12.424  0.00  0.00    -0.253 OA
ATOM     27  N   UNL     1      -5.315   8.406  13.854  0.00  0.00    -0.313 N 
ATOM     28  H   UNL     1      -6.189   7.107  11.869  0.00  0.00    +0.159 HD
ATOM     29  H   UNL     1      -6.170   7.983  14.033  0.00  0.00    +0.146 HD
ATOM     30  H   UNL     1      -4.881   8.932  14.544  0.00  0.00    +0.146 HD
ENDBRANCH  21  22
BRANCH  21  32
ATOM     31  C   UNL     1      -6.579   8.367   8.345  0.00  0.00    +0.011 C 
ATOM     32  C   UNL     1      -6.745   7.023   9.056  0.00  0.00    +0.033 C 
ATOM     33  C   UNL     1      -7.434   6.031   8.118  0.00  0.00    +0.011 C 
ENDBRANCH  21  32
ENDBRANCH  20  21
ENDBRANCH  18  20
ENDBRANCH   1  18
TORSDOF 7
