REMARK  Name = ZINC50816856
REMARK  7 active torsions:
REMARK  status: ('A' for Active; 'I' for Inactive)
REMARK    1  A    between atoms: C_1  and  C_2
REMARK    2  A    between atoms: C_8  and  N_10
REMARK    3  A    between atoms: N_10  and  C_11
REMARK    4  A    between atoms: N_10  and  C_12
REMARK    5  A    between atoms: C_12  and  C_13
REMARK    6  A    between atoms: C_16  and  N_22
REMARK    7  A    between atoms: C_17  and  N_19
REMARK                            x       y       z     vdW  Elec       q    Type
REMARK                         _______ _______ _______ _____ _____    ______ ____
ROOT
ATOM      1  C   UNL     1       0.279  -0.102   5.066  0.00  0.00    -0.062 A 
ATOM      2  C   UNL     1       0.552   1.235   5.293  0.00  0.00    +0.004 A 
ATOM      3  C   UNL     1      -0.171   1.938   6.236  0.00  0.00    +0.025 A 
ATOM      4  C   UNL     1      -1.174   1.302   6.957  0.00  0.00    +0.055 A 
ATOM      5  C   UNL     1      -1.445  -0.040   6.726  0.00  0.00    +0.147 A 
ATOM      6  C   UNL     1      -0.722  -0.737   5.778  0.00  0.00    +0.036 A 
ENDROOT
BRANCH   5   7
ATOM      7  N   UNL     1      -2.512  -0.723   7.492  0.00  0.00    +0.058 N 
ATOM      8  O   UNL     1      -2.677  -0.464   8.661  0.00  0.00    -0.126 OA
ATOM      9  O   UNL     1      -3.220  -1.538   6.948  0.00  0.00    -0.126 OA
ENDBRANCH   5   7
BRANCH   4  10
ATOM     10  N   UNL     1      -1.907   2.010   7.912  0.00  0.00    -0.356 N 
ATOM     11  H   UNL     1      -1.638   2.909   8.161  0.00  0.00    +0.142 HD
ATOM     12  H   UNL     1      -2.685   1.605   8.325  0.00  0.00    +0.142 HD
ENDBRANCH   4  10
BRANCH   1  13
ATOM     13  C   UNL     1       1.070  -0.866   4.036  0.00  0.00    -0.043 C 
BRANCH  13  14
ATOM     14  N   UNL     1       0.408  -0.756   2.729  0.00  0.00    +0.383 N 
ATOM     15  C   UNL     1      -0.901  -1.420   2.786  0.00  0.00    -0.095 C 
ATOM     16  H   UNL     1       0.281   0.218   2.498  0.00  0.00    -0.081 HD
BRANCH  14  23
ATOM     17  C   UNL     1       0.358   0.193  -0.009  0.00  0.00    +0.006 C 
ATOM     18  C   UNL     1       0.550  -1.283   0.342  0.00  0.00    -0.028 C 
ATOM     19  C   UNL     1       1.417  -1.953  -0.727  0.00  0.00    +0.002 C 
ATOM     20  C   UNL     1       2.780  -1.261  -0.785  0.00  0.00    +0.000 C 
ATOM     21  C   UNL     1       3.469  -1.376   0.576  0.00  0.00    -0.002 C 
ATOM     22  C   UNL     1       2.603  -0.707   1.644  0.00  0.00    -0.015 C 
ATOM     23  C   UNL     1       1.240  -1.399   1.703  0.00  0.00    -0.066 C 
ENDBRANCH  14  23
ENDBRANCH  13  14
ENDBRANCH   1  13
TORSDOF 5
