REMARK  Name = ZINC49660453
REMARK  6 active torsions:
REMARK  status: ('A' for Active; 'I' for Inactive)
REMARK    1  A    between atoms: C_1  and  C_2
REMARK    2  A    between atoms: C_2  and  N_3
REMARK    3  A    between atoms: N_3  and  C_4
REMARK    4  A    between atoms: N_8  and  C_11
REMARK    5  A    between atoms: C_16  and  O_17
REMARK    6  A    between atoms: O_17  and  C_18
REMARK                            x       y       z     vdW  Elec       q    Type
REMARK                         _______ _______ _______ _____ _____    ______ ____
ROOT
ATOM      1  C   UNL     1       0.733  -1.960   1.184  0.00  0.00    +0.018 C 
ATOM      2  C   UNL     1       1.406  -2.499   2.467  0.00  0.00    +0.013 C 
ATOM      3  C   UNL     1       2.868  -2.683   2.002  0.00  0.00    +0.112 C 
ATOM      4  N   UNL     1       2.795  -2.874   0.549  0.00  0.00    -0.270 N 
ATOM      5  C   UNL     1       1.606  -2.471   0.060  0.00  0.00    +0.206 C 
ATOM      6  O   UNL     1       1.282  -2.512  -1.108  0.00  0.00    -0.277 OA
ENDROOT
BRANCH   4   7
ATOM      7  C   UNL     1       3.830  -3.408  -0.231  0.00  0.00    +0.079 A 
ATOM      8  C   UNL     1       3.896  -4.775  -0.455  0.00  0.00    +0.042 A 
ATOM      9  C   UNL     1       4.918  -5.300  -1.225  0.00  0.00    +0.020 A 
ATOM     10  C   UNL     1       5.875  -4.464  -1.773  0.00  0.00    +0.019 A 
ATOM     11  C   UNL     1       5.814  -3.101  -1.553  0.00  0.00    +0.048 A 
ATOM     12  C   UNL     1       4.790  -2.567  -0.787  0.00  0.00    +0.141 A 
ATOM     13 BR   UNL     1       5.007  -7.164  -1.530  0.00  0.00    -0.050 Br
BRANCH  12  14
ATOM     14  O   UNL     1       4.727  -1.225  -0.575  0.00  0.00    -0.493 OA
ATOM     15  C   UNL     1       5.746  -0.424  -1.176  0.00  0.00    +0.277 C 
ENDBRANCH  12  14
ENDBRANCH   4   7
BRANCH   1  16
ATOM     16  N   UNL     1       0.713  -0.491   1.192  0.00  0.00    +0.386 N 
ATOM     17  H   UNL     1       1.659  -0.141   1.185  0.00  0.00    -0.085 HD
ATOM     18  H   UNL     1       0.240  -0.165   2.022  0.00  0.00    -0.085 HD
BRANCH  16  20
ATOM     19  C   UNL     1      -0.019   1.526   0.010  0.00  0.00    -0.017 C 
ATOM     20  C   UNL     1       0.002  -0.004   0.002  0.00  0.00    -0.085 C 
ENDBRANCH  16  20
ENDBRANCH   1  16
TORSDOF 4
