REMARK  Name = ZINC66746017
REMARK  8 active torsions:
REMARK  status: ('A' for Active; 'I' for Inactive)
REMARK    1  A    between atoms: C_1  and  C_2
REMARK    2  A    between atoms: C_2  and  O_3
REMARK    3  A    between atoms: O_3  and  C_4
REMARK    4  A    between atoms: C_7  and  O_24
REMARK    5  A    between atoms: C_8  and  C_10
REMARK    6  A    between atoms: N_11  and  C_12
REMARK    7  A    between atoms: C_12  and  C_13
REMARK    8  A    between atoms: C_13  and  O_23
REMARK                            x       y       z     vdW  Elec       q    Type
REMARK                         _______ _______ _______ _____ _____    ______ ____
ROOT
ATOM      1  C   UNL     1       2.179  -4.254   3.827  0.00  0.00    +0.090 C 
ATOM      2  N   UNL     1       2.264  -5.541   3.936  0.00  0.00    -0.387 N 
ATOM      3  H   UNL     1       1.928  -6.111   3.227  0.00  0.00    +0.159 HD
ENDROOT
BRANCH   1   8
ATOM      4  C   UNL     1       1.058  -1.714   1.298  0.00  0.00    +0.121 A 
ATOM      5  C   UNL     1       0.832  -2.519   0.188  0.00  0.00    +0.049 A 
ATOM      6  C   UNL     1       1.042  -3.882   0.261  0.00  0.00    +0.049 A 
ATOM      7  C   UNL     1       1.482  -4.457   1.443  0.00  0.00    +0.126 A 
ATOM      8  C   UNL     1       1.712  -3.651   2.566  0.00  0.00    +0.035 A 
ATOM      9  C   UNL     1       1.502  -2.272   2.483  0.00  0.00    +0.058 A 
BRANCH   7  10
ATOM     10  O   UNL     1       1.688  -5.797   1.513  0.00  0.00    -0.506 OA
ATOM     11  H   UNL     1       2.586  -6.069   1.278  0.00  0.00    +0.292 HD
ENDBRANCH   7  10
BRANCH   4  12
ATOM     12  O   UNL     1       0.848  -0.373   1.217  0.00  0.00    -0.492 OA
BRANCH  12  14
ATOM     13  C   UNL     1       0.211   1.654   0.065  0.00  0.00    +0.048 C 
ATOM     14  C   UNL     1       0.389   0.137  -0.036  0.00  0.00    +0.225 C 
ENDBRANCH  12  14
ENDBRANCH   4  12
ENDBRANCH   1   8
BRANCH   2  15
ATOM     15  C   UNL     1       2.869  -6.136   5.130  0.00  0.00    +0.151 C 
BRANCH  15  16
ATOM     16  C   UNL     1       1.809  -6.928   5.898  0.00  0.00    +0.108 C 
ATOM     17  C   UNL     1       1.184  -7.965   4.968  0.00  0.00    +0.042 C 
ATOM     18  C   UNL     1       0.288  -8.887   5.805  0.00  0.00    +0.008 C 
ATOM     19  C   UNL     1       1.182  -9.751   6.693  0.00  0.00    +0.035 C 
ATOM     20  C   UNL     1       2.161  -8.893   7.451  0.00  0.00    -0.041 A 
ATOM     21  C   UNL     1       2.452  -7.598   7.084  0.00  0.00    -0.011 A 
ATOM     22  C   UNL     1       3.370  -6.864   7.823  0.00  0.00    +0.007 A 
ATOM     23  C   UNL     1       3.990  -7.420   8.924  0.00  0.00    +0.000 A 
ATOM     24  C   UNL     1       3.695  -8.718   9.294  0.00  0.00    +0.000 A 
ATOM     25  C   UNL     1       2.784  -9.450   8.560  0.00  0.00    +0.004 A 
BRANCH  16  26
ATOM     26  O   UNL     1       0.793  -6.033   6.356  0.00  0.00    -0.382 OA
ATOM     27  H   UNL     1       1.117  -5.339   6.947  0.00  0.00    +0.211 HD
ENDBRANCH  16  26
ENDBRANCH  15  16
ENDBRANCH   2  15
TORSDOF 7
