REMARK  Name = ZINC53044974
REMARK  6 active torsions:
REMARK  status: ('A' for Active; 'I' for Inactive)
REMARK    1  A    between atoms: C_4  and  C_10
REMARK    2  A    between atoms: C_6  and  N_7
REMARK    3  A    between atoms: C_10  and  N_11
REMARK    4  A    between atoms: N_11  and  C_12
REMARK    5  A    between atoms: C_12  and  C_17
REMARK    6  A    between atoms: C_17  and  O_18
REMARK                            x       y       z     vdW  Elec       q    Type
REMARK                         _______ _______ _______ _____ _____    ______ ____
ROOT
ATOM      1  C   UNL     1       3.748  -0.884   0.070  0.00  0.00    -0.044 C 
ENDROOT
BRANCH   1   5
ATOM      2  C   UNL     1      -0.356   0.297   0.193  0.00  0.00    +0.034 A 
ATOM      3  C   UNL     1       0.636   1.256   0.124  0.00  0.00    +0.022 A 
ATOM      4  C   UNL     1       1.965   0.875   0.084  0.00  0.00    +0.042 A 
ATOM      5  C   UNL     1       2.300  -0.467   0.113  0.00  0.00    -0.044 A 
ATOM      6  C   UNL     1       1.307  -1.426   0.182  0.00  0.00    +0.036 A 
ATOM      7  C   UNL     1      -0.021  -1.044   0.222  0.00  0.00    +0.126 A 
ATOM      8 CL   UNL     1       3.212   2.079  -0.003  0.00  0.00    -0.083 Cl
BRANCH   7   9
ATOM      9  N   UNL     1      -1.084  -2.071   0.296  0.00  0.00    +0.056 N 
ATOM     10  O   UNL     1      -2.245  -1.737   0.331  0.00  0.00    -0.126 OA
ATOM     11  O   UNL     1      -0.791  -3.244   0.322  0.00  0.00    -0.126 OA
ENDBRANCH   7   9
ENDBRANCH   1   5
BRANCH   1  12
ATOM     12  N   UNL     1       4.265  -0.717  -1.295  0.00  0.00    +0.387 N 
ATOM     13  H   UNL     1       3.676  -1.221  -1.942  0.00  0.00    -0.085 HD
ATOM     14  H   UNL     1       4.267   0.263  -1.537  0.00  0.00    -0.085 HD
BRANCH  12  15
ATOM     15  C   UNL     1       5.635  -1.242  -1.368  0.00  0.00    -0.044 C 
ATOM     16  C   UNL     1       6.217  -1.003  -2.772  0.00  0.00    -0.010 C 
ATOM     17  C   UNL     1       6.543  -2.393  -3.357  0.00  0.00    -0.001 C 
ATOM     18  C   UNL     1       5.614  -3.359  -2.581  0.00  0.00    -0.001 C 
ATOM     19  C   UNL     1       5.627  -2.769  -1.148  0.00  0.00    -0.010 C 
BRANCH  15  20
ATOM     20  C   UNL     1       6.512  -0.565  -0.313  0.00  0.00    +0.143 C 
BRANCH  20  21
ATOM     21  O   UNL     1       6.436   0.853  -0.470  0.00  0.00    -0.396 OA
ATOM     22  H   UNL     1       6.969   1.348   0.167  0.00  0.00    +0.209 HD
ENDBRANCH  20  21
ENDBRANCH  15  20
ENDBRANCH  12  15
ENDBRANCH   1  12
TORSDOF 6
