REMARK  Name = ZINC36199013
REMARK  11 active torsions:
REMARK  status: ('A' for Active; 'I' for Inactive)
REMARK    1  A    between atoms: C_1  and  C_2
REMARK    2  A    between atoms: C_2  and  C_3
REMARK    3  A    between atoms: C_2  and  C_4
REMARK    4  A    between atoms: C_4  and  N_5
REMARK    5  A    between atoms: N_5  and  C_6
REMARK    6  A    between atoms: N_5  and  C_10
REMARK    7  A    between atoms: C_6  and  C_7
REMARK    8  A    between atoms: C_7  and  C_8
REMARK    9  A    between atoms: C_7  and  C_9
REMARK   10  A    between atoms: C_17  and  C_19
REMARK   11  A    between atoms: C_19  and  N_20
REMARK                            x       y       z     vdW  Elec       q    Type
REMARK                         _______ _______ _______ _____ _____    ______ ____
ROOT
ATOM      1  C   UNL     1      -2.636  -2.302  -1.584  0.00  0.00    -0.067 C 
ATOM      2  C   UNL     1      -3.023  -1.288  -2.627  0.00  0.00    -0.015 C 
ATOM      3  C   UNL     1      -4.521  -0.963  -2.462  0.00  0.00    -0.002 C 
ATOM      4  C   UNL     1      -5.378  -1.974  -3.062  0.00  0.00    -0.000 C 
ATOM      5  C   UNL     1      -5.200  -3.359  -2.407  0.00  0.00    +0.000 C 
ATOM      6  C   UNL     1      -3.964  -4.001  -2.977  0.00  0.00    -0.000 C 
ATOM      7  C   UNL     1      -2.715  -3.747  -2.112  0.00  0.00    -0.042 C 
ENDROOT
BRANCH   1   8
ATOM      8  N   UNL     1      -1.261  -2.031  -1.144  0.00  0.00    +0.382 N 
ATOM      9  H   UNL     1      -0.641  -2.061  -1.940  0.00  0.00    -0.081 HD
BRANCH   8  10
ATOM     10  C   UNL     1      -1.198  -0.700  -0.525  0.00  0.00    -0.076 C 
BRANCH  10  12
ATOM     11  C   UNL     1      -1.527   0.580   1.595  0.00  0.00    +0.005 C 
ATOM     12  C   UNL     1      -1.632  -0.798   0.939  0.00  0.00    -0.034 C 
ATOM     13  C   UNL     1      -3.079  -1.289   1.011  0.00  0.00    +0.005 C 
ENDBRANCH  10  12
ENDBRANCH   8  10
BRANCH   8  14
ATOM     14  C   UNL     1      -0.851  -3.046  -0.166  0.00  0.00    -0.076 C 
BRANCH  14  15
ATOM     15  C   UNL     1       0.671  -3.015  -0.006  0.00  0.00    -0.034 C 
ATOM     16  C   UNL     1       1.065  -1.844   0.897  0.00  0.00    +0.005 C 
ATOM     17  C   UNL     1       1.144  -4.327   0.624  0.00  0.00    +0.005 C 
ENDBRANCH  14  15
ENDBRANCH   8  14
ENDBRANCH   1   8
BRANCH   7  18
ATOM     18  C   UNL     1      -1.467  -4.035  -2.949  0.00  0.00    -0.085 C 
BRANCH  18  19
ATOM     19  N   UNL     1      -1.489  -5.435  -3.395  0.00  0.00    +0.378 N 
ATOM     20  H   UNL     1      -1.502  -6.044  -2.591  0.00  0.00    -0.090 HD
ATOM     21  H   UNL     1      -2.313  -5.597  -3.954  0.00  0.00    -0.090 HD
ATOM     22  H   UNL     1      -0.666  -5.625  -3.947  0.00  0.00    -0.090 HD
ENDBRANCH  18  19
ENDBRANCH   7  18
TORSDOF 7
