REMARK  Name = ZINC53072199
REMARK  8 active torsions:
REMARK  status: ('A' for Active; 'I' for Inactive)
REMARK    1  A    between atoms: C_1  and  C_2
REMARK    2  A    between atoms: C_2  and  C_3
REMARK    3  A    between atoms: C_3  and  C_4
REMARK    4  A    between atoms: C_3  and  C_6
REMARK    5  A    between atoms: C_3  and  N_8
REMARK    6  A    between atoms: C_4  and  C_5
REMARK    7  A    between atoms: C_6  and  O_7
REMARK    8  A    between atoms: C_9  and  C_11
REMARK                            x       y       z     vdW  Elec       q    Type
REMARK                         _______ _______ _______ _____ _____    ______ ____
ROOT
ATOM      1  N   UNL     1      -2.142  -0.048  -1.174  0.00  0.00    -0.309 N 
ATOM      2  C   UNL     1      -1.689  -0.361  -2.404  0.00  0.00    +0.200 C 
ATOM      3  O   UNL     1      -0.694  -1.044  -2.529  0.00  0.00    -0.278 OA
ATOM      4  H   UNL     1      -2.937   0.498  -1.075  0.00  0.00    +0.149 HD
ENDROOT
BRANCH   2   5
ATOM      5  C   UNL     1      -2.418   0.138  -3.625  0.00  0.00    +0.017 C 
ATOM      6  C   UNL     1      -2.405   1.691  -3.651  0.00  0.00    -0.005 C 
ATOM      7  C   UNL     1      -2.220   1.980  -5.149  0.00  0.00    -0.026 C 
ATOM      8  C   UNL     1      -1.573   3.315  -5.476  0.00  0.00    +0.002 C 
ATOM      9  C   UNL     1      -1.362   3.358  -6.998  0.00  0.00    +0.000 C 
ATOM     10  C   UNL     1      -0.498   2.196  -7.477  0.00  0.00    -0.002 C 
ATOM     11  C   UNL     1      -1.079   0.844  -7.029  0.00  0.00    -0.015 C 
ATOM     12  C   UNL     1      -1.206   0.866  -5.523  0.00  0.00    -0.068 C 
ATOM     13  N   UNL     1      -1.724  -0.327  -4.854  0.00  0.00    +0.389 N 
ATOM     14  H   UNL     1      -0.964  -0.943  -4.608  0.00  0.00    -0.084 HD
ATOM     15  H   UNL     1      -2.377  -0.806  -5.457  0.00  0.00    -0.084 HD
ENDBRANCH   2   5
BRANCH   1  16
ATOM     16  C   UNL     1      -1.433  -0.534   0.013  0.00  0.00    +0.057 C 
BRANCH  16  18
ATOM     17  C   UNL     1      -0.019   1.526   0.010  0.00  0.00    +0.006 C 
ATOM     18  C   UNL     1       0.002  -0.004   0.002  0.00  0.00    +0.024 C 
ENDBRANCH  16  18
BRANCH  16  19
ATOM     19  C   UNL     1      -1.413  -2.063   0.004  0.00  0.00    +0.024 C 
ATOM     20  C   UNL     1      -2.844  -2.592  -0.110  0.00  0.00    +0.006 C 
ENDBRANCH  16  19
BRANCH  16  21
ATOM     21  C   UNL     1      -2.149  -0.040   1.272  0.00  0.00    +0.181 C 
BRANCH  21  22
ATOM     22  O   UNL     1      -1.458  -0.514   2.429  0.00  0.00    -0.393 OA
ATOM     23  H   UNL     1      -1.858  -0.238   3.266  0.00  0.00    +0.209 HD
ENDBRANCH  21  22
ENDBRANCH  16  21
ENDBRANCH   1  16
TORSDOF 6
