REMARK  Name = ZINC00036877
REMARK  10 active torsions:
REMARK  status: ('A' for Active; 'I' for Inactive)
REMARK    1  A    between atoms: C_1  and  C_2
REMARK    2  A    between atoms: C_2  and  C_3
REMARK    3  A    between atoms: C_3  and  C_20
REMARK    4  A    between atoms: C_4  and  C_18
REMARK    5  A    between atoms: C_4  and  O_19
REMARK    6  A    between atoms: N_5  and  C_9
REMARK    7  A    between atoms: C_11  and  C_16
REMARK    8  A    between atoms: C_11  and  C_17
REMARK    9  A    between atoms: C_12  and  C_14
REMARK   10  A    between atoms: C_12  and  C_15
REMARK                            x       y       z     vdW  Elec       q    Type
REMARK                         _______ _______ _______ _____ _____    ______ ____
ROOT
ATOM      1  C   UNL     1       0.759  -4.281  -1.615  0.00  0.00    +0.157 C 
ATOM      2  C   UNL     1       0.545  -2.862  -2.178  0.00  0.00    +0.175 C 
ATOM      3  N   UNL     1       0.948  -1.982  -1.071  0.00  0.00    -0.233 N 
ATOM      4  C   UNL     1       1.339  -2.738  -0.035  0.00  0.00    +0.406 C 
ATOM      5  O   UNL     1       1.730  -2.271   1.016  0.00  0.00    -0.226 OA
ATOM      6  O   UNL     1       1.256  -4.053  -0.264  0.00  0.00    -0.439 OA
ATOM      7  C   UNL     1      -0.927  -2.641  -2.531  0.00  0.00    +0.068 C 
ATOM      8  C   UNL     1      -0.564  -5.049  -1.578  0.00  0.00    +0.060 C 
ENDROOT
BRANCH   3   9
ATOM      9  C   UNL     1       0.931  -0.517  -1.098  0.00  0.00    +0.080 C 
ATOM     10  C   UNL     1       0.002  -0.004   0.002  0.00  0.00    +0.010 C 
ATOM     11  C   UNL     1      -0.019   1.522   0.010  0.00  0.00    -0.072 C 
ATOM     12  C   UNL     1       2.350   1.534  -0.825  0.00  0.00    -0.072 C 
ATOM     13  C   UNL     1       2.341   0.007  -0.826  0.00  0.00    +0.010 C 
ATOM     14  C   UNL     1       3.715   1.991  -0.264  0.00  0.00    -0.010 C 
ATOM     15  C   UNL     1       2.257   2.048  -2.267  0.00  0.00    -0.010 C 
ATOM     16  C   UNL     1      -0.856   2.030  -1.170  0.00  0.00    -0.010 C 
ATOM     17  C   UNL     1      -0.734   1.971   1.304  0.00  0.00    -0.010 C 
ATOM     18  N   UNL     1       1.322   2.167   0.044  0.00  0.00    +0.386 N 
ATOM     19  H   UNL     1       1.663   2.139   1.012  0.00  0.00    -0.084 HD
ATOM     20  H   UNL     1       1.212   3.144  -0.252  0.00  0.00    -0.084 HD
ENDBRANCH   3   9
BRANCH   1  22
ATOM     21  C   UNL     1       1.897  -6.480  -1.948  0.00  0.00    +0.008 C 
ATOM     22  C   UNL     1       1.794  -5.038  -2.450  0.00  0.00    +0.049 C 
ENDBRANCH   1  22
BRANCH   2  23
ATOM     23  O   UNL     1       1.373  -2.642  -3.321  0.00  0.00    -0.368 OA
ATOM     24  H   UNL     1       1.323  -1.744  -3.676  0.00  0.00    +0.212 HD
ENDBRANCH   2  23
TORSDOF 3
