REMARK  Name = ZINC14743430
REMARK  8 active torsions:
REMARK  status: ('A' for Active; 'I' for Inactive)
REMARK    1  A    between atoms: C_1  and  C_2
REMARK    2  A    between atoms: C_2  and  N_3
REMARK    3  A    between atoms: C_7  and  C_10
REMARK    4  A    between atoms: C_13  and  C_17
REMARK    5  A    between atoms: C_21  and  C_22
REMARK    6  A    between atoms: C_21  and  N_64
REMARK    7  A    between atoms: N_24  and  C_31
REMARK    8  A    between atoms: C_31  and  C_32
REMARK                            x       y       z     vdW  Elec       q    Type
REMARK                         _______ _______ _______ _____ _____    ______ ____
ROOT
ATOM      1  N   UNL     1      -5.888  10.339  -2.312  0.00  0.00    -0.312 N 
ATOM      2  C   UNL     1      -5.815   8.980  -2.218  0.00  0.00    +0.022 A 
ATOM      3  C   UNL     1      -4.623   8.348  -2.300  0.00  0.00    -0.044 A 
ATOM      4  C   UNL     1      -3.446   9.094  -2.473  0.00  0.00    +0.017 A 
ATOM      5  C   UNL     1      -3.519  10.473  -2.563  0.00  0.00    +0.047 A 
ATOM      6  C   UNL     1      -4.789  11.094  -2.478  0.00  0.00    +0.259 A 
ATOM      7  O   UNL     1      -4.885  12.307  -2.556  0.00  0.00    -0.267 OA
ATOM      8  C   UNL     1      -4.501   6.849  -2.211  0.00  0.00    -0.041 C 
ATOM      9  C   UNL     1      -6.901   6.744  -2.357  0.00  0.00    -0.072 C 
ATOM     10  C   UNL     1      -7.104   8.221  -2.022  0.00  0.00    +0.035 C 
ATOM     11  N   UNL     1      -5.716   6.275  -1.612  0.00  0.00    +0.385 N 
ATOM     12  H   UNL     1      -5.788   6.585  -0.636  0.00  0.00    -0.081 HD
ENDROOT
BRANCH   5  13
ATOM     13  C   UNL     1      -2.292  11.283  -2.745  0.00  0.00    -0.010 A 
ATOM     14  C   UNL     1      -2.104  12.014  -3.918  0.00  0.00    +0.009 A 
ATOM     15  C   UNL     1      -0.960  12.768  -4.083  0.00  0.00    +0.007 A 
ATOM     16  C   UNL     1       0.001  12.800  -3.088  0.00  0.00    -0.015 A 
ATOM     17  C   UNL     1      -0.179  12.076  -1.921  0.00  0.00    +0.127 A 
ATOM     18  C   UNL     1      -1.324  11.323  -1.742  0.00  0.00    +0.047 A 
ATOM     19  F   UNL     1       0.763  12.112  -0.953  0.00  0.00    -0.205 F 
ATOM     20  C   UNL     1       1.248  13.626  -3.275  0.00  0.00    +0.047 C 
ENDBRANCH   5  13
BRANCH   1  22
ATOM     21  C   UNL     1      -7.507  11.325  -0.766  0.00  0.00    +0.027 C 
ATOM     22  C   UNL     1      -7.196  10.992  -2.227  0.00  0.00    +0.122 C 
ENDBRANCH   1  22
BRANCH  11  23
ATOM     23  C   UNL     1      -5.647   4.796  -1.644  0.00  0.00    -0.040 C 
BRANCH  23  24
ATOM     24  C   UNL     1      -4.550   4.335  -0.720  0.00  0.00    -0.039 A 
ATOM     25  C   UNL     1      -3.312   3.956  -1.076  0.00  0.00    +0.089 A 
ATOM     26  N   UNL     1      -2.595   3.600   0.034  0.00  0.00    -0.338 N 
ATOM     27  C   UNL     1      -3.371   3.755   1.161  0.00  0.00    +0.050 A 
ATOM     28  C   UNL     1      -4.629   4.222   0.739  0.00  0.00    +0.001 A 
ATOM     29  C   UNL     1      -5.631   4.470   1.678  0.00  0.00    +0.010 A 
ATOM     30  C   UNL     1      -5.384   4.259   3.006  0.00  0.00    +0.001 A 
ATOM     31  C   UNL     1      -4.145   3.798   3.427  0.00  0.00    +0.002 A 
ATOM     32  C   UNL     1      -3.142   3.546   2.517  0.00  0.00    +0.026 A 
BRANCH  26  33
ATOM     33  C   UNL     1      -1.208   3.131   0.025  0.00  0.00    +0.217 C 
BRANCH  33  34
ATOM     34  C   UNL     1      -1.187   1.624   0.017  0.00  0.00    +0.230 C 
ATOM     35  O   UNL     1      -2.229   1.003   0.018  0.00  0.00    -0.274 OA
ATOM     36  N   UNL     1      -0.011   0.966   0.007  0.00  0.00    -0.328 N 
ATOM     37  H   UNL     1       0.002  -0.004   0.002  0.00  0.00    +0.145 HD
ATOM     38  H   UNL     1       0.822   1.462   0.002  0.00  0.00    +0.145 HD
ENDBRANCH  33  34
ENDBRANCH  26  33
ENDBRANCH  23  24
ENDBRANCH  11  23
TORSDOF 6
