REMARK  Name = ZINC60368108
REMARK  8 active torsions:
REMARK  status: ('A' for Active; 'I' for Inactive)
REMARK    1  A    between atoms: C_1  and  N_2
REMARK    2  A    between atoms: N_2  and  C_3
REMARK    3  A    between atoms: N_2  and  C_10
REMARK    4  A    between atoms: C_3  and  C_4
REMARK    5  A    between atoms: C_10  and  C_11
REMARK    6  A    between atoms: C_11  and  C_13
REMARK    7  A    between atoms: C_11  and  O_26
REMARK    8  A    between atoms: C_13  and  N_14
REMARK                            x       y       z     vdW  Elec       q    Type
REMARK                         _______ _______ _______ _____ _____    ______ ____
ROOT
ATOM      1  C   UNL     1       2.126   0.157   1.211  0.00  0.00    +0.116 C 
ENDROOT
BRANCH   1   2
ATOM      2  O   UNL     1       2.102   1.580   1.332  0.00  0.00    -0.392 OA
ATOM      3  H   UNL     1       1.694   1.899   2.149  0.00  0.00    +0.210 HD
ENDBRANCH   1   2
BRANCH   1   4
ATOM      4  C   UNL     1       0.694  -0.382   1.242  0.00  0.00    -0.046 C 
BRANCH   4   6
ATOM      5  C   UNL     1      -1.448  -0.289   0.166  0.00  0.00    -0.096 C 
ATOM      6  N   UNL     1      -0.035   0.099   0.060  0.00  0.00    +0.382 N 
ATOM      7  H   UNL     1       0.035   1.104   0.008  0.00  0.00    -0.082 HD
BRANCH   6   8
ATOM      8  C   UNL     1       0.546  -0.496  -1.150  0.00  0.00    -0.043 C 
BRANCH   8   9
ATOM      9  C   UNL     1      -0.120   0.090  -2.368  0.00  0.00    -0.064 A 
ATOM     10  C   UNL     1      -1.251  -0.507  -2.892  0.00  0.00    +0.002 A 
ATOM     11  C   UNL     1      -1.863   0.030  -4.009  0.00  0.00    +0.000 A 
ATOM     12  C   UNL     1      -1.343   1.165  -4.602  0.00  0.00    +0.000 A 
ATOM     13  C   UNL     1      -0.211   1.763  -4.078  0.00  0.00    +0.000 A 
ATOM     14  C   UNL     1       0.397   1.228  -2.958  0.00  0.00    +0.002 A 
ENDBRANCH   8   9
ENDBRANCH   6   8
ENDBRANCH   4   6
ENDBRANCH   1   4
BRANCH   1  15
ATOM     15  C   UNL     1       2.920  -0.441   2.374  0.00  0.00    +0.147 C 
BRANCH  15  16
ATOM     16  N   UNL     1       4.291   0.075   2.345  0.00  0.00    -0.222 N 
ATOM     17  C   UNL     1       5.307  -0.510   1.677  0.00  0.00    +0.244 C 
ATOM     18  O   UNL     1       5.271  -1.546   1.048  0.00  0.00    -0.273 OA
ATOM     19  C   UNL     1       6.501   0.397   1.874  0.00  0.00    +0.164 C 
ATOM     20  C   UNL     1       7.661  -0.364   2.524  0.00  0.00    +0.032 C 
ATOM     21  C   UNL     1       8.683   0.651   3.046  0.00  0.00    +0.004 C 
ATOM     22  C   UNL     1       8.063   1.520   4.141  0.00  0.00    +0.019 C 
ATOM     23  C   UNL     1       6.889   2.324   3.562  0.00  0.00    +0.110 C 
ATOM     24  N   UNL     1       6.004   1.392   2.849  0.00  0.00    -0.274 N 
ATOM     25  C   UNL     1       4.690   1.190   2.975  0.00  0.00    +0.312 C 
ATOM     26  O   UNL     1       3.945   1.927   3.590  0.00  0.00    -0.252 OA
ENDBRANCH  15  16
ENDBRANCH   1  15
TORSDOF 7
