REMARK  Name = ZINC50088167
REMARK  7 active torsions:
REMARK  status: ('A' for Active; 'I' for Inactive)
REMARK    1  A    between atoms: C_1  and  C_2
REMARK    2  A    between atoms: C_2  and  N_3
REMARK    3  A    between atoms: N_3  and  C_4
REMARK    4  A    between atoms: N_3  and  C_11
REMARK    5  A    between atoms: C_4  and  C_5
REMARK    6  A    between atoms: C_11  and  C_17
REMARK    7  A    between atoms: C_17  and  N_18
REMARK                            x       y       z     vdW  Elec       q    Type
REMARK                         _______ _______ _______ _____ _____    ______ ____
ROOT
ATOM      1  N   UNL     1       0.618  -0.579  -1.402  0.00  0.00    +0.382 N 
ATOM      2  H   UNL     1       0.003  -0.328  -2.161  0.00  0.00    -0.081 HD
ENDROOT
BRANCH   1   3
ATOM      3  C   UNL     1       2.001  -0.235  -1.757  0.00  0.00    -0.082 C 
ATOM      4  C   UNL     1       2.947  -0.732  -0.662  0.00  0.00    -0.014 C 
ATOM      5  C   UNL     1       4.388  -0.373  -1.032  0.00  0.00    -0.001 C 
ATOM      6  C   UNL     1       4.517   1.145  -1.167  0.00  0.00    -0.000 C 
ATOM      7  C   UNL     1       3.571   1.642  -2.261  0.00  0.00    -0.001 C 
ATOM      8  C   UNL     1       2.130   1.284  -1.892  0.00  0.00    -0.014 C 
BRANCH   3   9
ATOM      9  C   UNL     1       2.366  -0.898  -3.086  0.00  0.00    -0.099 C 
BRANCH   9  10
ATOM     10  N   UNL     1       1.458  -0.421  -4.138  0.00  0.00    +0.377 N 
ATOM     11  H   UNL     1       1.543   0.581  -4.226  0.00  0.00    -0.090 HD
ATOM     12  H   UNL     1       1.699  -0.858  -5.014  0.00  0.00    -0.090 HD
ATOM     13  H   UNL     1       0.508  -0.657  -3.894  0.00  0.00    -0.090 HD
ENDBRANCH   9  10
ENDBRANCH   3   9
ENDBRANCH   1   3
BRANCH   1  15
ATOM     14  C   UNL     1      -0.608   1.376  -0.582  0.00  0.00    -0.017 C 
ATOM     15  C   UNL     1       0.226   0.154  -0.191  0.00  0.00    -0.082 C 
ENDBRANCH   1  15
BRANCH   1  16
ATOM     16  C   UNL     1       0.521  -2.023  -1.152  0.00  0.00    -0.075 C 
BRANCH  16  17
ATOM     17  C   UNL     1      -0.917  -2.488  -1.392  0.00  0.00    -0.028 C 
ATOM     18  C   UNL     1      -1.840  -1.843  -0.356  0.00  0.00    +0.002 C 
ATOM     19  C   UNL     1      -3.278  -2.307  -0.596  0.00  0.00    +0.000 C 
ATOM     20  C   UNL     1      -3.351  -3.830  -0.466  0.00  0.00    +0.000 C 
ATOM     21  C   UNL     1      -2.427  -4.475  -1.502  0.00  0.00    +0.000 C 
ATOM     22  C   UNL     1      -0.989  -4.011  -1.262  0.00  0.00    +0.002 C 
ENDBRANCH  16  17
ENDBRANCH   1  16
TORSDOF 6
