REMARK  Name = ZINC62840017
REMARK  7 active torsions:
REMARK  status: ('A' for Active; 'I' for Inactive)
REMARK    1  A    between atoms: C_1  and  C_2
REMARK    2  A    between atoms: C_2  and  C_8
REMARK    3  A    between atoms: N_10  and  C_11
REMARK    4  A    between atoms: C_17  and  C_19
REMARK    5  A    between atoms: C_19  and  C_20
REMARK    6  A    between atoms: C_19  and  C_21
REMARK    7  A    between atoms: C_19  and  C_22
REMARK                            x       y       z     vdW  Elec       q    Type
REMARK                         _______ _______ _______ _____ _____    ______ ____
ROOT
ATOM      1  C   UNL     1      -1.849  -0.667   0.175  0.00  0.00    +0.219 C 
ATOM      2  O   UNL     1      -2.420  -1.384   0.969  0.00  0.00    -0.275 OA
ATOM      3  N   UNL     1      -2.509  -0.192  -0.900  0.00  0.00    -0.312 N 
ATOM      4  H   UNL     1      -2.053   0.381  -1.536  0.00  0.00    +0.149 HD
ENDROOT
BRANCH   1   6
ATOM      5  C   UNL     1      -0.265   1.212   0.514  0.00  0.00    +0.021 C 
ATOM      6  C   UNL     1      -0.402  -0.307   0.389  0.00  0.00    +0.041 C 
ATOM      7  C   UNL     1       0.432  -0.800  -0.797  0.00  0.00    -0.003 C 
ATOM      8  C   UNL     1       0.354  -2.327  -0.868  0.00  0.00    -0.082 C 
ATOM      9  N   UNL     1       0.879  -2.905   0.375  0.00  0.00    +0.379 N 
ATOM     10  C   UNL     1       0.042  -2.494   1.508  0.00  0.00    -0.082 C 
ATOM     11  C   UNL     1       0.107  -0.974   1.670  0.00  0.00    -0.003 C 
ATOM     12  H   UNL     1       0.877  -3.912   0.303  0.00  0.00    -0.086 HD
ATOM     13  H   UNL     1       1.824  -2.583   0.522  0.00  0.00    -0.086 HD
ENDBRANCH   1   6
BRANCH   3  14
ATOM     14  C   UNL     1      -3.917  -0.542  -1.109  0.00  0.00    +0.077 C 
ATOM     15  C   UNL     1      -4.806   0.461  -0.371  0.00  0.00    +0.022 C 
ATOM     16  C   UNL     1      -4.545   1.868  -0.912  0.00  0.00    +0.002 C 
ATOM     17  C   UNL     1      -4.864   1.907  -2.408  0.00  0.00    +0.000 C 
ATOM     18  C   UNL     1      -3.974   0.904  -3.145  0.00  0.00    +0.006 C 
ATOM     19  C   UNL     1      -4.235  -0.503  -2.605  0.00  0.00    +0.015 C 
BRANCH  19  20
ATOM     20  C   UNL     1      -3.346  -1.506  -3.342  0.00  0.00    -0.033 C 
ATOM     21  C   UNL     1      -3.492  -2.886  -2.699  0.00  0.00    +0.011 C 
ATOM     22  C   UNL     1      -3.769  -1.580  -4.811  0.00  0.00    +0.011 C 
ATOM     23  C   UNL     1      -1.887  -1.054  -3.255  0.00  0.00    +0.011 C 
ENDBRANCH  19  20
ENDBRANCH   3  14
TORSDOF 3
