REMARK  Name = ZINC50869776
REMARK  5 active torsions:
REMARK  status: ('A' for Active; 'I' for Inactive)
REMARK    1  A    between atoms: C_1  and  C_2
REMARK    2  A    between atoms: C_2  and  C_3
REMARK    3  A    between atoms: C_5  and  N_18
REMARK    4  A    between atoms: C_8  and  O_13
REMARK    5  A    between atoms: O_13  and  C_14
REMARK                            x       y       z     vdW  Elec       q    Type
REMARK                         _______ _______ _______ _____ _____    ______ ____
ROOT
ATOM      1  C   UNL     1       0.707  -0.490  -1.238  0.00  0.00    +0.018 A 
ATOM      2  C   UNL     1      -0.012  -0.613  -2.419  0.00  0.00    +0.044 A 
ATOM      3  C   UNL     1       0.624  -1.058  -3.567  0.00  0.00    +0.036 A 
ATOM      4  C   UNL     1       2.001  -1.373  -3.481  0.00  0.00    +0.022 A 
ATOM      5  C   UNL     1       2.715  -1.828  -4.598  0.00  0.00    +0.057 A 
ATOM      6  C   UNL     1       4.044  -2.121  -4.476  0.00  0.00    +0.131 A 
ATOM      7  C   UNL     1       4.698  -1.971  -3.251  0.00  0.00    +0.048 A 
ATOM      8  C   UNL     1       4.031  -1.531  -2.150  0.00  0.00    +0.030 A 
ATOM      9  C   UNL     1       2.663  -1.220  -2.240  0.00  0.00    +0.049 A 
ATOM     10  N   UNL     1       1.986  -0.780  -1.172  0.00  0.00    -0.358 N 
ATOM     11  H   UNL     1       2.451  -0.676  -0.327  0.00  0.00    +0.166 HD
ENDROOT
BRANCH   3  12
ATOM     12  N   UNL     1      -0.068  -1.192  -4.762  0.00  0.00    -0.357 N 
ATOM     13  H   UNL     1      -1.012  -0.973  -4.803  0.00  0.00    +0.142 HD
ATOM     14  H   UNL     1       0.392  -1.505  -5.556  0.00  0.00    +0.142 HD
ENDBRANCH   3  12
BRANCH   1  16
ATOM     15  C   UNL     1      -0.019   1.526   0.010  0.00  0.00    +0.010 C 
ATOM     16  C   UNL     1       0.002  -0.004   0.002  0.00  0.00    +0.050 C 
ENDBRANCH   1  16
BRANCH   6  17
ATOM     17  O   UNL     1       4.738  -2.564  -5.558  0.00  0.00    -0.406 OA
BRANCH  17  18
ATOM     18  C   UNL     1       6.124  -2.853  -5.367  0.00  0.00    +0.575 C 
ATOM     19  F   UNL     1       6.262  -3.853  -4.398  0.00  0.00    -0.133 F 
ATOM     20  F   UNL     1       6.679  -3.294  -6.573  0.00  0.00    -0.133 F 
ATOM     21  F   UNL     1       6.787  -1.697  -4.943  0.00  0.00    -0.133 F 
ENDBRANCH  17  18
ENDBRANCH   6  17
TORSDOF 4
