REMARK  Name = ZINC29070154
REMARK  9 active torsions:
REMARK  status: ('A' for Active; 'I' for Inactive)
REMARK    1  A    between atoms: C_1  and  N_2
REMARK    2  A    between atoms: N_2  and  C_3
REMARK    3  A    between atoms: N_2  and  S_4
REMARK    4  A    between atoms: S_4  and  C_7
REMARK    5  A    between atoms: C_10  and  N_17
REMARK    6  A    between atoms: C_11  and  C_13
REMARK    7  A    between atoms: C_13  and  O_15
REMARK    8  A    between atoms: O_15  and  C_16
REMARK    9  A    between atoms: C_20  and  O_23
REMARK                            x       y       z     vdW  Elec       q    Type
REMARK                         _______ _______ _______ _____ _____    ______ ____
ROOT
ATOM      1  C   UNL     1       1.164   3.169   0.000  0.00  0.00    +0.106 A 
ATOM      2  C   UNL     1       1.173   1.788   0.116  0.00  0.00    +0.030 A 
ATOM      3  C   UNL     1      -0.011   1.081   0.131  0.00  0.00    +0.026 A 
ATOM      4  C   UNL     1      -1.224   1.751   0.025  0.00  0.00    +0.044 A 
ATOM      5  C   UNL     1      -1.237   3.150  -0.087  0.00  0.00    +0.082 A 
ATOM      6  C   UNL     1      -0.028   3.852  -0.101  0.00  0.00    +0.045 A 
ENDROOT
BRANCH   4   7
ATOM      7  N   UNL     1      -2.417   1.041   0.034  0.00  0.00    -0.329 N 
ATOM      8  C   UNL     1      -2.468   0.083  -1.078  0.00  0.00    +0.107 C 
ATOM      9  C   UNL     1      -3.849  -0.575  -1.123  0.00  0.00    +0.050 C 
ATOM     10  C   UNL     1      -4.111  -1.292   0.204  0.00  0.00    +0.118 C 
ATOM     11  C   UNL     1      -4.004  -0.282   1.350  0.00  0.00    +0.050 C 
ATOM     12  C   UNL     1      -2.619   0.368   1.323  0.00  0.00    +0.107 C 
BRANCH  10  13
ATOM     13  O   UNL     1      -5.422  -1.860   0.189  0.00  0.00    -0.392 OA
ATOM     14  H   UNL     1      -5.790  -2.417   1.063  0.00  0.00    +0.210 HD
ENDBRANCH  10  13
ENDBRANCH   4   7
BRANCH   1  15
ATOM     15  S   UNL     1       2.686   4.057  -0.018  0.00  0.00    +0.060 S 
ATOM     16  O   UNL     1       2.391   5.378   0.414  0.00  0.00    -0.153 OA
ATOM     17  O   UNL     1       3.643   3.236   0.640  0.00  0.00    -0.153 OA
BRANCH  15  19
ATOM     18  C   UNL     1       2.744   5.314  -2.412  0.00  0.00    +0.131 C 
ATOM     19  N   UNL     1       3.168   4.172  -1.598  0.00  0.00    -0.183 NA
ATOM     20  C   UNL     1       4.018   3.132  -2.182  0.00  0.00    +0.131 C 
ENDBRANCH  15  19
ENDBRANCH   1  15
BRANCH   5  21
ATOM     21  C   UNL     1      -2.515   3.874  -0.194  0.00  0.00    +0.341 C 
ATOM     22  O   UNL     1      -3.558   3.256  -0.279  0.00  0.00    -0.245 OA
BRANCH  21  23
ATOM     23  O   UNL     1      -2.528   5.221  -0.199  0.00  0.00    -0.464 OA
ATOM     24  C   UNL     1      -3.824   5.868  -0.307  0.00  0.00    +0.280 C 
ENDBRANCH  21  23
ENDBRANCH   5  21
TORSDOF 6
