REMARK  Name = ZINC37271868
REMARK  7 active torsions:
REMARK  status: ('A' for Active; 'I' for Inactive)
REMARK    1  A    between atoms: C_1  and  C_2
REMARK    2  A    between atoms: C_2  and  C_3
REMARK    3  A    between atoms: C_2  and  C_4
REMARK    4  A    between atoms: C_2  and  C_5
REMARK    5  A    between atoms: C_11  and  N_13
REMARK    6  A    between atoms: N_13  and  C_14
REMARK    7  A    between atoms: C_14  and  C_15
REMARK                            x       y       z     vdW  Elec       q    Type
REMARK                         _______ _______ _______ _____ _____    ______ ____
ROOT
ATOM      1  C   UNL     1       0.591  -0.660  -1.526  0.00  0.00    -0.020 C 
ATOM      2  C   UNL     1       0.116  -0.139  -2.884  0.00  0.00    +0.002 C 
ATOM      3  C   UNL     1       0.921  -0.811  -3.998  0.00  0.00    +0.000 C 
ATOM      4  C   UNL     1       2.406  -0.489  -3.819  0.00  0.00    -0.002 C 
ATOM      5  C   UNL     1       2.881  -1.010  -2.461  0.00  0.00    -0.015 C 
ATOM      6  C   UNL     1       2.075  -0.338  -1.347  0.00  0.00    -0.068 C 
ENDROOT
BRANCH   1   8
ATOM      7  C   UNL     1      -0.555   1.446  -0.822  0.00  0.00    +0.011 C 
ATOM      8  C   UNL     1      -0.215   0.012  -0.412  0.00  0.00    -0.036 C 
ATOM      9  C   UNL     1       0.613   0.033   0.875  0.00  0.00    +0.011 C 
ATOM     10  C   UNL     1      -1.508  -0.771  -0.174  0.00  0.00    +0.011 C 
ENDBRANCH   1   8
BRANCH   6  11
ATOM     11  N   UNL     1       2.272   1.116  -1.409  0.00  0.00    +0.386 N 
ATOM     12  H   UNL     1       1.948   1.461  -2.300  0.00  0.00    -0.085 HD
ATOM     13  H   UNL     1       1.751   1.558  -0.667  0.00  0.00    -0.085 HD
BRANCH  11  14
ATOM     14  C   UNL     1       3.700   1.424  -1.255  0.00  0.00    -0.006 C 
BRANCH  14  15
ATOM     15  C   UNL     1       3.902   2.916  -1.319  0.00  0.00    +0.090 A 
ATOM     16  C   UNL     1       3.882   3.758  -0.270  0.00  0.00    +0.044 A 
ATOM     17  C   UNL     1       4.114   5.056  -0.782  0.00  0.00    +0.056 A 
ATOM     18  C   UNL     1       4.262   4.928  -2.114  0.00  0.00    +0.165 A 
ATOM     19  O   UNL     1       4.139   3.630  -2.432  0.00  0.00    -0.456 OA
ATOM     20  I   UNL     1       4.631   6.490  -3.460  0.00  0.00    -0.001 I 
ENDBRANCH  14  15
ENDBRANCH  11  14
ENDBRANCH   6  11
TORSDOF 4
