REMARK  Name = ZINC24971466
REMARK  8 active torsions:
REMARK  status: ('A' for Active; 'I' for Inactive)
REMARK    1  A    between atoms: C_1  and  C_2
REMARK    2  A    between atoms: C_2  and  C_4
REMARK    3  A    between atoms: C_2  and  S_14
REMARK    4  A    between atoms: N_10  and  C_11
REMARK    5  A    between atoms: N_10  and  C_12
REMARK    6  A    between atoms: S_14  and  C_15
REMARK    7  A    between atoms: C_19  and  C_22
REMARK    8  A    between atoms: N_29  and  C_30
REMARK                            x       y       z     vdW  Elec       q    Type
REMARK                         _______ _______ _______ _____ _____    ______ ____
ROOT
ATOM      1  C   UNL     1       2.182  -2.433  -2.643  0.00  0.00    +0.173 A 
ATOM      2  N   UNL     1       1.421  -2.931  -1.689  0.00  0.00    -0.216 NA
ATOM      3  C   UNL     1       0.742  -2.133  -0.873  0.00  0.00    +0.117 A 
ATOM      4  C   UNL     1       0.807  -0.732  -0.975  0.00  0.00    +0.080 A 
ATOM      5  C   UNL     1       0.002  -0.004   0.002  0.00  0.00    +0.010 A 
ATOM      6  C   UNL     1      -0.730  -0.710   0.898  0.00  0.00    +0.057 A 
ATOM      7  S   UNL     1      -0.372  -2.405   0.481  0.00  0.00    -0.076 S 
ATOM      8  C   UNL     1       1.647  -0.222  -2.011  0.00  0.00    +0.263 A 
ATOM      9  O   UNL     1       1.768   0.981  -2.171  0.00  0.00    -0.267 OA
ATOM     10  N   UNL     1       2.305  -1.084  -2.808  0.00  0.00    -0.290 N 
ATOM     11  C   UNL     1       3.168  -0.565  -3.872  0.00  0.00    +0.154 C 
ENDROOT
BRANCH   5  12
ATOM     12  C   UNL     1      -0.018   1.474   0.010  0.00  0.00    +0.021 A 
ATOM     13  C   UNL     1      -1.093   2.322   0.019  0.00  0.00    +0.016 A 
ATOM     14  C   UNL     1      -0.863   3.682   0.029  0.00  0.00    +0.008 A 
ATOM     15  C   UNL     1       0.415   4.136   0.019  0.00  0.00    +0.046 A 
ATOM     16  S   UNL     1       1.353   2.617   0.003  0.00  0.00    -0.097 S 
ENDBRANCH   5  12
BRANCH   1  17
ATOM     17  S   UNL     1       3.063  -3.523  -3.711  0.00  0.00    -0.077 S 
BRANCH  17  19
ATOM     18  C   UNL     1       1.026  -5.288  -3.263  0.00  0.00    +0.028 C 
ATOM     19  C   UNL     1       2.530  -5.118  -3.041  0.00  0.00    +0.119 C 
BRANCH  19  20
ATOM     20  C   UNL     1       3.269  -6.229  -3.740  0.00  0.00    +0.149 A 
ATOM     21  N   UNL     1       3.396  -6.211  -5.055  0.00  0.00    -0.198 NA
ATOM     22  C   UNL     1       4.053  -7.189  -5.676  0.00  0.00    +0.217 A 
ATOM     23  N   UNL     1       4.573  -8.188  -4.972  0.00  0.00    -0.181 NA
ATOM     24  C   UNL     1       4.439  -8.206  -3.650  0.00  0.00    +0.222 A 
ATOM     25  N   UNL     1       3.785  -7.222  -3.036  0.00  0.00    -0.198 NA
ATOM     26  N   UNL     1       4.977  -9.242  -2.915  0.00  0.00    -0.306 N 
ATOM     27  C   UNL     1       4.829  -9.260  -1.457  0.00  0.00    +0.132 C 
ATOM     28  C   UNL     1       5.697 -10.324  -3.591  0.00  0.00    +0.132 C 
ATOM     29  N   UNL     1       4.190  -7.166  -7.048  0.00  0.00    -0.327 N 
ATOM     30  H   UNL     1       4.732  -7.974  -7.561  0.00  0.00    +0.145 HD
ATOM     31  H   UNL     1       3.756  -6.340  -7.631  0.00  0.00    +0.145 HD
ENDBRANCH  19  20
ENDBRANCH  17  19
ENDBRANCH   1  17
TORSDOF 4
