REMARK  Name = ZINC13207521
REMARK  3 active torsions:
REMARK  status: ('A' for Active; 'I' for Inactive)
REMARK    1  A    between atoms: C_6  and  S_11
REMARK    2  A    between atoms: S_11  and  C_12
REMARK    3  A    between atoms: C_18  and  N_23
REMARK                            x       y       z     vdW  Elec       q    Type
REMARK                         _______ _______ _______ _____ _____    ______ ____
ROOT
ATOM      1  C   UNL     1       4.917  -4.579  -0.071  0.00  0.00    +0.014 A 
ATOM      2  C   UNL     1       3.602  -5.048  -0.147  0.00  0.00    +0.017 A 
ATOM      3  C   UNL     1       3.335  -6.383  -0.154  0.00  0.00    +0.027 A 
ATOM      4  C   UNL     1       4.388  -7.306  -0.086  0.00  0.00    +0.052 A 
ATOM      5  C   UNL     1       5.722  -6.838  -0.009  0.00  0.00    +0.039 A 
ATOM      6  C   UNL     1       5.976  -5.463  -0.007  0.00  0.00    +0.028 A 
ATOM      7  C   UNL     1       6.767  -7.794   0.059  0.00  0.00    +0.129 A 
ATOM      8  N   UNL     1       6.445  -9.079   0.048  0.00  0.00    -0.201 NA
ATOM      9  C   UNL     1       5.178  -9.476  -0.026  0.00  0.00    +0.192 A 
ATOM     10  N   UNL     1       4.168  -8.630  -0.091  0.00  0.00    -0.327 N 
ATOM     11  N   UNL     1       4.908 -10.833  -0.034  0.00  0.00    -0.329 N 
ATOM     12  H   UNL     1       5.636 -11.473   0.013  0.00  0.00    +0.145 HD
ATOM     13  H   UNL     1       3.991 -11.145  -0.087  0.00  0.00    +0.145 HD
ATOM     14  H   UNL     1       3.260  -8.968  -0.143  0.00  0.00    +0.169 HD
ENDROOT
BRANCH   7  15
ATOM     15  N   UNL     1       8.085  -7.395   0.136  0.00  0.00    -0.343 N 
ATOM     16  H   UNL     1       8.307  -6.451   0.143  0.00  0.00    +0.144 HD
ATOM     17  H   UNL     1       8.790  -8.059   0.182  0.00  0.00    +0.144 HD
ENDBRANCH   7  15
BRANCH   1  18
ATOM     18  S   UNL     1       5.226  -2.844  -0.064  0.00  0.00    -0.089 S 
BRANCH  18  24
ATOM     19  C   UNL     1       5.388  -2.390   6.638  0.00  0.00    +0.001 A 
ATOM     20  C   UNL     1       5.025  -3.683   6.268  0.00  0.00    +0.001 A 
ATOM     21  C   UNL     1       4.921  -4.033   4.957  0.00  0.00    +0.008 A 
ATOM     22  C   UNL     1       5.182  -3.078   3.959  0.00  0.00    -0.017 A 
ATOM     23  C   UNL     1       5.084  -3.404   2.596  0.00  0.00    +0.023 A 
ATOM     24  C   UNL     1       5.348  -2.440   1.647  0.00  0.00    +0.013 A 
ATOM     25  C   UNL     1       5.711  -1.142   2.029  0.00  0.00    +0.015 A 
ATOM     26  C   UNL     1       5.813  -0.803   3.341  0.00  0.00    +0.009 A 
ATOM     27  C   UNL     1       5.551  -1.762   4.335  0.00  0.00    -0.018 A 
ATOM     28  C   UNL     1       5.648  -1.439   5.700  0.00  0.00    +0.008 A 
ENDBRANCH  18  24
ENDBRANCH   1  18
TORSDOF 3
