REMARK  Name = ZINC40124545
REMARK  6 active torsions:
REMARK  status: ('A' for Active; 'I' for Inactive)
REMARK    1  A    between atoms: C_1  and  O_2
REMARK    2  A    between atoms: O_2  and  C_3
REMARK    3  A    between atoms: C_5  and  C_11
REMARK    4  A    between atoms: C_8  and  O_9
REMARK    5  A    between atoms: C_13  and  C_19
REMARK    6  A    between atoms: C_19  and  C_21
REMARK                            x       y       z     vdW  Elec       q    Type
REMARK                         _______ _______ _______ _____ _____    ______ ____
ROOT
ATOM      1  C   UNL     1       2.604   0.284   4.051  0.00  0.00    +0.142 C 
ATOM      2  C   UNL     1       1.856   0.153   5.357  0.00  0.00    +0.076 C 
ATOM      3  C   UNL     1       2.733  -0.342   6.261  0.00  0.00    +0.249 C 
ATOM      4  C   UNL     1       4.042  -0.547   5.606  0.00  0.00    +0.285 C 
ATOM      5  O   UNL     1       5.035  -0.982   6.154  0.00  0.00    -0.267 OA
ATOM      6  N   UNL     1       3.971  -0.181   4.312  0.00  0.00    -0.298 N 
ATOM      7  O   UNL     1       2.455  -0.607   7.558  0.00  0.00    -0.282 OA
ATOM      8  H   UNL     1       4.695  -0.218   3.667  0.00  0.00    +0.150 HD
ENDROOT
BRANCH   1  11
ATOM      9  C   UNL     1       0.614  -0.775   1.019  0.00  0.00    +0.163 A 
ATOM     10  C   UNL     1       1.209   0.013   1.992  0.00  0.00    +0.055 A 
ATOM     11  C   UNL     1       1.957  -0.574   2.995  0.00  0.00    -0.018 A 
ATOM     12  C   UNL     1       2.114  -1.947   3.031  0.00  0.00    +0.025 A 
ATOM     13  C   UNL     1       1.523  -2.740   2.064  0.00  0.00    +0.063 A 
ATOM     14  C   UNL     1       0.766  -2.157   1.059  0.00  0.00    +0.173 A 
ATOM     15 BR   UNL     1       1.741  -4.617   2.116  0.00  0.00    -0.046 Br
BRANCH   9  17
ATOM     16  C   UNL     1      -0.145   1.230  -0.011  0.00  0.00    +0.277 C 
ATOM     17  O   UNL     1      -0.122  -0.199   0.032  0.00  0.00    -0.491 OA
ENDBRANCH   9  17
BRANCH  14  18
ATOM     18  O   UNL     1       0.179  -2.935   0.110  0.00  0.00    -0.503 OA
ATOM     19  H   UNL     1       0.733  -3.095  -0.666  0.00  0.00    +0.292 HD
ENDBRANCH  14  18
ENDBRANCH   1  11
BRANCH   2  20
ATOM     20  C   UNL     1       0.451   0.497   5.599  0.00  0.00    +0.195 C 
ATOM     21  O   UNL     1      -0.354  -0.378   5.856  0.00  0.00    -0.287 OA
BRANCH  20  22
ATOM     22  C   UNL     1       0.014   1.905   5.529  0.00  0.00    +0.026 A 
ATOM     23  C   UNL     1       0.916   2.902   5.146  0.00  0.00    +0.015 A 
ATOM     24  C   UNL     1       0.505   4.215   5.084  0.00  0.00    +0.050 A 
ATOM     25  C   UNL     1      -0.805   4.554   5.400  0.00  0.00    +0.162 A 
ATOM     26  C   UNL     1      -1.710   3.566   5.780  0.00  0.00    +0.163 A 
ATOM     27  C   UNL     1      -1.305   2.245   5.841  0.00  0.00    +0.061 A 
ATOM     28  O   UNL     1      -2.999   3.882   6.086  0.00  0.00    -0.485 OA
ATOM     29  C   UNL     1      -3.274   5.258   6.368  0.00  0.00    +0.270 C 
ATOM     30  C   UNL     1      -2.595   6.115   5.291  0.00  0.00    +0.270 C 
ATOM     31  O   UNL     1      -1.188   5.858   5.335  0.00  0.00    -0.485 OA
ENDBRANCH  20  22
ENDBRANCH   2  20
TORSDOF 5
