REMARK  Name = ZINC50291351
REMARK  3 active torsions:
REMARK  status: ('A' for Active; 'I' for Inactive)
REMARK    1  A    between atoms: N_4  and  C_7
REMARK    2  A    between atoms: C_13  and  C_15
REMARK    3  A    between atoms: C_15  and  C_19
REMARK                            x       y       z     vdW  Elec       q    Type
REMARK                         _______ _______ _______ _____ _____    ______ ____
ROOT
ATOM      1  C   UNL     1       2.931  -0.534  -2.255  0.00  0.00    -0.066 C 
ATOM      2  C   UNL     1       4.367  -0.013  -2.177  0.00  0.00    +0.004 C 
ATOM      3  C   UNL     1       5.158  -0.523  -3.385  0.00  0.00    +0.106 C 
ATOM      4  N   UNL     1       5.050  -1.988  -3.437  0.00  0.00    -0.301 N 
ATOM      5  C   UNL     1       3.713  -2.598  -3.425  0.00  0.00    +0.106 C 
ATOM      6  C   UNL     1       2.939  -2.064  -2.216  0.00  0.00    +0.004 C 
ATOM      7  C   UNL     1       6.155  -2.756  -3.496  0.00  0.00    +0.233 C 
ATOM      8  O   UNL     1       6.058  -3.964  -3.436  0.00  0.00    -0.274 OA
ENDROOT
BRANCH   1  12
ATOM      9  C   UNL     1      -0.019   1.472   0.076  0.00  0.00    -0.004 C 
ATOM     10  C   UNL     1       1.422   1.991   0.076  0.00  0.00    -0.019 C 
ATOM     11  C   UNL     1       2.154   1.448  -1.153  0.00  0.00    -0.078 C 
ATOM     12  N   UNL     1       2.161  -0.019  -1.115  0.00  0.00    +0.382 N 
ATOM     13  C   UNL     1       0.785  -0.526  -1.187  0.00  0.00    -0.078 C 
ATOM     14  C   UNL     1       0.000  -0.059   0.041  0.00  0.00    -0.019 C 
ATOM     15  H   UNL     1       2.588  -0.330  -0.255  0.00  0.00    -0.081 HD
ENDBRANCH   1  12
BRANCH   7  16
ATOM     16  C   UNL     1       7.512  -2.116  -3.635  0.00  0.00    +0.148 C 
ATOM     17  C   UNL     1       8.551  -3.017  -4.323  0.00  0.00    +0.028 C 
ATOM     18  C   UNL     1       8.072  -2.417  -5.656  0.00  0.00    +0.003 C 
ATOM     19  C   UNL     1       7.631  -1.183  -4.852  0.00  0.00    +0.028 C 
BRANCH  16  20
ATOM     20  C   UNL     1       8.002  -1.498  -2.351  0.00  0.00    +0.371 C 
ATOM     21  O   UNL     1       8.072  -2.173  -1.338  0.00  0.00    -0.245 OA
ATOM     22  O   UNL     1       8.328  -0.324  -2.325  0.00  0.00    -0.245 OA
ENDBRANCH  16  20
ENDBRANCH   7  16
TORSDOF 3
