REMARK  Name = ZINC35743888
REMARK  5 active torsions:
REMARK  status: ('A' for Active; 'I' for Inactive)
REMARK    1  A    between atoms: C_1  and  C_2
REMARK    2  A    between atoms: C_7  and  C_8
REMARK    3  A    between atoms: C_17  and  C_19
REMARK    4  A    between atoms: C_19  and  N_20
REMARK    5  A    between atoms: N_20  and  C_21
REMARK                            x       y       z     vdW  Elec       q    Type
REMARK                         _______ _______ _______ _____ _____    ______ ____
ROOT
ATOM      1  C   UNL     1       0.025   0.021   2.495  0.00  0.00    +0.004 A 
ATOM      2  C   UNL     1       1.093  -0.049   3.326  0.00  0.00    +0.056 A 
ATOM      3  S   UNL     1       0.613   0.975   4.703  0.00  0.00    -0.076 S 
ATOM      4  C   UNL     1      -0.995   1.469   4.137  0.00  0.00    +0.116 A 
ATOM      5  C   UNL     1      -1.119   0.833   2.891  0.00  0.00    +0.080 A 
ATOM      6  C   UNL     1      -2.348   1.067   2.195  0.00  0.00    +0.260 A 
ATOM      7  O   UNL     1      -2.551   0.554   1.108  0.00  0.00    -0.267 OA
ATOM      8  N   UNL     1      -3.275   1.863   2.759  0.00  0.00    -0.312 N 
ATOM      9  H   UNL     1      -4.110   2.025   2.292  0.00  0.00    +0.170 HD
ATOM     10  C   UNL     1      -3.067   2.441   3.969  0.00  0.00    +0.094 A 
ATOM     11  N   UNL     1      -1.960   2.239   4.633  0.00  0.00    -0.229 NA
ENDROOT
BRANCH   1  18
ATOM     12  C   UNL     1      -0.018   1.503   0.010  0.00  0.00    +0.044 C 
ATOM     13  C   UNL     1       0.002  -0.004   0.002  0.00  0.00    -0.043 A 
ATOM     14  C   UNL     1       0.006  -0.689  -1.196  0.00  0.00    +0.004 A 
ATOM     15  C   UNL     1       0.025  -2.072  -1.205  0.00  0.00    +0.000 A 
ATOM     16  C   UNL     1       0.040  -2.777  -0.015  0.00  0.00    +0.001 A 
ATOM     17  C   UNL     1       0.036  -2.103   1.189  0.00  0.00    +0.009 A 
ATOM     18  C   UNL     1       0.023  -0.709   1.205  0.00  0.00    -0.014 A 
ENDBRANCH   1  18
BRANCH  10  19
ATOM     19  C   UNL     1      -4.134   3.325   4.562  0.00  0.00    -0.007 C 
BRANCH  19  20
ATOM     20  N   UNL     1      -3.683   3.831   5.865  0.00  0.00    +0.382 N 
ATOM     21  C   UNL     1      -4.723   4.692   6.443  0.00  0.00    -0.100 C 
ATOM     22  H   UNL     1      -3.506   3.055   6.485  0.00  0.00    -0.086 HD
ATOM     23  H   UNL     1      -2.835   4.364   5.743  0.00  0.00    -0.086 HD
ENDBRANCH  19  20
ENDBRANCH  10  19
TORSDOF 3
