REMARK  Name = ZINC49234423
REMARK  4 active torsions:
REMARK  status: ('A' for Active; 'I' for Inactive)
REMARK    1  A    between atoms: C_3  and  S_9
REMARK    2  A    between atoms: C_6  and  N_7
REMARK    3  A    between atoms: S_9  and  N_12
REMARK    4  A    between atoms: C_15  and  C_18
REMARK                            x       y       z     vdW  Elec       q    Type
REMARK                         _______ _______ _______ _____ _____    ______ ____
ROOT
ATOM      1  S   UNL     1       3.890   2.321  -0.023  0.00  0.00    +0.102 S 
ATOM      2  O   UNL     1       4.688   1.766  -1.059  0.00  0.00    -0.146 OA
ATOM      3  O   UNL     1       3.539   3.698   0.014  0.00  0.00    -0.146 OA
ENDROOT
BRANCH   1   6
ATOM      4  C   UNL     1      -0.017   1.385   0.010  0.00  0.00    +0.025 A 
ATOM      5  C   UNL     1       1.171   2.091   0.002  0.00  0.00    +0.032 A 
ATOM      6  C   UNL     1       2.377   1.417  -0.013  0.00  0.00    +0.131 A 
ATOM      7  C   UNL     1       2.400   0.033  -0.021  0.00  0.00    +0.070 A 
ATOM      8  C   UNL     1       1.216  -0.679  -0.014  0.00  0.00    +0.044 A 
ATOM      9  C   UNL     1       0.002  -0.004   0.002  0.00  0.00    +0.026 A 
ATOM     10 CL   UNL     1       3.918  -0.810  -0.040  0.00  0.00    -0.081 Cl
BRANCH   9  11
ATOM     11  N   UNL     1      -1.197  -0.720   0.010  0.00  0.00    -0.358 N 
ATOM     12  H   UNL     1      -2.044  -0.248   0.021  0.00  0.00    +0.142 HD
ATOM     13  H   UNL     1      -1.183  -1.690   0.005  0.00  0.00    +0.142 HD
ENDBRANCH   9  11
ENDBRANCH   1   6
BRANCH   1  14
ATOM     14  N   UNL     1       4.667   1.992   1.401  0.00  0.00    -0.103 NA
ATOM     15  C   UNL     1       5.829   2.541   1.656  0.00  0.00    +0.192 A 
ATOM     16  N   UNL     1       6.638   2.400   2.763  0.00  0.00    -0.336 N 
ATOM     17  C   UNL     1       7.818   3.084   2.797  0.00  0.00    +0.028 A 
ATOM     18  C   UNL     1       8.169   3.868   1.778  0.00  0.00    +0.070 A 
ATOM     19  S   UNL     1       6.792   3.667   0.658  0.00  0.00    -0.057 S 
ATOM     20  H   UNL     1       6.375   1.827   3.500  0.00  0.00    +0.168 HD
BRANCH  17  21
ATOM     21  C   UNL     1       8.727   2.953   3.992  0.00  0.00    +0.036 C 
ATOM     22  C   UNL     1       8.187   2.205   5.213  0.00  0.00    +0.010 C 
ATOM     23  C   UNL     1       9.254   1.556   4.329  0.00  0.00    +0.010 C 
ENDBRANCH  17  21
ENDBRANCH   1  14
TORSDOF 4
