REMARK  Name = ZINC59016146
REMARK  12 active torsions:
REMARK  status: ('A' for Active; 'I' for Inactive)
REMARK    1  A    between atoms: C_1  and  C_2
REMARK    2  A    between atoms: C_2  and  C_26
REMARK    3  A    between atoms: N_3  and  N_4
REMARK    4  A    between atoms: C_7  and  S_10
REMARK    5  A    between atoms: S_10  and  C_11
REMARK    6  A    between atoms: C_11  and  C_12
REMARK    7  A    between atoms: N_14  and  C_15
REMARK    8  A    between atoms: C_16  and  C_24
REMARK    9  A    between atoms: C_29  and  O_34
REMARK   10  A    between atoms: C_30  and  O_32
REMARK   11  A    between atoms: O_32  and  C_33
REMARK   12  A    between atoms: O_34  and  C_35
REMARK                            x       y       z     vdW  Elec       q    Type
REMARK                         _______ _______ _______ _____ _____    ______ ____
ROOT
ATOM      1  N   UNL     1      -1.026  -1.642   1.344  0.00  0.00    -0.205 N 
ATOM      2  C   UNL     1      -1.531  -2.009   2.579  0.00  0.00    +0.232 A 
ATOM      3  N   UNL     1      -1.481  -1.289   3.680  0.00  0.00    -0.186 NA
ATOM      4  C   UNL     1      -2.066  -1.956   4.680  0.00  0.00    +0.211 A 
ATOM      5  N   UNL     1      -2.496  -3.110   4.229  0.00  0.00    -0.144 NA
ATOM      6  N   UNL     1      -2.165  -3.166   2.865  0.00  0.00    -0.245 N 
ATOM      7  H   UNL     1      -1.115  -2.242   0.587  0.00  0.00    +0.177 HD
ATOM      8  H   UNL     1      -2.354  -3.892   2.251  0.00  0.00    +0.192 HD
ENDROOT
BRANCH   1  11
ATOM      9  C   UNL     1       0.814   1.238  -0.141  0.00  0.00    +0.068 C 
ATOM     10  C   UNL     1      -0.009  -0.015   0.009  0.00  0.00    +0.063 C 
ATOM     11  N   UNL     1      -0.387  -0.406   1.188  0.00  0.00    -0.184 NA
BRANCH  10  12
ATOM     12  C   UNL     1      -0.386  -0.796  -1.183  0.00  0.00    +0.001 A 
ATOM     13  C   UNL     1      -1.655  -1.376  -1.268  0.00  0.00    +0.013 A 
ATOM     14  C   UNL     1      -2.005  -2.107  -2.384  0.00  0.00    +0.050 A 
ATOM     15  C   UNL     1      -1.101  -2.269  -3.423  0.00  0.00    +0.162 A 
ATOM     16  C   UNL     1       0.166  -1.695  -3.345  0.00  0.00    +0.162 A 
ATOM     17  C   UNL     1       0.522  -0.955  -2.232  0.00  0.00    +0.059 A 
BRANCH  16  18
ATOM     18  O   UNL     1       1.050  -1.857  -4.365  0.00  0.00    -0.491 OA
ATOM     19  C   UNL     1       2.331  -1.240  -4.218  0.00  0.00    +0.277 C 
ENDBRANCH  16  18
BRANCH  15  20
ATOM     20  O   UNL     1      -1.451  -2.991  -4.520  0.00  0.00    -0.491 OA
ATOM     21  C   UNL     1      -2.765  -3.553  -4.535  0.00  0.00    +0.277 C 
ENDBRANCH  15  20
ENDBRANCH  10  12
ENDBRANCH   1  11
BRANCH   4  22
ATOM     22  S   UNL     1      -2.233  -1.378   6.336  0.00  0.00    -0.075 S 
BRANCH  22  23
ATOM     23  C   UNL     1      -3.102  -2.725   7.185  0.00  0.00    +0.173 C 
BRANCH  23  24
ATOM     24  C   UNL     1      -3.312  -2.355   8.631  0.00  0.00    +0.228 C 
ATOM     25  O   UNL     1      -2.914  -1.288   9.048  0.00  0.00    -0.275 OA
ATOM     26  N   UNL     1      -3.941  -3.210   9.461  0.00  0.00    -0.278 N 
ATOM     27  H   UNL     1      -4.259  -4.064   9.128  0.00  0.00    +0.155 HD
BRANCH  26  28
ATOM     28  C   UNL     1      -4.134  -2.869  10.793  0.00  0.00    +0.090 A 
ATOM     29  C   UNL     1      -4.749  -3.618  11.783  0.00  0.00    +0.084 A 
ATOM     30  C   UNL     1      -4.824  -3.032  13.109  0.00  0.00    -0.018 A 
ATOM     31  C   UNL     1      -4.271  -1.802  13.202  0.00  0.00    -0.004 A 
ATOM     32  S   UNL     1      -3.669  -1.458  11.575  0.00  0.00    -0.077 S 
ATOM     33  C   UNL     1      -4.192  -0.942  14.425  0.00  0.00    +0.043 C 
ATOM     34  C   UNL     1      -5.166  -1.501  15.472  0.00  0.00    +0.005 C 
ATOM     35  C   UNL     1      -4.958  -3.014  15.585  0.00  0.00    +0.005 C 
ATOM     36  C   UNL     1      -5.460  -3.706  14.316  0.00  0.00    +0.037 C 
BRANCH  29  37
ATOM     37  C   UNL     1      -5.288  -4.916  11.510  0.00  0.00    +0.102 C 
ATOM     38  N   UNL     1      -5.716  -5.946  11.293  0.00  0.00    -0.191 NA
ENDBRANCH  29  37
ENDBRANCH  26  28
ENDBRANCH  23  24
ENDBRANCH  22  23
ENDBRANCH   4  22
TORSDOF 9
