REMARK  Name = ZINC04730191
REMARK  5 active torsions:
REMARK  status: ('A' for Active; 'I' for Inactive)
REMARK    1  A    between atoms: C_1  and  N_2
REMARK    2  A    between atoms: N_9  and  C_14
REMARK    3  A    between atoms: N_12  and  C_13
REMARK    4  A    between atoms: C_14  and  C_15
REMARK    5  A    between atoms: N_16  and  N_17
REMARK                            x       y       z     vdW  Elec       q    Type
REMARK                         _______ _______ _______ _____ _____    ______ ____
ROOT
ATOM      1  C   UNL     1      -3.957  -2.209  -3.438  0.00  0.00    +0.150 C 
ATOM      2  N   UNL     1      -3.065  -1.149  -3.915  0.00  0.00    -0.328 N 
ATOM      3  C   UNL     1      -3.141  -0.511  -5.099  0.00  0.00    +0.202 A 
ATOM      4  N   UNL     1      -2.181   0.374  -5.186  0.00  0.00    -0.218 NA
ATOM      5  C   UNL     1      -1.444   0.352  -4.072  0.00  0.00    +0.168 A 
ATOM      6  C   UNL     1      -1.988  -0.616  -3.237  0.00  0.00    +0.151 A 
ATOM      7  C   UNL     1      -1.392  -0.853  -1.980  0.00  0.00    +0.283 A 
ATOM      8  O   UNL     1      -1.848  -1.700  -1.232  0.00  0.00    -0.265 OA
ATOM      9  N   UNL     1      -0.315  -0.128  -1.613  0.00  0.00    -0.254 N 
ATOM     10  C   UNL     1       0.201   0.806  -2.431  0.00  0.00    +0.334 A 
ATOM     11  O   UNL     1       1.175   1.437  -2.069  0.00  0.00    -0.246 OA
ATOM     12  N   UNL     1      -0.334   1.060  -3.640  0.00  0.00    -0.280 N 
ATOM     13  C   UNL     1       0.259   2.087  -4.501  0.00  0.00    +0.155 C 
ENDROOT
BRANCH   9  14
ATOM     14  C   UNL     1       0.305  -0.366  -0.307  0.00  0.00    +0.179 C 
BRANCH  14  15
ATOM     15  C   UNL     1      -0.332   0.532   0.722  0.00  0.00    +0.127 C 
ATOM     16  N   UNL     1      -0.840   0.028   1.784  0.00  0.00    -0.182 NA
BRANCH  16  17
ATOM     17  N   UNL     1      -1.433   0.863   2.741  0.00  0.00    -0.249 N 
ATOM     18  C   UNL     1      -1.979   0.321   3.882  0.00  0.00    +0.187 C 
ATOM     19  N   UNL     1      -2.561   1.140   4.822  0.00  0.00    -0.370 N 
ATOM     20  H   UNL     1      -1.458   1.822   2.599  0.00  0.00    +0.192 HD
ATOM     21  H   UNL     1      -2.304  -1.444   4.845  0.00  0.00    +0.159 HD
ATOM     22  H   UNL     1      -2.586   2.099   4.680  0.00  0.00    +0.159 HD
ATOM     23  H   UNL     1      -2.946   0.758   5.626  0.00  0.00    +0.159 HD
ATOM     24  N   UNL     1      -1.913  -0.996   4.016  0.00  0.00    -0.370 N 
ATOM     25  H   UNL     1      -1.468  -1.564   3.286  0.00  0.00    +0.159 HD
ENDBRANCH  16  17
ENDBRANCH  14  15
ENDBRANCH   9  14
TORSDOF 3
