REMARK  Name = ZINC07674874
REMARK  5 active torsions:
REMARK  status: ('A' for Active; 'I' for Inactive)
REMARK    1  A    between atoms: C_1  and  O_2
REMARK    2  A    between atoms: O_2  and  C_3
REMARK    3  A    between atoms: C_8  and  C_9
REMARK    4  A    between atoms: N_10  and  N_11
REMARK    5  A    between atoms: C_13  and  C_17
REMARK                            x       y       z     vdW  Elec       q    Type
REMARK                         _______ _______ _______ _____ _____    ______ ____
ROOT
ATOM      1  N   UNL     1       2.318  -2.986  -0.035  0.00  0.00    -0.209 N 
ATOM      2  C   UNL     1       2.409  -4.357  -0.049  0.00  0.00    +0.142 A 
ATOM      3  C   UNL     1       3.730  -4.664  -0.060  0.00  0.00    +0.067 A 
ATOM      4  N   UNL     1       4.430  -3.502  -0.053  0.00  0.00    -0.326 N 
ATOM      5  C   UNL     1       3.591  -2.494  -0.044  0.00  0.00    +0.192 A 
ATOM      6  N   UNL     1       3.939  -1.154  -0.040  0.00  0.00    -0.329 N 
ATOM      7  H   UNL     1       3.248  -0.474  -0.030  0.00  0.00    +0.145 HD
ATOM      8  H   UNL     1       4.874  -0.896  -0.047  0.00  0.00    +0.145 HD
ATOM      9  H   UNL     1       5.397  -3.427  -0.058  0.00  0.00    +0.169 HD
ENDROOT
BRANCH   3  10
ATOM     10  C   UNL     1       4.308  -6.030  -0.077  0.00  0.00    -0.000 A 
ATOM     11  C   UNL     1       3.471  -7.144  -0.088  0.00  0.00    +0.010 A 
ATOM     12  C   UNL     1       4.014  -8.412  -0.104  0.00  0.00    +0.001 A 
ATOM     13  C   UNL     1       5.388  -8.579  -0.108  0.00  0.00    +0.000 A 
ATOM     14  C   UNL     1       6.224  -7.477  -0.097  0.00  0.00    +0.001 A 
ATOM     15  C   UNL     1       5.691  -6.204  -0.087  0.00  0.00    +0.010 A 
ENDBRANCH   3  10
BRANCH   1  17
ATOM     16  C   UNL     1      -0.015  -2.830  -0.013  0.00  0.00    +0.145 C 
ATOM     17  N   UNL     1       1.137  -2.232  -0.020  0.00  0.00    -0.172 NA
BRANCH  16  23
ATOM     18  C   UNL     1      -1.199  -0.637   0.010  0.00  0.00    +0.129 A 
ATOM     19  C   UNL     1      -2.373   0.099   0.019  0.00  0.00    +0.046 A 
ATOM     20  C   UNL     1      -3.595  -0.546   0.027  0.00  0.00    +0.004 A 
ATOM     21  C   UNL     1      -3.657  -1.929   0.026  0.00  0.00    +0.001 A 
ATOM     22  C   UNL     1      -2.499  -2.677   0.017  0.00  0.00    +0.013 A 
ATOM     23  C   UNL     1      -1.257  -2.037   0.003  0.00  0.00    +0.036 A 
BRANCH  18  25
ATOM     24  C   UNL     1      -0.017   1.425   0.010  0.00  0.00    +0.277 C 
ATOM     25  O   UNL     1       0.002  -0.004   0.002  0.00  0.00    -0.494 OA
ENDBRANCH  18  25
ENDBRANCH  16  23
ENDBRANCH   1  17
TORSDOF 4
