REMARK  Name = ZINC39688467
REMARK  8 active torsions:
REMARK  status: ('A' for Active; 'I' for Inactive)
REMARK    1  A    between atoms: C_1  and  C_2
REMARK    2  A    between atoms: C_2  and  C_4
REMARK    3  A    between atoms: C_2  and  N_12
REMARK    4  A    between atoms: C_4  and  C_5
REMARK    5  A    between atoms: C_13  and  C_15
REMARK    6  A    between atoms: C_26  and  C_28
REMARK    7  A    between atoms: C_28  and  C_29
REMARK    8  A    between atoms: C_29  and  C_30
REMARK                            x       y       z     vdW  Elec       q    Type
REMARK                         _______ _______ _______ _____ _____    ______ ____
ROOT
ATOM      1  C   UNL     1       0.712  -1.094  -3.598  0.00  0.00    +0.100 C 
ATOM      2  C   UNL     1       1.732  -0.041  -4.085  0.00  0.00    +0.121 C 
ATOM      3  N   UNL     1       1.653  -0.098  -5.564  0.00  0.00    -0.300 N 
ATOM      4  C   UNL     1       0.209  -0.272  -5.849  0.00  0.00    +0.115 C 
ATOM      5  C   UNL     1      -0.287  -1.243  -4.759  0.00  0.00    -0.004 C 
ATOM      6  C   UNL     1      -1.689  -0.852  -4.303  0.00  0.00    -0.010 C 
ATOM      7  C   UNL     1      -2.674  -1.064  -5.457  0.00  0.00    -0.082 C 
ATOM      8  N   UNL     1      -2.647  -2.471  -5.873  0.00  0.00    +0.379 N 
ATOM      9  C   UNL     1      -1.320  -2.813  -6.397  0.00  0.00    -0.082 C 
ATOM     10  C   UNL     1      -0.278  -2.676  -5.283  0.00  0.00    -0.010 C 
ATOM     11  C   UNL     1       2.666  -0.012  -6.449  0.00  0.00    +0.216 C 
ATOM     12  O   UNL     1       2.439  -0.077  -7.638  0.00  0.00    -0.276 OA
ATOM     13  H   UNL     1      -2.856  -3.059  -5.080  0.00  0.00    -0.086 HD
ATOM     14  H   UNL     1      -3.340  -2.621  -6.591  0.00  0.00    -0.086 HD
ENDROOT
BRANCH   1  16
ATOM     15  N   UNL     1      -0.406  -1.492  -1.428  0.00  0.00    -0.312 N 
ATOM     16  C   UNL     1       0.006  -0.608  -2.358  0.00  0.00    +0.218 C 
ATOM     17  O   UNL     1      -0.190   0.578  -2.198  0.00  0.00    -0.275 OA
ATOM     18  H   UNL     1      -0.249  -2.440  -1.556  0.00  0.00    +0.149 HD
BRANCH  15  20
ATOM     19  C   UNL     1      -0.056  -0.618   0.829  0.00  0.00    +0.028 C 
ATOM     20  C   UNL     1      -1.092  -1.019  -0.223  0.00  0.00    +0.074 C 
BRANCH  20  21
ATOM     21  C   UNL     1      -1.976  -2.138   0.333  0.00  0.00    +0.057 C 
BRANCH  21  22
ATOM     22  C   UNL     1      -3.072  -2.448  -0.654  0.00  0.00    -0.045 A 
ATOM     23  C   UNL     1      -4.276  -1.771  -0.585  0.00  0.00    +0.006 A 
ATOM     24  C   UNL     1      -5.281  -2.054  -1.490  0.00  0.00    +0.038 A 
ATOM     25  C   UNL     1      -5.084  -3.018  -2.464  0.00  0.00    +0.123 A 
ATOM     26  C   UNL     1      -3.878  -3.695  -2.532  0.00  0.00    +0.038 A 
ATOM     27  C   UNL     1      -2.872  -3.406  -1.630  0.00  0.00    +0.006 A 
ATOM     28  F   UNL     1      -6.066  -3.296  -3.349  0.00  0.00    -0.205 F 
ENDBRANCH  21  22
ENDBRANCH  20  21
ENDBRANCH  15  20
ENDBRANCH   1  16
BRANCH  11  29
ATOM     29  C   UNL     1       4.080   0.164  -5.960  0.00  0.00    +0.096 C 
BRANCH  29  30
ATOM     30  C   UNL     1       5.029   0.233  -7.159  0.00  0.00    +0.013 C 
BRANCH  30  31
ATOM     31  C   UNL     1       6.465   0.412  -6.663  0.00  0.00    -0.011 C 
ATOM     32  C   UNL     1       6.632   1.803  -6.018  0.00  0.00    +0.003 C 
ATOM     33  C   UNL     1       8.057   2.246  -6.433  0.00  0.00    +0.000 C 
ATOM     34  C   UNL     1       8.170   1.717  -7.884  0.00  0.00    +0.000 C 
ATOM     35  C   UNL     1       7.443   0.357  -7.849  0.00  0.00    +0.003 C 
ENDBRANCH  30  31
ENDBRANCH  29  30
ENDBRANCH  11  29
TORSDOF 7
