REMARK  Name = ZINC13462095
REMARK  6 active torsions:
REMARK  status: ('A' for Active; 'I' for Inactive)
REMARK    1  A    between atoms: C_1  and  O_2
REMARK    2  A    between atoms: O_2  and  C_3
REMARK    3  A    between atoms: C_8  and  N_9
REMARK    4  A    between atoms: C_10  and  C_21
REMARK    5  A    between atoms: C_24  and  C_26
REMARK    6  A    between atoms: C_29  and  C_32
REMARK                            x       y       z     vdW  Elec       q    Type
REMARK                         _______ _______ _______ _____ _____    ______ ____
ROOT
ATOM      1  N   UNL     1      -1.219   2.809   0.970  0.00  0.00    -0.238 N 
ATOM      2  C   UNL     1      -1.284   1.696   0.017  0.00  0.00    +0.234 C 
ATOM      3  N   UNL     1      -0.011   0.966   0.007  0.00  0.00    -0.319 N 
ATOM      4  C   UNL     1       1.176   1.690  -0.000  0.00  0.00    +0.041 A 
ATOM      5  C   UNL     1       2.330   1.192  -0.582  0.00  0.00    +0.024 A 
ATOM      6  C   UNL     1       3.488   1.945  -0.555  0.00  0.00    +0.002 A 
ATOM      7  C   UNL     1       3.505   3.192   0.049  0.00  0.00    +0.001 A 
ATOM      8  C   UNL     1       2.363   3.704   0.629  0.00  0.00    +0.015 A 
ATOM      9  C   UNL     1       1.186   2.959   0.605  0.00  0.00    +0.058 A 
ATOM     10  C   UNL     1      -0.065   3.472   1.189  0.00  0.00    +0.255 C 
ATOM     11  O   UNL     1      -0.058   4.485   1.862  0.00  0.00    -0.270 OA
ATOM     12  H   UNL     1       0.002  -0.004   0.002  0.00  0.00    +0.148 HD
ENDROOT
BRANCH   1  18
ATOM     13  C   UNL     1      -2.680   2.612   2.889  0.00  0.00    +0.141 A 
ATOM     14  C   UNL     1      -3.822   3.001   3.571  0.00  0.00    +0.047 A 
ATOM     15  C   UNL     1      -4.662   3.955   3.026  0.00  0.00    +0.004 A 
ATOM     16  C   UNL     1      -4.362   4.529   1.804  0.00  0.00    +0.002 A 
ATOM     17  C   UNL     1      -3.222   4.151   1.121  0.00  0.00    +0.027 A 
ATOM     18  C   UNL     1      -2.375   3.194   1.661  0.00  0.00    +0.080 A 
BRANCH  13  20
ATOM     19  C   UNL     1      -2.234   1.117   4.683  0.00  0.00    +0.277 C 
ATOM     20  O   UNL     1      -1.857   1.669   3.421  0.00  0.00    -0.493 OA
ENDBRANCH  13  20
ENDBRANCH   1  18
BRANCH   2  21
ATOM     21  C   UNL     1      -1.563   2.230  -1.364  0.00  0.00    +0.144 A 
ATOM     22  C   UNL     1      -1.165   1.664  -2.521  0.00  0.00    +0.049 A 
ATOM     23  C   UNL     1      -1.635   2.483  -3.565  0.00  0.00    +0.050 A 
ATOM     24  C   UNL     1      -2.303   3.516  -2.982  0.00  0.00    +0.135 A 
ATOM     25  O   UNL     1      -2.256   3.345  -1.646  0.00  0.00    -0.456 OA
BRANCH  24  26
ATOM     26  C   UNL     1      -2.969   4.627  -3.689  0.00  0.00    +0.017 A 
ATOM     27  C   UNL     1      -2.942   4.681  -5.086  0.00  0.00    +0.012 A 
ATOM     28  C   UNL     1      -3.562   5.707  -5.742  0.00  0.00    +0.016 A 
ATOM     29  C   UNL     1      -4.216   6.707  -5.015  0.00  0.00    +0.063 A 
ATOM     30  C   UNL     1      -4.238   6.655  -3.617  0.00  0.00    +0.016 A 
ATOM     31  C   UNL     1      -3.622   5.627  -2.962  0.00  0.00    +0.012 A 
BRANCH  29  32
ATOM     32  C   UNL     1      -4.881   7.816  -5.722  0.00  0.00    +0.387 C 
ATOM     33  O   UNL     1      -5.450   8.685  -5.091  0.00  0.00    -0.241 OA
ATOM     34  O   UNL     1      -4.860   7.867  -7.068  0.00  0.00    -0.241 OA
ENDBRANCH  29  32
ENDBRANCH  24  26
ENDBRANCH   2  21
TORSDOF 5
