REMARK  Name = ZINC58344813
REMARK  8 active torsions:
REMARK  status: ('A' for Active; 'I' for Inactive)
REMARK    1  A    between atoms: C_1  and  C_2
REMARK    2  A    between atoms: C_5  and  O_23
REMARK    3  A    between atoms: C_6  and  C_8
REMARK    4  A    between atoms: C_8  and  C_10
REMARK    5  A    between atoms: C_8  and  N_11
REMARK    6  A    between atoms: N_11  and  C_12
REMARK    7  A    between atoms: C_12  and  C_13
REMARK    8  A    between atoms: O_23  and  C_24
REMARK                            x       y       z     vdW  Elec       q    Type
REMARK                         _______ _______ _______ _____ _____    ______ ____
ROOT
ATOM      1  N   UNL     1      -0.539  -2.010   3.551  0.00  0.00    +0.384 N 
ATOM      2  H   UNL     1       0.042  -1.200   3.707  0.00  0.00    -0.085 HD
ATOM      3  H   UNL     1      -1.461  -1.714   3.270  0.00  0.00    -0.085 HD
ENDROOT
BRANCH   1   4
ATOM      4  C   UNL     1       0.052  -2.841   2.493  0.00  0.00    -0.040 C 
ATOM      5  C   UNL     1       1.496  -3.187   2.864  0.00  0.00    -0.009 C 
BRANCH   4  11
ATOM      6  C   UNL     1      -0.018   1.503   0.010  0.00  0.00    +0.044 C 
ATOM      7  C   UNL     1       0.002  -0.004   0.002  0.00  0.00    -0.050 A 
ATOM      8  C   UNL     1       0.006  -0.688  -1.200  0.00  0.00    +0.007 A 
ATOM      9  C   UNL     1       0.024  -2.069  -1.210  0.00  0.00    +0.046 A 
ATOM     10  C   UNL     1       0.039  -2.770  -0.013  0.00  0.00    +0.122 A 
ATOM     11  C   UNL     1       0.036  -2.082   1.191  0.00  0.00    -0.020 A 
ATOM     12  C   UNL     1       0.023  -0.701   1.196  0.00  0.00    +0.009 A 
BRANCH  10  13
ATOM     13  O   UNL     1       0.057  -4.129  -0.021  0.00  0.00    -0.495 OA
ATOM     14  C   UNL     1       0.058  -4.771  -1.298  0.00  0.00    +0.277 C 
ENDBRANCH  10  13
ENDBRANCH   4  11
ENDBRANCH   1   4
BRANCH   1  15
ATOM     15  C   UNL     1      -0.633  -2.792   4.792  0.00  0.00    -0.075 C 
BRANCH  15  16
ATOM     16  C   UNL     1      -1.248  -1.927   5.894  0.00  0.00    +0.010 C 
ATOM     17  C   UNL     1      -2.693  -1.577   5.519  0.00  0.00    +0.106 C 
ATOM     18  N   UNL     1      -3.245  -0.687   6.559  0.00  0.00    -0.329 N 
ATOM     19  C   UNL     1      -2.959  -1.035   7.881  0.00  0.00    +0.117 A 
ATOM     20  C   UNL     1      -3.495  -0.567   9.029  0.00  0.00    +0.064 A 
ATOM     21  C   UNL     1      -2.873  -1.236  10.092  0.00  0.00    +0.136 A 
ATOM     22  N   UNL     1      -1.995  -2.074   9.595  0.00  0.00    -0.178 NA
ATOM     23  N   UNL     1      -2.026  -1.968   8.206  0.00  0.00    -0.251 N 
ATOM     24  C   UNL     1      -1.227  -2.699   7.218  0.00  0.00    +0.148 C 
ATOM     25  H   UNL     1      -3.774   0.095   6.338  0.00  0.00    +0.147 HD
ENDBRANCH  15  16
ENDBRANCH   1  15
TORSDOF 5
