REMARK  Name = ZINC39656204
REMARK  8 active torsions:
REMARK  status: ('A' for Active; 'I' for Inactive)
REMARK    1  A    between atoms: C_1  and  C_2
REMARK    2  A    between atoms: C_8  and  C_11
REMARK    3  A    between atoms: C_11  and  C_12
REMARK    4  A    between atoms: C_12  and  N_13
REMARK    5  A    between atoms: C_14  and  C_16
REMARK    6  A    between atoms: C_27  and  C_29
REMARK    7  A    between atoms: C_30  and  C_36
REMARK    8  A    between atoms: C_33  and  C_35
REMARK                            x       y       z     vdW  Elec       q    Type
REMARK                         _______ _______ _______ _____ _____    ______ ____
ROOT
ATOM      1  C   UNL     1       4.191  -0.431  -7.299  0.00  0.00    +0.100 C 
ATOM      2  C   UNL     1       5.271   0.146  -6.356  0.00  0.00    +0.121 C 
ATOM      3  N   UNL     1       5.936  -1.045  -5.776  0.00  0.00    -0.296 N 
ATOM      4  C   UNL     1       6.027  -2.002  -6.904  0.00  0.00    +0.115 C 
ATOM      5  C   UNL     1       4.693  -1.840  -7.660  0.00  0.00    -0.004 C 
ATOM      6  C   UNL     1       4.921  -1.951  -9.164  0.00  0.00    -0.010 C 
ATOM      7  C   UNL     1       5.363  -3.376  -9.505  0.00  0.00    -0.082 C 
ATOM      8  N   UNL     1       4.331  -4.327  -9.075  0.00  0.00    +0.379 N 
ATOM      9  C   UNL     1       4.184  -4.280  -7.615  0.00  0.00    -0.082 C 
ATOM     10  C   UNL     1       3.692  -2.893  -7.194  0.00  0.00    -0.010 C 
ATOM     11  C   UNL     1       6.362  -1.218  -4.509  0.00  0.00    +0.247 C 
ATOM     12  O   UNL     1       6.976  -2.225  -4.205  0.00  0.00    -0.270 OA
ATOM     13  H   UNL     1       3.452  -4.086  -9.508  0.00  0.00    -0.086 HD
ATOM     14  H   UNL     1       4.597  -5.259  -9.355  0.00  0.00    -0.086 HD
ENDROOT
BRANCH  11  15
ATOM     15  C   UNL     1       6.097  -0.229  -3.533  0.00  0.00    +0.066 C 
ATOM     16  C   UNL     1       6.771   0.923  -3.358  0.00  0.00    +0.046 C 
ATOM     17  N   UNL     1       6.249   1.641  -2.327  0.00  0.00    -0.269 N 
ATOM     18  O   UNL     1       5.154   0.954  -1.752  0.00  0.00    -0.266 OA
ATOM     19  C   UNL     1       4.999  -0.265  -2.494  0.00  0.00    +0.182 C 
ATOM     20  C   UNL     1       5.179  -1.472  -1.571  0.00  0.00    +0.046 C 
ATOM     21  C   UNL     1       7.948   1.360  -4.192  0.00  0.00    +0.066 C 
ATOM     22  H   UNL     1       6.582   2.502  -2.028  0.00  0.00    +0.194 HD
ENDBRANCH  11  15
BRANCH   1  24
ATOM     23  N   UNL     1       1.718  -0.428  -7.293  0.00  0.00    -0.315 N 
ATOM     24  C   UNL     1       2.864  -0.513  -6.590  0.00  0.00    +0.218 C 
ATOM     25  O   UNL     1       2.828  -0.655  -5.386  0.00  0.00    -0.275 OA
ATOM     26  H   UNL     1       1.746  -0.315  -8.256  0.00  0.00    +0.149 HD
BRANCH  23  27
ATOM     27  C   UNL     1       0.427  -0.508  -6.604  0.00  0.00    +0.109 C 
BRANCH  27  28
ATOM     28  C   UNL     1      -0.705  -0.386  -7.625  0.00  0.00    +0.056 C 
BRANCH  28  36
ATOM     29  C   UNL     1      -3.100   4.262  -5.285  0.00  0.00    +0.044 C 
ATOM     30  C   UNL     1      -3.383   2.792  -5.455  0.00  0.00    -0.050 A 
ATOM     31  C   UNL     1      -4.550   2.250  -4.934  0.00  0.00    +0.005 A 
ATOM     32  C   UNL     1      -4.828   0.908  -5.078  0.00  0.00    +0.026 A 
ATOM     33  C   UNL     1      -3.931   0.086  -5.752  0.00  0.00    +0.047 A 
ATOM     34  N   UNL     1      -3.919  -1.257  -6.054  0.00  0.00    -0.360 N 
ATOM     35  C   UNL     1      -2.781  -1.569  -6.747  0.00  0.00    +0.087 A 
ATOM     36  C   UNL     1      -2.032  -0.468  -6.915  0.00  0.00    -0.021 A 
ATOM     37  C   UNL     1      -2.749   0.640  -6.278  0.00  0.00    +0.003 A 
ATOM     38  C   UNL     1      -2.491   2.003  -6.125  0.00  0.00    +0.013 A 
ATOM     39  H   UNL     1      -4.614  -1.889  -5.811  0.00  0.00    +0.165 HD
ENDBRANCH  28  36
ENDBRANCH  27  28
ENDBRANCH  23  27
ENDBRANCH   1  24
TORSDOF 5
