REMARK  Name = ZINC62915504
REMARK  3 active torsions:
REMARK  status: ('A' for Active; 'I' for Inactive)
REMARK    1  A    between atoms: C_1  and  C_2
REMARK    2  A    between atoms: C_2  and  C_21
REMARK    3  A    between atoms: C_7  and  C_9
REMARK                            x       y       z     vdW  Elec       q    Type
REMARK                         _______ _______ _______ _____ _____    ______ ____
ROOT
ATOM      1  C   UNL     1      -0.019   1.526   0.010  0.00  0.00    +0.024 C 
ATOM      2  C   UNL     1       0.002  -0.004   0.002  0.00  0.00    +0.086 C 
ATOM      3  C   UNL     1      -1.431  -0.574   0.176  0.00  0.00    +0.038 C 
ATOM      4  C   UNL     1      -1.602  -0.518   1.715  0.00  0.00    +0.109 C 
ATOM      5  N   UNL     1      -0.275  -0.862   2.256  0.00  0.00    -0.302 N 
ATOM      6  C   UNL     1       0.743  -0.547   1.242  0.00  0.00    +0.125 C 
ATOM      7  C   UNL     1      -0.034  -1.379   3.477  0.00  0.00    +0.202 C 
ATOM      8  O   UNL     1       1.104  -1.624   3.818  0.00  0.00    -0.277 OA
ENDROOT
BRANCH   7   9
ATOM      9  C   UNL     1      -1.178  -1.653   4.418  0.00  0.00    +0.017 C 
ATOM     10  C   UNL     1      -2.131  -2.701   3.800  0.00  0.00    -0.005 C 
ATOM     11  C   UNL     1      -2.572  -3.529   5.048  0.00  0.00    -0.026 C 
ATOM     12  C   UNL     1      -3.613  -2.686   5.787  0.00  0.00    +0.002 C 
ATOM     13  C   UNL     1      -3.804  -3.197   7.213  0.00  0.00    +0.000 C 
ATOM     14  C   UNL     1      -2.475  -3.064   7.966  0.00  0.00    -0.002 C 
ATOM     15  C   UNL     1      -1.439  -3.956   7.282  0.00  0.00    -0.015 C 
ATOM     16  C   UNL     1      -1.241  -3.574   5.826  0.00  0.00    -0.068 C 
ATOM     17  N   UNL     1      -0.665  -2.226   5.683  0.00  0.00    +0.389 N 
ATOM     18  H   UNL     1       0.341  -2.286   5.648  0.00  0.00    -0.084 HD
ATOM     19  H   UNL     1      -0.949  -1.649   6.460  0.00  0.00    -0.084 HD
ENDBRANCH   7   9
BRANCH   2  20
ATOM     20  C   UNL     1       0.634  -0.520  -1.265  0.00  0.00    +0.363 C 
ATOM     21  O   UNL     1       1.053   0.264  -2.100  0.00  0.00    -0.246 OA
ATOM     22  O   UNL     1       0.727  -1.721  -1.455  0.00  0.00    -0.246 OA
ENDBRANCH   2  20
TORSDOF 2
