REMARK  Name = ZINC65960610
REMARK  10 active torsions:
REMARK  status: ('A' for Active; 'I' for Inactive)
REMARK    1  A    between atoms: C_1  and  C_2
REMARK    2  A    between atoms: C_4  and  S_23
REMARK    3  A    between atoms: C_6  and  N_9
REMARK    4  A    between atoms: C_7  and  C_8
REMARK    5  A    between atoms: C_10  and  C_12
REMARK    6  A    between atoms: C_12  and  N_13
REMARK    7  A    between atoms: N_13  and  C_14
REMARK    8  A    between atoms: N_13  and  C_17
REMARK    9  A    between atoms: C_14  and  C_15
REMARK   10  A    between atoms: S_23  and  N_26
REMARK                            x       y       z     vdW  Elec       q    Type
REMARK                         _______ _______ _______ _____ _____    ______ ____
ROOT
ATOM      1  N   UNL     1       0.052  -2.741   2.618  0.00  0.00    -0.287 N 
ATOM      2  C   UNL     1      -0.048  -4.082   2.526  0.00  0.00    +0.201 C 
ATOM      3  O   UNL     1      -0.063  -4.615   1.436  0.00  0.00    -0.278 OA
ATOM      4  H   UNL     1       0.140  -2.320   3.488  0.00  0.00    +0.155 HD
ENDROOT
BRANCH   1  10
ATOM      5  C   UNL     1       1.232   1.440   0.315  0.00  0.00    +0.044 C 
ATOM      6  C   UNL     1       0.593   0.075   0.316  0.00  0.00    -0.044 A 
ATOM      7  C   UNL     1      -0.017  -0.403  -0.830  0.00  0.00    +0.032 A 
ATOM      8  C   UNL     1      -0.604  -1.655  -0.833  0.00  0.00    +0.107 A 
ATOM      9  C   UNL     1      -0.582  -2.433   0.308  0.00  0.00    +0.052 A 
ATOM     10  C   UNL     1       0.029  -1.956   1.460  0.00  0.00    +0.038 A 
ATOM     11  C   UNL     1       0.622  -0.700   1.459  0.00  0.00    -0.026 A 
ATOM     12  C   UNL     1       1.292  -0.181   2.705  0.00  0.00    +0.046 C 
BRANCH   8  13
ATOM     13  S   UNL     1      -1.380  -2.259  -2.295  0.00  0.00    +0.056 S 
ATOM     14  O   UNL     1      -2.329  -3.231  -1.879  0.00  0.00    -0.153 OA
ATOM     15  O   UNL     1      -1.742  -1.120  -3.063  0.00  0.00    -0.153 OA
BRANCH  13  16
ATOM     16  N   UNL     1      -0.225  -3.068  -3.164  0.00  0.00    -0.204 NA
ATOM     17  H   UNL     1       0.682  -3.130  -2.825  0.00  0.00    +0.144 HD
ATOM     18  H   UNL     1      -0.456  -3.479  -4.012  0.00  0.00    +0.144 HD
ENDBRANCH  13  16
ENDBRANCH   8  13
ENDBRANCH   1  10
BRANCH   2  19
ATOM     19  C   UNL     1      -0.141  -4.918   3.776  0.00  0.00    +0.021 C 
BRANCH  19  20
ATOM     20  N   UNL     1      -0.087  -6.342   3.417  0.00  0.00    +0.395 N 
ATOM     21  H   UNL     1      -0.128  -6.902   4.255  0.00  0.00    -0.079 HD
BRANCH  20  22
ATOM     22  C   UNL     1      -1.228  -6.672   2.552  0.00  0.00    -0.067 C 
ATOM     23  C   UNL     1      -2.529  -6.259   3.243  0.00  0.00    -0.015 C 
ATOM     24  C   UNL     1      -3.716  -6.604   2.342  0.00  0.00    -0.002 C 
ATOM     25  C   UNL     1      -3.736  -8.110   2.077  0.00  0.00    -0.000 C 
ATOM     26  C   UNL     1      -2.435  -8.523   1.386  0.00  0.00    -0.002 C 
ATOM     27  C   UNL     1      -1.247  -8.179   2.287  0.00  0.00    -0.015 C 
ENDBRANCH  20  22
BRANCH  20  28
ATOM     28  C   UNL     1       1.166  -6.620   2.703  0.00  0.00    +0.013 C 
BRANCH  28  29
ATOM     29  C   UNL     1       2.304  -6.428   3.616  0.00  0.00    -0.124 C 
ATOM     30  C   UNL     1       3.212  -6.274   4.344  0.00  0.00    +0.002 C 
ENDBRANCH  28  29
ENDBRANCH  20  28
ENDBRANCH  19  20
ENDBRANCH   2  19
TORSDOF 8
