REMARK  Name = ZINC63214780
REMARK  5 active torsions:
REMARK  status: ('A' for Active; 'I' for Inactive)
REMARK    1  A    between atoms: C_1  and  S_2
REMARK    2  A    between atoms: S_2  and  C_5
REMARK    3  A    between atoms: C_10  and  N_11
REMARK    4  A    between atoms: N_11  and  C_12
REMARK    5  A    between atoms: C_19  and  N_21
REMARK                            x       y       z     vdW  Elec       q    Type
REMARK                         _______ _______ _______ _____ _____    ______ ____
ROOT
ATOM      1  N   UNL     1      -0.944   0.531  -2.781  0.00  0.00    -0.341 N 
ATOM      2  H   UNL     1      -1.409   0.771  -1.964  0.00  0.00    +0.146 HD
ENDROOT
BRANCH   1   3
ATOM      3  C   UNL     1      -1.531   0.860  -4.082  0.00  0.00    +0.056 C 
ATOM      4  C   UNL     1      -2.281  -0.377  -4.615  0.00  0.00    +0.020 C 
ATOM      5  C   UNL     1      -3.251  -0.034  -5.713  0.00  0.00    +0.002 C 
ATOM      6  C   UNL     1      -4.643   0.185  -5.086  0.00  0.00    +0.000 C 
ATOM      7  C   UNL     1      -4.781   1.505  -4.489  0.00  0.00    -0.002 C 
ATOM      8  C   UNL     1      -3.786   1.734  -3.333  0.00  0.00    -0.014 C 
ATOM      9  C   UNL     1      -2.448   2.087  -3.918  0.00  0.00    -0.055 C 
BRANCH   9  10
ATOM     10  N   UNL     1      -1.788   3.059  -3.037  0.00  0.00    +0.381 N 
ATOM     11  H   UNL     1      -0.910   3.341  -3.446  0.00  0.00    -0.090 HD
ATOM     12  H   UNL     1      -2.381   3.867  -2.923  0.00  0.00    -0.090 HD
ATOM     13  H   UNL     1      -1.619   2.636  -2.136  0.00  0.00    -0.090 HD
ENDBRANCH   9  10
ENDBRANCH   1   3
BRANCH   1  19
ATOM     14  C   UNL     1       0.845  -0.437  -1.483  0.00  0.00    +0.109 A 
ATOM     15  C   UNL     1       2.060  -1.092  -1.423  0.00  0.00    +0.029 A 
ATOM     16  C   UNL     1       2.723  -1.432  -2.588  0.00  0.00    +0.002 A 
ATOM     17  C   UNL     1       2.172  -1.118  -3.817  0.00  0.00    +0.002 A 
ATOM     18  C   UNL     1       0.958  -0.464  -3.885  0.00  0.00    +0.025 A 
ATOM     19  C   UNL     1       0.287  -0.126  -2.716  0.00  0.00    +0.052 A 
BRANCH  14  21
ATOM     20  C   UNL     1      -0.022   1.810   0.012  0.00  0.00    +0.200 C 
ATOM     21  S   UNL     1       0.002  -0.004   0.002  0.00  0.00    -0.004 S 
ATOM     22  O   UNL     1       0.835  -0.488   1.046  0.00  0.00    -0.170 OA
ATOM     23  O   UNL     1      -1.315  -0.510  -0.168  0.00  0.00    -0.170 OA
ENDBRANCH  14  21
ENDBRANCH   1  19
TORSDOF 4
