REMARK  Name = ZINC35382445
REMARK  4 active torsions:
REMARK  status: ('A' for Active; 'I' for Inactive)
REMARK    1  A    between atoms: C_3  and  N_16
REMARK    2  A    between atoms: C_5  and  C_6
REMARK    3  A    between atoms: C_6  and  C_8
REMARK    4  A    between atoms: C_6  and  N_15
REMARK                            x       y       z     vdW  Elec       q    Type
REMARK                         _______ _______ _______ _____ _____    ______ ____
ROOT
ATOM      1  C   UNL     1      -1.208  -0.902   0.009  0.00  0.00    +0.025 C 
ENDROOT
BRANCH   1   2
ATOM      2  C   UNL     1      -1.451  -1.407   1.408  0.00  0.00    -0.028 A 
ATOM      3  C   UNL     1      -0.948  -2.631   1.810  0.00  0.00    +0.031 A 
ATOM      4  C   UNL     1      -1.185  -3.055   3.076  0.00  0.00    +0.080 A 
ATOM      5  S   UNL     1      -2.145  -1.706   3.744  0.00  0.00    -0.065 S 
ATOM      6  C   UNL     1      -2.162  -0.666   2.293  0.00  0.00    +0.081 A 
ATOM      7 CL   UNL     1      -2.898   0.891   2.073  0.00  0.00    -0.076 Cl
ATOM      8 CL   UNL     1      -0.685  -4.528   3.847  0.00  0.00    -0.076 Cl
ENDBRANCH   1   2
BRANCH   1  13
ATOM      9  C   UNL     1      -0.016   1.341   0.009  0.00  0.00    +0.046 A 
ATOM     10  C   UNL     1       1.331   1.769  -0.001  0.00  0.00    +0.075 A 
ATOM     11  C   UNL     1       2.092   0.660  -0.014  0.00  0.00    +0.280 A 
ATOM     12  O   UNL     1       1.282  -0.411  -0.012  0.00  0.00    -0.440 OA
ATOM     13  C   UNL     1       0.002  -0.004   0.002  0.00  0.00    +0.098 A 
BRANCH  11  14
ATOM     14  N   UNL     1       3.572   0.625  -0.029  0.00  0.00    +0.093 N 
ATOM     15  O   UNL     1       4.201   1.658  -0.029  0.00  0.00    -0.123 OA
ATOM     16  O   UNL     1       4.152  -0.435  -0.040  0.00  0.00    -0.123 OA
ENDBRANCH  11  14
ENDBRANCH   1  13
BRANCH   1  17
ATOM     17  N   UNL     1      -0.978  -2.041  -0.890  0.00  0.00    +0.387 N 
ATOM     18  H   UNL     1      -1.788  -2.642  -0.885  0.00  0.00    -0.089 HD
ATOM     19  H   UNL     1      -0.815  -1.703  -1.827  0.00  0.00    -0.089 HD
ATOM     20  H   UNL     1      -0.172  -2.560  -0.575  0.00  0.00    -0.089 HD
ENDBRANCH   1  17
TORSDOF 4
