REMARK  Name = ZINC21517674
REMARK  6 active torsions:
REMARK  status: ('A' for Active; 'I' for Inactive)
REMARK    1  A    between atoms: C_1  and  O_2
REMARK    2  A    between atoms: O_2  and  C_3
REMARK    3  A    between atoms: C_6  and  S_10
REMARK    4  A    between atoms: C_8  and  N_9
REMARK    5  A    between atoms: S_10  and  N_13
REMARK    6  A    between atoms: N_13  and  C_14
REMARK                            x       y       z     vdW  Elec       q    Type
REMARK                         _______ _______ _______ _____ _____    ______ ____
ROOT
ATOM      1  S   UNL     1      -1.460   1.756  -0.130  0.00  0.00    +0.072 S 
ATOM      2  O   UNL     1      -2.474   0.767  -0.016  0.00  0.00    -0.150 OA
ATOM      3  O   UNL     1      -1.393   2.881   0.736  0.00  0.00    -0.150 OA
ENDROOT
BRANCH   1   7
ATOM      4  C   UNL     1      -1.702   3.391  -4.351  0.00  0.00    +0.141 A 
ATOM      5  C   UNL     1      -1.145   4.155  -3.339  0.00  0.00    +0.049 A 
ATOM      6  C   UNL     1      -1.077   3.655  -2.051  0.00  0.00    +0.032 A 
ATOM      7  C   UNL     1      -1.555   2.389  -1.772  0.00  0.00    +0.110 A 
ATOM      8  C   UNL     1      -2.112   1.619  -2.776  0.00  0.00    +0.055 A 
ATOM      9  C   UNL     1      -2.188   2.116  -4.069  0.00  0.00    +0.069 A 
BRANCH   9  10
ATOM     10  N   UNL     1      -2.752   1.339  -5.087  0.00  0.00    -0.355 N 
ATOM     11  H   UNL     1      -3.135   0.333  -4.863  0.00  0.00    +0.142 HD
ATOM     12  H   UNL     1      -2.811   1.735  -6.112  0.00  0.00    +0.142 HD
ENDBRANCH   9  10
BRANCH   4  14
ATOM     13  C   UNL     1      -1.255   5.198  -5.831  0.00  0.00    +0.277 C 
ATOM     14  O   UNL     1      -1.774   3.884  -5.616  0.00  0.00    -0.493 OA
ENDBRANCH   4  14
ENDBRANCH   1   7
BRANCH   1  15
ATOM     15  N   UNL     1      -0.011   0.966   0.007  0.00  0.00    -0.215 N 
ATOM     16  H   UNL     1       0.009  -0.107   0.249  0.00  0.00    +0.174 HD
BRANCH  15  17
ATOM     17  C   UNL     1       1.185   1.662  -0.183  0.00  0.00    +0.068 A 
ATOM     18  C   UNL     1       1.296   2.983   0.232  0.00  0.00    +0.046 A 
ATOM     19  C   UNL     1       2.480   3.669   0.042  0.00  0.00    +0.043 A 
ATOM     20  C   UNL     1       3.556   3.041  -0.561  0.00  0.00    +0.021 A 
ATOM     21  C   UNL     1       3.450   1.726  -0.976  0.00  0.00    +0.023 A 
ATOM     22  C   UNL     1       2.269   1.033  -0.784  0.00  0.00    +0.063 A 
ATOM     23 CL   UNL     1       2.139  -0.620  -1.298  0.00  0.00    -0.082 Cl
ATOM     24 CL   UNL     1       2.619   5.320   0.560  0.00  0.00    -0.083 Cl
ENDBRANCH  15  17
ENDBRANCH   1  15
TORSDOF 5
