REMARK  Name = ZINC04348895
REMARK  6 active torsions:
REMARK  status: ('A' for Active; 'I' for Inactive)
REMARK    1  A    between atoms: C_1  and  C_2
REMARK    2  A    between atoms: C_4  and  O_23
REMARK    3  A    between atoms: C_9  and  C_14
REMARK    4  A    between atoms: C_17  and  O_21
REMARK    5  A    between atoms: C_18  and  O_20
REMARK    6  A    between atoms: O_21  and  C_22
REMARK                            x       y       z     vdW  Elec       q    Type
REMARK                         _______ _______ _______ _____ _____    ______ ____
ROOT
ATOM      1  C   UNL     1       7.607   3.658  -3.275  0.00  0.00    +0.044 C 
ATOM      2  C   UNL     1       6.761   3.933  -2.058  0.00  0.00    -0.044 A 
ATOM      3  C   UNL     1       7.303   4.627  -0.992  0.00  0.00    +0.049 A 
ATOM      4  C   UNL     1       6.534   4.889   0.131  0.00  0.00    +0.131 A 
ATOM      5  C   UNL     1       5.204   4.446   0.174  0.00  0.00    +0.100 A 
ATOM      6  C   UNL     1       4.662   3.735  -0.910  0.00  0.00    +0.136 A 
ATOM      7  C   UNL     1       5.453   3.488  -2.022  0.00  0.00    +0.050 A 
ATOM      8  O   UNL     1       3.383   3.291  -0.878  0.00  0.00    -0.483 OA
ATOM      9  C   UNL     1       2.458   3.932  -0.000  0.00  0.00    +0.211 C 
ATOM     10  C   UNL     1       3.042   3.966   1.420  0.00  0.00    +0.129 C 
ATOM     11  C   UNL     1       4.359   4.718   1.345  0.00  0.00    +0.174 C 
ATOM     12  O   UNL     1       4.696   5.503   2.206  0.00  0.00    -0.292 OA
ENDROOT
BRANCH   9  13
ATOM     13  C   UNL     1       1.160   3.166   0.008  0.00  0.00    -0.003 A 
ATOM     14  C   UNL     1       1.175   1.783   0.000  0.00  0.00    +0.011 A 
ATOM     15  C   UNL     1      -0.013   1.076   0.008  0.00  0.00    +0.050 A 
ATOM     16  C   UNL     1      -1.222   1.752   0.017  0.00  0.00    +0.161 A 
ATOM     17  C   UNL     1      -1.237   3.144   0.030  0.00  0.00    +0.159 A 
ATOM     18  C   UNL     1      -0.043   3.847   0.023  0.00  0.00    +0.056 A 
BRANCH  17  19
ATOM     19  O   UNL     1      -2.421   3.812   0.044  0.00  0.00    -0.503 OA
ATOM     20  H   UNL     1      -2.772   4.010  -0.835  0.00  0.00    +0.292 HD
ENDBRANCH  17  19
BRANCH  16  21
ATOM     21  O   UNL     1      -2.391   1.058   0.019  0.00  0.00    -0.491 OA
ATOM     22  C   UNL     1      -2.299  -0.368   0.011  0.00  0.00    +0.277 C 
ENDBRANCH  16  21
ENDBRANCH   9  13
BRANCH   4  23
ATOM     23  O   UNL     1       7.062   5.567   1.179  0.00  0.00    -0.506 OA
ATOM     24  H   UNL     1       7.481   5.002   1.843  0.00  0.00    +0.292 HD
ENDBRANCH   4  23
TORSDOF 4
