REMARK  Name = ZINC57279118
REMARK  6 active torsions:
REMARK  status: ('A' for Active; 'I' for Inactive)
REMARK    1  A    between atoms: C_1  and  C_2
REMARK    2  A    between atoms: C_11  and  N_12
REMARK    3  A    between atoms: N_12  and  C_13
REMARK    4  A    between atoms: C_16  and  N_19
REMARK    5  A    between atoms: N_19  and  C_20
REMARK    6  A    between atoms: N_19  and  C_21
REMARK                            x       y       z     vdW  Elec       q    Type
REMARK                         _______ _______ _______ _____ _____    ______ ____
ROOT
ATOM      1  C   UNL     1      -0.530  -0.490  -0.151  0.00  0.00    +0.086 C 
ATOM      2  C   UNL     1      -1.759   0.381  -0.089  0.00  0.00    +0.106 A 
ATOM      3  N   UNL     1      -2.547   0.633  -1.093  0.00  0.00    -0.228 NA
ATOM      4  H   UNL     1      -1.806   0.986   1.910  0.00  0.00    +0.168 HD
ATOM      5  C   UNL     1      -3.549   1.448  -0.686  0.00  0.00    +0.148 A 
ATOM      6  C   UNL     1      -3.345   1.706   0.680  0.00  0.00    +0.163 A 
ATOM      7  N   UNL     1      -2.212   1.015   1.029  0.00  0.00    -0.327 N 
ATOM      8  N   UNL     1      -4.202   2.490   1.325  0.00  0.00    -0.216 NA
ATOM      9  C   UNL     1      -5.231   3.019   0.696  0.00  0.00    +0.225 A 
ATOM     10  N   UNL     1      -5.465   2.806  -0.586  0.00  0.00    -0.218 NA
ATOM     11  C   UNL     1      -4.662   2.035  -1.313  0.00  0.00    +0.154 A 
ENDROOT
BRANCH  11  12
ATOM     12  N   UNL     1      -4.914   1.818  -2.657  0.00  0.00    -0.298 N 
ATOM     13  H   UNL     1      -4.282   1.315  -3.194  0.00  0.00    +0.154 HD
BRANCH  12  14
ATOM     14  C   UNL     1      -6.083   2.324  -3.240  0.00  0.00    +0.033 A 
ATOM     15  C   UNL     1      -6.070   2.753  -4.561  0.00  0.00    +0.025 A 
ATOM     16  C   UNL     1      -7.222   3.251  -5.136  0.00  0.00    +0.025 A 
ATOM     17  C   UNL     1      -8.394   3.323  -4.394  0.00  0.00    +0.029 A 
ATOM     18  C   UNL     1      -8.406   2.894  -3.073  0.00  0.00    +0.025 A 
ATOM     19  C   UNL     1      -7.256   2.391  -2.499  0.00  0.00    +0.025 A 
BRANCH  17  20
ATOM     20  N   UNL     1      -9.561   3.829  -4.976  0.00  0.00    -0.336 N 
ATOM     21  C   UNL     1      -9.552   4.266  -6.375  0.00  0.00    +0.129 C 
ATOM     22  C   UNL     1     -10.793   3.921  -4.188  0.00  0.00    +0.129 C 
ENDBRANCH  17  20
ENDBRANCH  12  14
ENDBRANCH  11  12
TORSDOF 3
