REMARK  Name = ZINC67446875
REMARK  7 active torsions:
REMARK  status: ('A' for Active; 'I' for Inactive)
REMARK    1  A    between atoms: C_1  and  C_2
REMARK    2  A    between atoms: C_2  and  C_3
REMARK    3  A    between atoms: C_2  and  C_4
REMARK    4  A    between atoms: C_4  and  C_5
REMARK    5  A    between atoms: C_5  and  C_7
REMARK    6  A    between atoms: C_5  and  N_17
REMARK    7  A    between atoms: C_18  and  C_20
REMARK                            x       y       z     vdW  Elec       q    Type
REMARK                         _______ _______ _______ _____ _____    ______ ____
ROOT
ATOM      1  C   UNL     1      -1.330  -1.947  -0.134  0.00  0.00    +0.142 C 
ENDROOT
BRANCH   1   2
ATOM      2  C   UNL     1      -2.656  -2.497  -0.591  0.00  0.00    +0.154 A 
ATOM      3  N   UNL     1      -3.686  -2.772   0.166  0.00  0.00    -0.132 NA
ATOM      4  N   UNL     1      -4.653  -3.216  -0.559  0.00  0.00    -0.134 NA
ATOM      5  C   UNL     1      -4.286  -3.240  -1.806  0.00  0.00    +0.132 A 
ATOM      6  N   UNL     1      -3.006  -2.794  -1.860  0.00  0.00    -0.315 N 
ATOM      7  C   UNL     1      -2.188  -2.688  -3.068  0.00  0.00    +0.106 C 
ATOM      8  C   UNL     1      -3.107  -2.474  -4.275  0.00  0.00    -0.061 C 
ATOM      9  N   UNL     1      -3.488  -3.768  -4.849  0.00  0.00    +0.380 N 
ATOM     10  C   UNL     1      -4.244  -4.570  -3.886  0.00  0.00    -0.075 C 
ATOM     11  C   UNL     1      -5.098  -3.663  -3.004  0.00  0.00    +0.057 C 
ATOM     12  H   UNL     1      -4.056  -3.612  -5.668  0.00  0.00    -0.086 HD
ATOM     13  H   UNL     1      -2.655  -4.270  -5.116  0.00  0.00    -0.086 HD
ENDBRANCH   1   2
BRANCH   1  14
ATOM     14  N   UNL     1      -0.810  -2.771   0.960  0.00  0.00    -0.300 N 
ATOM     15  C   UNL     1       0.514  -2.807   1.207  0.00  0.00    +0.265 C 
ATOM     16  O   UNL     1       1.268  -2.085   0.584  0.00  0.00    -0.268 OA
ATOM     17  H   UNL     1      -1.420  -3.292   1.507  0.00  0.00    +0.150 HD
BRANCH  15  18
ATOM     18  C   UNL     1       1.050  -3.723   2.235  0.00  0.00    +0.150 A 
ATOM     19  C   UNL     1       2.405  -3.869   2.608  0.00  0.00    +0.005 A 
ATOM     20  C   UNL     1       2.420  -4.810   3.577  0.00  0.00    +0.040 A 
ATOM     21  N   UNL     1       1.140  -5.203   3.768  0.00  0.00    -0.281 N 
ATOM     22  H   UNL     1       0.855  -5.874   4.408  0.00  0.00    +0.189 HD
ATOM     23  N   UNL     1       0.355  -4.556   2.983  0.00  0.00    -0.169 NA
ATOM     24  C   UNL     1       3.836  -5.046   4.053  0.00  0.00    +0.055 C 
ATOM     25  C   UNL     1       4.735  -4.437   2.954  0.00  0.00    +0.011 C 
ATOM     26  C   UNL     1       3.804  -3.374   2.331  0.00  0.00    +0.039 C 
ENDBRANCH  15  18
ENDBRANCH   1  14
BRANCH   1  27
ATOM     27  C   UNL     1      -1.516  -0.509   0.355  0.00  0.00    +0.033 C 
BRANCH  27  29
ATOM     28  C   UNL     1      -2.258   1.783  -0.308  0.00  0.00    +0.007 C 
ATOM     29  C   UNL     1      -1.925   0.380  -0.821  0.00  0.00    -0.015 C 
ATOM     30  C   UNL     1      -0.771   0.464  -1.823  0.00  0.00    +0.007 C 
ENDBRANCH  27  29
ENDBRANCH   1  27
TORSDOF 5
