REMARK  Name = ZINC66232811
REMARK  11 active torsions:
REMARK  status: ('A' for Active; 'I' for Inactive)
REMARK    1  A    between atoms: C_1  and  C_2
REMARK    2  A    between atoms: C_2  and  C_4
REMARK    3  A    between atoms: C_2  and  N_16
REMARK    4  A    between atoms: C_8  and  C_10
REMARK    5  A    between atoms: N_19  and  C_20
REMARK    6  A    between atoms: C_20  and  C_21
REMARK    7  A    between atoms: C_21  and  C_22
REMARK    8  A    between atoms: C_22  and  C_23
REMARK    9  A    between atoms: C_25  and  C_28
REMARK   10  A    between atoms: C_28  and  C_29
REMARK   11  A    between atoms: C_28  and  C_30
REMARK                            x       y       z     vdW  Elec       q    Type
REMARK                         _______ _______ _______ _____ _____    ______ ____
ROOT
ATOM      1  N   UNL     1      -1.372  -0.511   0.012  0.00  0.00    -0.290 N 
ATOM      2  C   UNL     1      -2.029  -0.655   1.181  0.00  0.00    +0.300 C 
ATOM      3  O   UNL     1      -1.480  -0.364   2.226  0.00  0.00    -0.253 OA
ATOM      4  N   UNL     1      -3.293  -1.122   1.190  0.00  0.00    -0.299 N 
ATOM      5  H   UNL     1      -1.810  -0.743  -0.822  0.00  0.00    +0.151 HD
ATOM      6  H   UNL     1      -3.731  -1.354   0.356  0.00  0.00    +0.150 HD
ENDROOT
BRANCH   1   8
ATOM      7  C   UNL     1      -0.019   1.526   0.010  0.00  0.00    +0.036 C 
ATOM      8  C   UNL     1       0.002  -0.004   0.002  0.00  0.00    +0.135 C 
BRANCH   8   9
ATOM      9  C   UNL     1       0.707  -0.490  -1.238  0.00  0.00    +0.105 A 
ATOM     10  N   UNL     1       0.118  -0.748  -2.426  0.00  0.00    -0.348 N 
ATOM     11  H   UNL     1      -0.825  -0.653  -2.631  0.00  0.00    +0.167 HD
ATOM     12  C   UNL     1       1.095  -1.165  -3.286  0.00  0.00    +0.110 A 
ATOM     13  C   UNL     1       2.261  -1.149  -2.589  0.00  0.00    +0.064 A 
ATOM     14  N   UNL     1       1.986  -0.725  -1.339  0.00  0.00    -0.342 N 
ATOM     15  H   UNL     1       2.635  -0.614  -0.627  0.00  0.00    +0.167 HD
BRANCH  13  16
ATOM     16  C   UNL     1       3.598  -1.525  -3.111  0.00  0.00    -0.000 A 
ATOM     17  C   UNL     1       4.715  -1.467  -2.280  0.00  0.00    +0.010 A 
ATOM     18  C   UNL     1       5.956  -1.818  -2.771  0.00  0.00    +0.001 A 
ATOM     19  C   UNL     1       6.093  -2.225  -4.086  0.00  0.00    +0.000 A 
ATOM     20  C   UNL     1       4.988  -2.284  -4.915  0.00  0.00    +0.001 A 
ATOM     21  C   UNL     1       3.740  -1.942  -4.433  0.00  0.00    +0.010 A 
ENDBRANCH  13  16
ENDBRANCH   8   9
ENDBRANCH   1   8
BRANCH   4  22
ATOM     22  C   UNL     1      -4.006  -1.278   2.460  0.00  0.00    +0.106 C 
BRANCH  22  23
ATOM     23  C   UNL     1      -5.412  -1.820   2.192  0.00  0.00    +0.028 C 
BRANCH  23  24
ATOM     24  C   UNL     1      -6.157  -1.984   3.518  0.00  0.00    +0.100 C 
BRANCH  24  25
ATOM     25  C   UNL     1      -7.541  -2.518   3.255  0.00  0.00    +0.227 A 
ATOM     26  N   UNL     1      -7.879  -3.776   3.209  0.00  0.00    -0.196 NA
ATOM     27  C   UNL     1      -9.187  -3.892   2.953  0.00  0.00    +0.174 A 
ATOM     28  N   UNL     1      -9.700  -2.701   2.832  0.00  0.00    -0.061 NA
ATOM     29  O   UNL     1      -8.637  -1.781   3.032  0.00  0.00    -0.338 OA
BRANCH  27  30
ATOM     30  C   UNL     1      -9.944  -5.189   2.825  0.00  0.00    +0.054 C 
ATOM     31  C   UNL     1     -11.049  -5.241   3.882  0.00  0.00    +0.015 C 
ATOM     32  C   UNL     1     -10.566  -5.281   1.431  0.00  0.00    +0.015 C 
ENDBRANCH  27  30
ENDBRANCH  24  25
ENDBRANCH  23  24
ENDBRANCH  22  23
ENDBRANCH   4  22
TORSDOF 8
