REMARK  Name = ZINC39634272
REMARK  7 active torsions:
REMARK  status: ('A' for Active; 'I' for Inactive)
REMARK    1  A    between atoms: C_1  and  C_2
REMARK    2  A    between atoms: C_5  and  C_8
REMARK    3  A    between atoms: C_8  and  N_9
REMARK    4  A    between atoms: C_10  and  C_12
REMARK    5  A    between atoms: C_23  and  C_25
REMARK    6  A    between atoms: C_28  and  O_31
REMARK    7  A    between atoms: O_31  and  C_32
REMARK                            x       y       z     vdW  Elec       q    Type
REMARK                         _______ _______ _______ _____ _____    ______ ____
ROOT
ATOM      1  C   UNL     1       3.820  -6.511  -0.072  0.00  0.00    +0.100 C 
ATOM      2  C   UNL     1       4.254  -5.915   1.285  0.00  0.00    +0.121 C 
ATOM      3  N   UNL     1       4.081  -7.023   2.254  0.00  0.00    -0.296 N 
ATOM      4  C   UNL     1       4.535  -8.229   1.520  0.00  0.00    +0.115 C 
ATOM      5  C   UNL     1       4.009  -8.030   0.084  0.00  0.00    -0.004 C 
ATOM      6  C   UNL     1       5.029  -8.542  -0.928  0.00  0.00    -0.010 C 
ATOM      7  C   UNL     1       5.157 -10.062  -0.792  0.00  0.00    -0.082 C 
ATOM      8  N   UNL     1       3.850 -10.688  -1.025  0.00  0.00    +0.379 N 
ATOM      9  C   UNL     1       2.899 -10.261   0.009  0.00  0.00    -0.082 C 
ATOM     10  C   UNL     1       2.676  -8.749  -0.093  0.00  0.00    -0.010 C 
ATOM     11  C   UNL     1       3.615  -6.952   3.517  0.00  0.00    +0.247 C 
ATOM     12  O   UNL     1       3.161  -5.906   3.939  0.00  0.00    -0.270 OA
ATOM     13  H   UNL     1       3.504 -10.413  -1.932  0.00  0.00    -0.086 HD
ATOM     14  H   UNL     1       3.949 -11.691  -0.995  0.00  0.00    -0.086 HD
ENDROOT
BRANCH  11  15
ATOM     15  C   UNL     1       3.656  -8.143   4.387  0.00  0.00    +0.037 A 
ATOM     16  C   UNL     1       4.539  -9.188   4.103  0.00  0.00    +0.016 A 
ATOM     17  C   UNL     1       4.575 -10.297   4.918  0.00  0.00    +0.047 A 
ATOM     18  C   UNL     1       3.734 -10.379   6.022  0.00  0.00    +0.130 A 
ATOM     19  C   UNL     1       2.855  -9.341   6.308  0.00  0.00    +0.047 A 
ATOM     20  C   UNL     1       2.817  -8.226   5.501  0.00  0.00    +0.016 A 
BRANCH  18  21
ATOM     21  O   UNL     1       3.772 -11.474   6.822  0.00  0.00    -0.406 OA
BRANCH  21  22
ATOM     22  C   UNL     1       2.881 -11.492   7.939  0.00  0.00    +0.575 C 
ATOM     23  F   UNL     1       1.561 -11.404   7.485  0.00  0.00    -0.133 F 
ATOM     24  F   UNL     1       3.051 -12.685   8.651  0.00  0.00    -0.133 F 
ATOM     25  F   UNL     1       3.160 -10.406   8.775  0.00  0.00    -0.133 F 
ENDBRANCH  21  22
ENDBRANCH  18  21
ENDBRANCH  11  15
BRANCH   1  27
ATOM     26  N   UNL     1       1.918  -6.173  -1.617  0.00  0.00    -0.311 N 
ATOM     27  C   UNL     1       2.374  -6.189  -0.349  0.00  0.00    +0.218 C 
ATOM     28  O   UNL     1       1.621  -5.943   0.570  0.00  0.00    -0.275 OA
ATOM     29  H   UNL     1       2.520  -6.369  -2.351  0.00  0.00    +0.149 HD
BRANCH  26  30
ATOM     30  C   UNL     1       0.512  -5.859  -1.885  0.00  0.00    +0.139 C 
BRANCH  30  35
ATOM     31  C   UNL     1      -0.451  -6.046  -7.580  0.00  0.00    +0.044 C 
ATOM     32  C   UNL     1      -0.200  -5.997  -6.095  0.00  0.00    -0.050 A 
ATOM     33  C   UNL     1      -0.359  -7.137  -5.329  0.00  0.00    +0.003 A 
ATOM     34  C   UNL     1      -0.129  -7.092  -3.967  0.00  0.00    +0.005 A 
ATOM     35  C   UNL     1       0.262  -5.908  -3.371  0.00  0.00    -0.030 A 
ATOM     36  C   UNL     1       0.422  -4.769  -4.137  0.00  0.00    +0.005 A 
ATOM     37  C   UNL     1       0.196  -4.814  -5.500  0.00  0.00    +0.003 A 
ENDBRANCH  30  35
ENDBRANCH  26  30
ENDBRANCH   1  27
TORSDOF 6
