REMARK  Name = ZINC34834408
REMARK  8 active torsions:
REMARK  status: ('A' for Active; 'I' for Inactive)
REMARK    1  A    between atoms: C_1  and  C_2
REMARK    2  A    between atoms: C_5  and  O_9
REMARK    3  A    between atoms: O_9  and  C_10
REMARK    4  A    between atoms: C_13  and  C_17
REMARK    5  A    between atoms: C_17  and  N_18
REMARK    6  A    between atoms: N_18  and  C_19
REMARK    7  A    between atoms: C_19  and  C_20
REMARK    8  A    between atoms: C_19  and  C_21
REMARK                            x       y       z     vdW  Elec       q    Type
REMARK                         _______ _______ _______ _____ _____    ______ ____
ROOT
ATOM      1  C   UNL     1       0.066  -4.666  -1.271  0.00  0.00    +0.164 A 
ATOM      2  C   UNL     1       0.114  -3.838  -2.383  0.00  0.00    +0.049 A 
ATOM      3  C   UNL     1       0.123  -4.386  -3.651  0.00  0.00    +0.005 A 
ATOM      4  C   UNL     1       0.083  -5.758  -3.814  0.00  0.00    -0.061 A 
ATOM      5  C   UNL     1       0.035  -6.588  -2.709  0.00  0.00    +0.044 A 
ATOM      6  C   UNL     1       0.032  -6.045  -1.437  0.00  0.00    +0.166 A 
ATOM      7  F   UNL     1      -0.010  -6.855  -0.356  0.00  0.00    -0.202 F 
ENDROOT
BRANCH   1   8
ATOM      8  O   UNL     1       0.058  -4.130  -0.022  0.00  0.00    -0.452 OA
BRANCH   8  13
ATOM      9  C   UNL     1       4.985  -3.589   2.655  0.00  0.00    +0.044 C 
ATOM     10  C   UNL     1       3.666  -3.733   1.939  0.00  0.00    -0.049 A 
ATOM     11  C   UNL     1       3.638  -4.172   0.628  0.00  0.00    +0.007 A 
ATOM     12  C   UNL     1       2.431  -4.306  -0.031  0.00  0.00    +0.047 A 
ATOM     13  C   UNL     1       1.246  -4.000   0.624  0.00  0.00    +0.142 A 
ATOM     14  C   UNL     1       1.278  -3.560   1.940  0.00  0.00    +0.060 A 
ATOM     15  C   UNL     1       2.488  -3.432   2.596  0.00  0.00    +0.022 A 
ATOM     16 BR   UNL     1      -0.334  -3.141   2.837  0.00  0.00    -0.046 Br
ENDBRANCH   8  13
ENDBRANCH   1   8
BRANCH   4  17
ATOM     17  C   UNL     1       0.092  -6.352  -5.200  0.00  0.00    -0.046 C 
BRANCH  17  18
ATOM     18  N   UNL     1       1.479  -6.588  -5.622  0.00  0.00    +0.383 N 
ATOM     19  H   UNL     1       1.982  -5.714  -5.628  0.00  0.00    -0.085 HD
ATOM     20  H   UNL     1       1.922  -7.227  -4.980  0.00  0.00    -0.085 HD
BRANCH  18  21
ATOM     21  C   UNL     1       1.488  -7.166  -6.973  0.00  0.00    -0.078 C 
ATOM     22  C   UNL     1       2.932  -7.297  -7.462  0.00  0.00    -0.014 C 
ATOM     23  C   UNL     1       0.834  -8.549  -6.939  0.00  0.00    -0.014 C 
ENDBRANCH  18  21
ENDBRANCH  17  18
ENDBRANCH   4  17
TORSDOF 5
