REMARK  Name = ZINC39694351
REMARK  10 active torsions:
REMARK  status: ('A' for Active; 'I' for Inactive)
REMARK    1  A    between atoms: C_1  and  C_2
REMARK    2  A    between atoms: C_2  and  C_3
REMARK    3  A    between atoms: C_3  and  C_4
REMARK    4  A    between atoms: C_4  and  C_5
REMARK    5  A    between atoms: C_5  and  C_6
REMARK    6  A    between atoms: C_6  and  C_7
REMARK    7  A    between atoms: C_11  and  C_20
REMARK    8  A    between atoms: N_22  and  C_23
REMARK    9  A    between atoms: C_23  and  C_24
REMARK   10  A    between atoms: C_29  and  N_30
REMARK                            x       y       z     vdW  Elec       q    Type
REMARK                         _______ _______ _______ _____ _____    ______ ____
ROOT
ATOM      1  C   UNL     1       2.194  -4.372  -3.570  0.00  0.00    +0.216 C 
ATOM      2  O   UNL     1       2.766  -3.627  -4.337  0.00  0.00    -0.276 OA
ATOM      3  N   UNL     1       2.382  -5.704  -3.659  0.00  0.00    -0.300 N 
ATOM      4  C   UNL     1       1.848  -6.758  -2.764  0.00  0.00    +0.121 C 
ATOM      5  C   UNL     1       1.463  -7.916  -3.712  0.00  0.00    +0.100 C 
ATOM      6  C   UNL     1       2.335  -7.707  -4.962  0.00  0.00    -0.004 C 
ATOM      7  C   UNL     1       3.164  -6.446  -4.677  0.00  0.00    +0.115 C 
ATOM      8  C   UNL     1       3.253  -8.907  -5.173  0.00  0.00    -0.010 C 
ATOM      9  C   UNL     1       4.068  -8.701  -6.453  0.00  0.00    -0.082 C 
ATOM     10  N   UNL     1       3.159  -8.548  -7.595  0.00  0.00    +0.379 N 
ATOM     11  C   UNL     1       2.344  -7.339  -7.428  0.00  0.00    -0.082 C 
ATOM     12  C   UNL     1       1.456  -7.487  -6.189  0.00  0.00    -0.010 C 
ATOM     13  H   UNL     1       3.698  -8.473  -8.445  0.00  0.00    -0.086 HD
ATOM     14  H   UNL     1       2.554  -9.354  -7.653  0.00  0.00    -0.086 HD
ENDROOT
BRANCH   5  15
ATOM     15  C   UNL     1       0.002  -7.838  -4.071  0.00  0.00    +0.218 C 
ATOM     16  O   UNL     1      -0.542  -6.758  -4.166  0.00  0.00    -0.275 OA
ATOM     17  N   UNL     1      -0.701  -8.968  -4.285  0.00  0.00    -0.311 N 
ATOM     18  H   UNL     1      -0.285  -9.832  -4.142  0.00  0.00    +0.149 HD
BRANCH  17  19
ATOM     19  C   UNL     1      -2.094  -8.891  -4.733  0.00  0.00    +0.141 C 
BRANCH  19  20
ATOM     20  C   UNL     1      -2.684 -10.277  -4.781  0.00  0.00    -0.009 A 
ATOM     21  C   UNL     1      -2.809 -10.934  -5.989  0.00  0.00    +0.007 A 
ATOM     22  C   UNL     1      -3.350 -12.205  -6.034  0.00  0.00    +0.000 A 
ATOM     23  C   UNL     1      -3.769 -12.823  -4.870  0.00  0.00    +0.002 A 
ATOM     24  C   UNL     1      -3.646 -12.172  -3.658  0.00  0.00    +0.023 A 
ATOM     25  C   UNL     1      -3.097 -10.897  -3.609  0.00  0.00    +0.035 A 
BRANCH  25  26
ATOM     26  N   UNL     1      -2.967 -10.238  -2.385  0.00  0.00    -0.325 N 
ATOM     27  C   UNL     1      -4.080  -9.456  -1.823  0.00  0.00    +0.133 C 
ATOM     28  C   UNL     1      -4.300  -9.900  -0.373  0.00  0.00    +0.178 C 
ATOM     29  O   UNL     1      -3.059  -9.835   0.333  0.00  0.00    -0.377 OA
ATOM     30  C   UNL     1      -2.049 -10.709  -0.177  0.00  0.00    +0.178 C 
ATOM     31  C   UNL     1      -1.715 -10.310  -1.615  0.00  0.00    +0.133 C 
ENDBRANCH  25  26
ENDBRANCH  19  20
ENDBRANCH  17  19
ENDBRANCH   5  15
BRANCH   1  32
ATOM     32  C   UNL     1       1.274  -3.810  -2.518  0.00  0.00    +0.096 C 
BRANCH  32  33
ATOM     33  C   UNL     1       1.140  -2.298  -2.713  0.00  0.00    +0.009 C 
BRANCH  33  34
ATOM     34  C   UNL     1       0.300  -1.710  -1.578  0.00  0.00    +0.000 C 
BRANCH  34  35
ATOM     35  C   UNL     1       0.267  -0.185  -1.705  0.00  0.00    -0.000 C 
BRANCH  35  37
ATOM     36  C   UNL     1      -0.606   1.928  -0.697  0.00  0.00    +0.004 C 
ATOM     37  C   UNL     1      -0.573   0.403  -0.570  0.00  0.00    -0.003 C 
ENDBRANCH  35  37
ENDBRANCH  34  35
ENDBRANCH  33  34
ENDBRANCH  32  33
ENDBRANCH   1  32
TORSDOF 9
