REMARK  Name = ZINC62362187
REMARK  4 active torsions:
REMARK  status: ('A' for Active; 'I' for Inactive)
REMARK    1  A    between atoms: C_3  and  C_14
REMARK    2  A    between atoms: N_4  and  C_6
REMARK    3  A    between atoms: C_6  and  C_7
REMARK    4  A    between atoms: C_7  and  C_8
REMARK                            x       y       z     vdW  Elec       q    Type
REMARK                         _______ _______ _______ _____ _____    ______ ____
ROOT
ATOM      1  C   UNL     1      -0.028   1.509   0.004  0.00  0.00    -0.020 C 
ATOM      2  C   UNL     1       1.477   1.888   0.005  0.00  0.00    -0.008 C 
ATOM      3  C   UNL     1       2.078   0.787  -0.903  0.00  0.00    +0.019 C 
ATOM      4  N   UNL     1       1.312  -0.434  -0.573  0.00  0.00    +0.388 N 
ATOM      5  C   UNL     1       0.003  -0.034  -0.026  0.00  0.00    -0.078 C 
ATOM      6  H   UNL     1       1.815  -0.976   0.113  0.00  0.00    -0.081 HD
ENDROOT
BRANCH   3   7
ATOM      7  C   UNL     1       3.539   0.590  -0.592  0.00  0.00    +0.202 C 
ATOM      8  O   UNL     1       3.881  -0.266   0.196  0.00  0.00    -0.277 OA
ATOM      9  N   UNL     1       4.466   1.364  -1.190  0.00  0.00    -0.298 N 
ATOM     10  C   UNL     1       4.071   2.487  -2.055  0.00  0.00    +0.136 C 
ATOM     11  C   UNL     1       4.832   3.738  -1.601  0.00  0.00    +0.179 C 
ATOM     12  O   UNL     1       6.229   3.443  -1.542  0.00  0.00    -0.377 OA
ATOM     13  C   UNL     1       6.574   2.430  -0.594  0.00  0.00    +0.179 C 
ATOM     14  C   UNL     1       5.902   1.116  -0.992  0.00  0.00    +0.136 C 
ENDBRANCH   3   7
BRANCH   4  15
ATOM     15  C   UNL     1       1.115  -1.238  -1.787  0.00  0.00    -0.069 C 
BRANCH  15  16
ATOM     16  C   UNL     1       0.433  -2.557  -1.421  0.00  0.00    +0.078 C 
BRANCH  16  17
ATOM     17  C   UNL     1       0.231  -3.381  -2.666  0.00  0.00    +0.219 C 
ATOM     18  O   UNL     1       0.597  -2.955  -3.741  0.00  0.00    -0.275 OA
ATOM     19  N   UNL     1      -0.356  -4.591  -2.585  0.00  0.00    -0.240 N 
ATOM     20  C   UNL     1      -0.537  -5.329  -3.699  0.00  0.00    +0.303 C 
ATOM     21  O   UNL     1      -0.170  -4.902  -4.777  0.00  0.00    -0.253 OA
ATOM     22  N   UNL     1      -1.124  -6.539  -3.619  0.00  0.00    -0.313 N 
ATOM     23  H   UNL     1      -0.649  -4.932  -1.726  0.00  0.00    +0.159 HD
ATOM     24  H   UNL     1      -1.417  -6.880  -2.759  0.00  0.00    +0.146 HD
ATOM     25  H   UNL     1      -1.254  -7.069  -4.420  0.00  0.00    +0.146 HD
ENDBRANCH  16  17
ENDBRANCH  15  16
ENDBRANCH   4  15
TORSDOF 4
