REMARK  Name = ZINC45064229
REMARK  8 active torsions:
REMARK  status: ('A' for Active; 'I' for Inactive)
REMARK    1  A    between atoms: C_1  and  C_2
REMARK    2  A    between atoms: C_2  and  C_3
REMARK    3  A    between atoms: C_2  and  C_4
REMARK    4  A    between atoms: C_2  and  C_5
REMARK    5  A    between atoms: C_5  and  N_6
REMARK    6  A    between atoms: N_6  and  C_7
REMARK    7  A    between atoms: C_9  and  C_18
REMARK    8  A    between atoms: C_18  and  N_19
REMARK                            x       y       z     vdW  Elec       q    Type
REMARK                         _______ _______ _______ _____ _____    ______ ____
ROOT
ATOM      1  N   UNL     1       2.240  -0.043  -1.289  0.00  0.00    -0.319 N 
ATOM      2  C   UNL     1       2.045  -0.151   0.159  0.00  0.00    +0.130 C 
ATOM      3  C   UNL     1       2.633   1.167  -1.849  0.00  0.00    +0.100 A 
ATOM      4  C   UNL     1       3.976   1.392  -2.135  0.00  0.00    -0.027 A 
ATOM      5  C   UNL     1       4.343   2.603  -2.688  0.00  0.00    +0.010 A 
ATOM      6  C   UNL     1       3.358   3.556  -2.943  0.00  0.00    -0.028 A 
ATOM      7  C   UNL     1       2.048   3.268  -2.641  0.00  0.00    +0.021 A 
ATOM      8  N   UNL     1       1.729   2.093  -2.110  0.00  0.00    -0.346 N 
ATOM      9  C   UNL     1       0.927   4.240  -2.904  0.00  0.00    +0.053 C 
ATOM     10  C   UNL     1       1.474   5.652  -3.096  0.00  0.00    +0.006 C 
ATOM     11  C   UNL     1       2.591   5.601  -4.146  0.00  0.00    +0.005 C 
ATOM     12  C   UNL     1       3.788   4.870  -3.539  0.00  0.00    +0.037 C 
ATOM     13  H   UNL     1       0.799   1.910  -1.904  0.00  0.00    +0.167 HD
ENDROOT
BRANCH   1  14
ATOM     14  C   UNL     1       2.021  -1.211  -2.146  0.00  0.00    +0.112 C 
BRANCH  14  16
ATOM     15  C   UNL     1       0.105  -0.143  -3.343  0.00  0.00    +0.012 C 
ATOM     16  C   UNL     1       0.532  -1.329  -2.475  0.00  0.00    -0.022 C 
ATOM     17  C   UNL     1      -0.279  -1.330  -1.178  0.00  0.00    +0.012 C 
ATOM     18  C   UNL     1       0.280  -2.633  -3.235  0.00  0.00    +0.012 C 
ENDBRANCH  14  16
ENDBRANCH   1  14
BRANCH   4  19
ATOM     19  C   UNL     1       5.010   0.335  -1.847  0.00  0.00    -0.047 C 
BRANCH  19  20
ATOM     20  N   UNL     1       5.090  -0.595  -2.982  0.00  0.00    +0.381 N 
ATOM     21  H   UNL     1       5.731  -1.341  -2.760  0.00  0.00    -0.090 HD
ATOM     22  H   UNL     1       4.176  -0.980  -3.165  0.00  0.00    -0.090 HD
ATOM     23  H   UNL     1       5.417  -0.101  -3.798  0.00  0.00    -0.090 HD
ENDBRANCH  19  20
ENDBRANCH   4  19
TORSDOF 4
