REMARK  Name = ZINC05566681
REMARK  2 active torsions:
REMARK  status: ('A' for Active; 'I' for Inactive)
REMARK    1  A    between atoms: C_10  and  C_12
REMARK    2  A    between atoms: C_12  and  N_13
REMARK                            x       y       z     vdW  Elec       q    Type
REMARK                         _______ _______ _______ _____ _____    ______ ____
ROOT
ATOM      1  C   UNL     1      -0.835   3.782   0.540  0.00  0.00    +0.012 C 
ATOM      2  C   UNL     1      -1.230   2.396   0.032  0.00  0.00    +0.032 C 
ATOM      3  C   UNL     1      -0.018   1.497   0.010  0.00  0.00    -0.053 C 
ATOM      4  C   UNL     1       1.245   1.960   0.001  0.00  0.00    -0.005 C 
ATOM      5  C   UNL     1       2.228   0.816  -0.011  0.00  0.00    +0.040 C 
ATOM      6  C   UNL     1       1.391  -0.376  -0.560  0.00  0.00    +0.020 C 
ATOM      7  C   UNL     1       0.002  -0.004   0.002  0.00  0.00    +0.011 C 
ATOM      8  C   UNL     1      -0.182  -0.582   1.413  0.00  0.00    +0.020 C 
ATOM      9  C   UNL     1      -1.689  -0.938   1.395  0.00  0.00    +0.033 C 
ATOM     10  C   UNL     1      -2.029  -1.106  -0.069  0.00  0.00    -0.055 C 
ATOM     11  C   UNL     1      -1.099  -0.590  -0.831  0.00  0.00    -0.015 C 
ATOM     12  C   UNL     1       1.546   3.399   0.002  0.00  0.00    +0.159 C 
ATOM     13  O   UNL     1       2.666   3.825   0.193  0.00  0.00    -0.292 OA
ATOM     14  C   UNL     1       0.363   4.318  -0.253  0.00  0.00    +0.079 C 
ENDROOT
BRANCH  10  15
ATOM     15  C   UNL     1      -3.276  -1.780  -0.582  0.00  0.00    +0.140 C 
BRANCH  15  16
ATOM     16  N   UNL     1      -3.056  -3.227  -0.650  0.00  0.00    -0.273 N 
ATOM     17  C   UNL     1      -3.320  -4.208   0.416  0.00  0.00    +0.205 C 
ATOM     18  C   UNL     1      -2.912  -5.529  -0.206  0.00  0.00    +0.238 C 
ATOM     19  O   UNL     1      -2.955  -6.626   0.309  0.00  0.00    -0.274 OA
ATOM     20  N   UNL     1      -2.491  -5.231  -1.451  0.00  0.00    -0.239 N 
ATOM     21  C   UNL     1      -2.579  -3.919  -1.701  0.00  0.00    +0.309 C 
ATOM     22  O   UNL     1      -2.262  -3.410  -2.758  0.00  0.00    -0.252 OA
ATOM     23  H   UNL     1      -2.167  -5.886  -2.089  0.00  0.00    +0.159 HD
ENDBRANCH  15  16
ENDBRANCH  10  15
TORSDOF 2
