REMARK  Name = ZINC39689558
REMARK  7 active torsions:
REMARK  status: ('A' for Active; 'I' for Inactive)
REMARK    1  A    between atoms: C_1  and  C_2
REMARK    2  A    between atoms: C_2  and  C_3
REMARK    3  A    between atoms: C_2  and  C_4
REMARK    4  A    between atoms: C_8  and  C_17
REMARK    5  A    between atoms: N_19  and  C_20
REMARK    6  A    between atoms: C_20  and  C_21
REMARK    7  A    between atoms: N_25  and  C_27
REMARK                            x       y       z     vdW  Elec       q    Type
REMARK                         _______ _______ _______ _____ _____    ______ ____
ROOT
ATOM      1  C   UNL     1      -1.648  -0.555  -0.055  0.00  0.00    +0.218 C 
ATOM      2  O   UNL     1      -2.602   0.195  -0.043  0.00  0.00    -0.275 OA
ATOM      3  N   UNL     1      -1.832  -1.881   0.098  0.00  0.00    -0.300 N 
ATOM      4  C   UNL     1      -0.795  -2.933   0.219  0.00  0.00    +0.121 C 
ATOM      5  C   UNL     1      -1.350  -3.906   1.285  0.00  0.00    +0.100 C 
ATOM      6  C   UNL     1      -2.873  -3.695   1.254  0.00  0.00    -0.004 C 
ATOM      7  C   UNL     1      -3.116  -2.616   0.189  0.00  0.00    +0.115 C 
ATOM      8  C   UNL     1      -3.366  -3.206   2.613  0.00  0.00    -0.010 C 
ATOM      9  C   UNL     1      -4.890  -3.058   2.575  0.00  0.00    -0.082 C 
ATOM     10  N   UNL     1      -5.500  -4.352   2.246  0.00  0.00    +0.379 N 
ATOM     11  C   UNL     1      -5.094  -4.770   0.899  0.00  0.00    -0.082 C 
ATOM     12  C   UNL     1      -3.579  -4.990   0.867  0.00  0.00    -0.010 C 
ATOM     13  H   UNL     1      -5.200  -5.044   2.917  0.00  0.00    -0.086 HD
ATOM     14  H   UNL     1      -6.505  -4.267   2.281  0.00  0.00    -0.086 HD
ENDROOT
BRANCH   5  15
ATOM     15  C   UNL     1      -1.008  -5.329   0.925  0.00  0.00    +0.218 C 
ATOM     16  O   UNL     1      -0.864  -5.643  -0.237  0.00  0.00    -0.275 OA
ATOM     17  N   UNL     1      -0.861  -6.252   1.896  0.00  0.00    -0.315 N 
ATOM     18  H   UNL     1      -0.976  -6.001   2.825  0.00  0.00    +0.149 HD
BRANCH  17  19
ATOM     19  C   UNL     1      -0.528  -7.636   1.546  0.00  0.00    +0.105 C 
BRANCH  19  20
ATOM     20  C   UNL     1      -0.420  -8.472   2.822  0.00  0.00    -0.012 C 
ATOM     21  C   UNL     1      -1.808  -8.645   3.482  0.00  0.00    -0.016 C 
ATOM     22  C   UNL     1      -1.836 -10.101   3.984  0.00  0.00    -0.079 C 
ATOM     23  N   UNL     1      -0.526 -10.700   3.651  0.00  0.00    +0.378 N 
ATOM     24  C   UNL     1      -0.006  -9.928   2.490  0.00  0.00    -0.074 C 
ATOM     25  C   UNL     1      -0.693 -12.113   3.286  0.00  0.00    -0.096 C 
ATOM     26  H   UNL     1       0.105 -10.613   4.433  0.00  0.00    -0.082 HD
ENDBRANCH  19  20
ENDBRANCH  17  19
ENDBRANCH   5  15
BRANCH   1  28
ATOM     27  C   UNL     1      -0.319   1.244  -1.126  0.00  0.00    +0.017 C 
ATOM     28  C   UNL     1      -0.258  -0.003  -0.242  0.00  0.00    +0.069 C 
ATOM     29  C   UNL     1       0.331   0.367   1.121  0.00  0.00    +0.017 C 
ENDBRANCH   1  28
TORSDOF 4
