REMARK  Name = ZINC38082156
REMARK  5 active torsions:
REMARK  status: ('A' for Active; 'I' for Inactive)
REMARK    1  A    between atoms: C_4  and  O_9
REMARK    2  A    between atoms: C_5  and  C_7
REMARK    3  A    between atoms: C_7  and  N_8
REMARK    4  A    between atoms: O_9  and  C_10
REMARK    5  A    between atoms: C_13  and  N_17
REMARK                            x       y       z     vdW  Elec       q    Type
REMARK                         _______ _______ _______ _____ _____    ______ ____
ROOT
ATOM      1  C   UNL     1       0.004   1.389   0.288  0.00  0.00    +0.000 A 
ATOM      2  C   UNL     1       1.174   2.090   0.063  0.00  0.00    +0.004 A 
ATOM      3  C   UNL     1       2.374   1.416  -0.046  0.00  0.00    +0.046 A 
ATOM      4  C   UNL     1       2.406   0.034   0.070  0.00  0.00    +0.130 A 
ATOM      5  C   UNL     1       1.230  -0.667   0.297  0.00  0.00    -0.023 A 
ATOM      6  C   UNL     1       0.032   0.012   0.405  0.00  0.00    +0.005 A 
ENDROOT
BRANCH   5   7
ATOM      7  C   UNL     1       1.260  -2.169   0.424  0.00  0.00    -0.047 C 
BRANCH   7   8
ATOM      8  N   UNL     1       1.697  -2.537   1.778  0.00  0.00    +0.381 N 
ATOM      9  H   UNL     1       2.620  -2.166   1.946  0.00  0.00    -0.090 HD
ATOM     10  H   UNL     1       1.053  -2.154   2.454  0.00  0.00    -0.090 HD
ATOM     11  H   UNL     1       1.717  -3.542   1.863  0.00  0.00    -0.090 HD
ENDBRANCH   7   8
ENDBRANCH   5   7
BRANCH   4  12
ATOM     12  O   UNL     1       3.586  -0.632  -0.037  0.00  0.00    -0.453 OA
BRANCH  12  13
ATOM     13  C   UNL     1       4.724   0.102  -0.149  0.00  0.00    +0.164 A 
ATOM     14  C   UNL     1       5.243   0.392  -1.403  0.00  0.00    +0.051 A 
ATOM     15  C   UNL     1       6.400   1.138  -1.514  0.00  0.00    +0.036 A 
ATOM     16  C   UNL     1       7.043   1.596  -0.379  0.00  0.00    +0.129 A 
ATOM     17  C   UNL     1       6.529   1.309   0.872  0.00  0.00    +0.074 A 
ATOM     18  C   UNL     1       5.368   0.568   0.991  0.00  0.00    +0.168 A 
ATOM     19  F   UNL     1       4.863   0.291   2.213  0.00  0.00    -0.202 F 
BRANCH  16  20
ATOM     20  N   UNL     1       8.283   2.395  -0.503  0.00  0.00    +0.057 N 
ATOM     21  O   UNL     1       8.733   2.646  -1.597  0.00  0.00    -0.126 OA
ATOM     22  O   UNL     1       8.846   2.796   0.489  0.00  0.00    -0.126 OA
ENDBRANCH  16  20
ENDBRANCH  12  13
ENDBRANCH   4  12
TORSDOF 5
