REMARK  Name = ZINC65409058
REMARK  8 active torsions:
REMARK  status: ('A' for Active; 'I' for Inactive)
REMARK    1  A    between atoms: C_1  and  C_2
REMARK    2  A    between atoms: C_2  and  N_3
REMARK    3  A    between atoms: C_10  and  C_21
REMARK    4  A    between atoms: C_10  and  C_31
REMARK    5  A    between atoms: C_12  and  C_14
REMARK    6  A    between atoms: N_19  and  C_20
REMARK    7  A    between atoms: C_21  and  C_22
REMARK    8  A    between atoms: C_31  and  O_32
REMARK                            x       y       z     vdW  Elec       q    Type
REMARK                         _______ _______ _______ _____ _____    ______ ____
ROOT
ATOM      1  N   UNL     1      -1.721  -0.300   0.133  0.00  0.00    +0.380 N 
ATOM      2  C   UNL     1      -2.294  -0.110  -1.224  0.00  0.00    -0.074 C 
ATOM      3  C   UNL     1      -3.357  -1.220  -1.360  0.00  0.00    -0.004 C 
ATOM      4  C   UNL     1      -2.911  -2.322  -0.361  0.00  0.00    -0.002 C 
ATOM      5  C   UNL     1      -1.621  -1.774   0.283  0.00  0.00    -0.073 C 
ATOM      6  C   UNL     1      -2.564  -3.539  -1.244  0.00  0.00    +0.048 C 
ATOM      7  N   UNL     1      -2.239  -2.960  -2.573  0.00  0.00    -0.302 NA
ATOM      8  C   UNL     1      -3.233  -1.860  -2.758  0.00  0.00    +0.095 C 
ATOM      9  H   UNL     1      -1.299  -2.593  -2.588  0.00  0.00    +0.123 HD
ATOM     10  H   UNL     1      -2.336   0.086   0.835  0.00  0.00    -0.082 HD
ENDROOT
BRANCH   8  11
ATOM     11  C   UNL     1      -2.742  -0.827  -3.775  0.00  0.00    +0.192 C 
ATOM     12  N   UNL     1      -1.288  -0.661  -3.667  0.00  0.00    -0.274 NA
ATOM     13  C   UNL     1      -0.747  -0.634  -4.823  0.00  0.00    +0.095 C 
ATOM     14  C   UNL     1      -1.811  -0.787  -5.886  0.00  0.00    +0.133 C 
ATOM     15  N   UNL     1      -2.994  -1.308  -5.154  0.00  0.00    -0.278 NA
ATOM     16  C   UNL     1      -4.239  -0.742  -5.691  0.00  0.00    +0.107 C 
ENDBRANCH   8  11
BRANCH   1  18
ATOM     17  C   UNL     1      -0.532   1.841   0.188  0.00  0.00    -0.017 C 
ATOM     18  C   UNL     1      -0.391   0.317   0.220  0.00  0.00    -0.082 C 
ENDBRANCH   1  18
BRANCH   6  19
ATOM     19  C   UNL     1      -3.765  -4.480  -1.352  0.00  0.00    +0.057 C 
BRANCH  19  20
ATOM     20  C   UNL     1      -3.404  -5.659  -2.218  0.00  0.00    -0.040 C 
ATOM     21  C   UNL     1      -2.960  -6.867  -1.802  0.00  0.00    -0.001 A 
ATOM     22  C   UNL     1      -2.690  -7.423  -0.471  0.00  0.00    +0.010 A 
ATOM     23  C   UNL     1      -2.241  -8.695  -0.369  0.00  0.00    +0.001 A 
ATOM     24  C   UNL     1      -2.027  -9.493  -1.502  0.00  0.00    +0.002 A 
ATOM     25  C   UNL     1      -2.252  -9.053  -2.757  0.00  0.00    +0.026 A 
ATOM     26  C   UNL     1      -2.727  -7.731  -2.982  0.00  0.00    +0.043 A 
ATOM     27  N   UNL     1      -3.015  -7.082  -4.083  0.00  0.00    -0.380 N 
ATOM     28  C   UNL     1      -3.470  -5.733  -3.727  0.00  0.00    +0.144 C 
ATOM     29  H   UNL     1      -2.943  -7.435  -4.984  0.00  0.00    +0.160 HD
ENDBRANCH  19  20
ENDBRANCH   6  19
BRANCH   6  30
ATOM     30  C   UNL     1      -1.353  -4.281  -0.676  0.00  0.00    +0.178 C 
BRANCH  30  31
ATOM     31  O   UNL     1      -1.599  -4.617   0.691  0.00  0.00    -0.393 OA
ATOM     32  H   UNL     1      -0.871  -5.091   1.117  0.00  0.00    +0.209 HD
ENDBRANCH  30  31
ENDBRANCH   6  30
TORSDOF 6
