REMARK  Name = ZINC43302623
REMARK  13 active torsions:
REMARK  status: ('A' for Active; 'I' for Inactive)
REMARK    1  A    between atoms: C_1  and  C_2
REMARK    2  A    between atoms: C_2  and  C_3
REMARK    3  A    between atoms: C_2  and  C_4
REMARK    4  A    between atoms: C_7  and  C_10
REMARK    5  A    between atoms: C_10  and  C_11
REMARK    6  A    between atoms: C_10  and  N_12
REMARK    7  A    between atoms: N_12  and  C_13
REMARK    8  A    between atoms: C_13  and  C_14
REMARK    9  A    between atoms: C_13  and  C_15
REMARK   10  A    between atoms: C_15  and  C_17
REMARK   11  A    between atoms: C_18  and  N_27
REMARK   12  A    between atoms: N_19  and  C_26
REMARK   13  A    between atoms: N_22  and  C_25
REMARK                            x       y       z     vdW  Elec       q    Type
REMARK                         _______ _______ _______ _____ _____    ______ ____
ROOT
ATOM      1  C   UNL     1      -7.408  -2.309  -1.278  0.00  0.00    -0.001 C 
ATOM      2  C   UNL     1      -8.215  -1.271  -0.496  0.00  0.00    -0.006 C 
ENDROOT
BRANCH   1   3
ATOM      3  N   UNL     1      -5.993  -1.913  -1.301  0.00  0.00    +0.390 N 
ATOM      4  H   UNL     1      -5.912  -0.978  -1.671  0.00  0.00    -0.084 HD
ATOM      5  H   UNL     1      -5.474  -2.552  -1.885  0.00  0.00    -0.084 HD
BRANCH   3   6
ATOM      6  C   UNL     1      -5.453  -1.948   0.064  0.00  0.00    -0.043 C 
ATOM      7  C   UNL     1      -5.461  -3.389   0.579  0.00  0.00    -0.009 C 
BRANCH   6  11
ATOM      8  C   UNL     1      -1.446  -0.468   0.049  0.00  0.00    -0.045 A 
ATOM      9  C   UNL     1      -2.304  -0.130   1.079  0.00  0.00    +0.004 A 
ATOM     10  C   UNL     1      -3.600  -0.609   1.084  0.00  0.00    +0.002 A 
ATOM     11  C   UNL     1      -4.039  -1.425   0.058  0.00  0.00    -0.062 A 
ATOM     12  C   UNL     1      -3.182  -1.763  -0.972  0.00  0.00    +0.002 A 
ATOM     13  C   UNL     1      -1.886  -1.280  -0.979  0.00  0.00    +0.004 A 
BRANCH   8  15
ATOM     14  C   UNL     1      -0.054   1.584   0.027  0.00  0.00    +0.012 C 
ATOM     15  C   UNL     1      -0.032   0.055   0.044  0.00  0.00    +0.013 C 
ATOM     16  C   UNL     1       0.696  -0.431   1.299  0.00  0.00    +0.012 C 
ENDBRANCH   8  15
ENDBRANCH   6  11
ENDBRANCH   3   6
ENDBRANCH   1   3
BRANCH   1  17
ATOM     17  C   UNL     1      -7.929  -2.392  -2.690  0.00  0.00    +0.158 C 
ATOM     18  O   UNL     1      -7.299  -1.893  -3.600  0.00  0.00    -0.294 OA
BRANCH  17  19
ATOM     19  C   UNL     1      -9.149  -3.050  -2.954  0.00  0.00    +0.118 A 
ATOM     20  C   UNL     1      -9.719  -3.035  -4.239  0.00  0.00    +0.116 A 
ATOM     21  N   UNL     1     -10.901  -3.686  -4.445  0.00  0.00    -0.284 N 
ATOM     22  C   UNL     1     -11.523  -4.335  -3.449  0.00  0.00    +0.333 A 
ATOM     23  O   UNL     1     -12.574  -4.900  -3.684  0.00  0.00    -0.246 OA
ATOM     24  N   UNL     1     -11.028  -4.384  -2.202  0.00  0.00    -0.263 N 
ATOM     25  C   UNL     1      -9.862  -3.778  -1.896  0.00  0.00    +0.269 A 
ATOM     26  O   UNL     1      -9.413  -3.829  -0.766  0.00  0.00    -0.267 OA
ATOM     27  C   UNL     1     -11.759  -5.111  -1.161  0.00  0.00    +0.157 C 
ATOM     28  C   UNL     1     -11.503  -3.676  -5.781  0.00  0.00    +0.155 C 
BRANCH  20  29
ATOM     29  N   UNL     1      -9.102  -2.381  -5.260  0.00  0.00    -0.344 N 
ATOM     30  H   UNL     1      -8.227  -1.986  -5.125  0.00  0.00    +0.144 HD
ATOM     31  H   UNL     1      -9.538  -2.310  -6.124  0.00  0.00    +0.144 HD
ENDBRANCH  20  29
ENDBRANCH  17  19
ENDBRANCH   1  17
TORSDOF 7
