REMARK  Name = ZINC65366032
REMARK  8 active torsions:
REMARK  status: ('A' for Active; 'I' for Inactive)
REMARK    1  A    between atoms: C_1  and  N_2
REMARK    2  A    between atoms: C_4  and  N_13
REMARK    3  A    between atoms: C_7  and  C_9
REMARK    4  A    between atoms: C_9  and  O_11
REMARK    5  A    between atoms: O_11  and  C_12
REMARK    6  A    between atoms: C_14  and  C_16
REMARK    7  A    between atoms: C_18  and  C_23
REMARK    8  A    between atoms: C_19  and  N_22
REMARK                            x       y       z     vdW  Elec       q    Type
REMARK                         _______ _______ _______ _____ _____    ______ ____
ROOT
ATOM      1  C   UNL     1       3.288  -3.308  -3.795  0.00  0.00    +0.245 C 
ATOM      2  C   UNL     1       3.581  -2.159  -4.745  0.00  0.00    +0.033 C 
ATOM      3  C   UNL     1       3.320  -2.683  -5.972  0.00  0.00    +0.116 C 
ATOM      4  N   UNL     1       2.918  -3.968  -5.857  0.00  0.00    -0.268 N 
ATOM      5  N   UNL     1       2.873  -4.394  -4.697  0.00  0.00    -0.193 NA
ATOM      6  H   UNL     1       2.684  -4.514  -6.623  0.00  0.00    +0.190 HD
ENDROOT
BRANCH   2   7
ATOM      7  C   UNL     1       4.040  -0.802  -4.415  0.00  0.00    -0.016 A 
ATOM      8  C   UNL     1       5.303  -0.605  -3.846  0.00  0.00    +0.008 A 
ATOM      9  C   UNL     1       5.726   0.671  -3.540  0.00  0.00    +0.001 A 
ATOM     10  C   UNL     1       4.905   1.756  -3.794  0.00  0.00    +0.000 A 
ATOM     11  C   UNL     1       3.654   1.570  -4.356  0.00  0.00    +0.001 A 
ATOM     12  C   UNL     1       3.219   0.301  -4.674  0.00  0.00    +0.008 A 
ENDBRANCH   2   7
BRANCH   1  14
ATOM     13  N   UNL     1       2.433  -2.220  -1.744  0.00  0.00    -0.309 N 
ATOM     14  C   UNL     1       2.171  -2.945  -2.850  0.00  0.00    +0.244 C 
ATOM     15  O   UNL     1       1.037  -3.305  -3.085  0.00  0.00    -0.273 OA
ATOM     16  H   UNL     1       3.340  -1.932  -1.556  0.00  0.00    +0.149 HD
BRANCH  13  20
ATOM     17  C   UNL     1       0.068   1.461  -0.056  0.00  0.00    +0.105 C 
ATOM     18  N   UNL     1       0.053  -0.008  -0.035  0.00  0.00    -0.291 NA
ATOM     19  C   UNL     1       0.645  -0.561  -1.272  0.00  0.00    +0.107 C 
ATOM     20  C   UNL     1       1.347  -1.867  -0.826  0.00  0.00    +0.089 C 
ATOM     21  C   UNL     1       1.903  -1.464   0.565  0.00  0.00    +0.054 C 
ATOM     22  C   UNL     1       0.809  -0.528   1.119  0.00  0.00    +0.168 C 
BRANCH  22  23
ATOM     23  C   UNL     1       1.444   0.613   1.872  0.00  0.00    +0.324 C 
ATOM     24  O   UNL     1       2.125   1.420   1.284  0.00  0.00    -0.249 OA
BRANCH  23  25
ATOM     25  O   UNL     1       1.253   0.733   3.195  0.00  0.00    -0.467 OA
ATOM     26  C   UNL     1       1.885   1.838   3.844  0.00  0.00    +0.280 C 
ENDBRANCH  23  25
ENDBRANCH  22  23
ENDBRANCH  13  20
ENDBRANCH   1  14
BRANCH   3  27
ATOM     27  N   UNL     1       3.446  -1.993  -7.176  0.00  0.00    -0.343 N 
ATOM     28  H   UNL     1       3.741  -1.069  -7.177  0.00  0.00    +0.144 HD
ATOM     29  H   UNL     1       3.240  -2.437  -8.014  0.00  0.00    +0.144 HD
ENDBRANCH   3  27
TORSDOF 6
