REMARK  Name = ZINC49563198
REMARK  5 active torsions:
REMARK  status: ('A' for Active; 'I' for Inactive)
REMARK    1  A    between atoms: C_3  and  O_23
REMARK    2  A    between atoms: C_4  and  N_22
REMARK    3  A    between atoms: C_6  and  S_7
REMARK    4  A    between atoms: S_7  and  N_10
REMARK    5  A    between atoms: N_10  and  C_11
REMARK                            x       y       z     vdW  Elec       q    Type
REMARK                         _______ _______ _______ _____ _____    ______ ____
ROOT
ATOM      1  S   UNL     1      -1.513  -0.904   0.012  0.00  0.00    +0.059 S 
ATOM      2  O   UNL     1      -1.221  -2.185   0.553  0.00  0.00    -0.153 OA
ATOM      3  O   UNL     1      -2.492  -0.043   0.578  0.00  0.00    -0.153 OA
ENDROOT
BRANCH   1   9
ATOM      4  C   UNL     1      -0.017   1.378   0.010  0.00  0.00    +0.032 A 
ATOM      5  C   UNL     1       1.169   2.090   0.002  0.00  0.00    +0.049 A 
ATOM      6  C   UNL     1       2.380   1.418  -0.013  0.00  0.00    +0.137 A 
ATOM      7  C   UNL     1       2.400   0.024  -0.021  0.00  0.00    +0.068 A 
ATOM      8  C   UNL     1       1.207  -0.682  -0.013  0.00  0.00    +0.055 A 
ATOM      9  C   UNL     1       0.002  -0.004   0.002  0.00  0.00    +0.107 A 
BRANCH   7  10
ATOM     10  N   UNL     1       3.621  -0.660  -0.037  0.00  0.00    -0.355 N 
ATOM     11  H   UNL     1       4.455  -0.164  -0.043  0.00  0.00    +0.142 HD
ATOM     12  H   UNL     1       3.633  -1.630  -0.043  0.00  0.00    +0.142 HD
ENDBRANCH   7  10
BRANCH   6  13
ATOM     13  O   UNL     1       3.547   2.116  -0.022  0.00  0.00    -0.505 OA
ATOM     14  H   UNL     1       3.894   2.314   0.859  0.00  0.00    +0.292 HD
ENDBRANCH   6  13
ENDBRANCH   1   9
BRANCH   1  15
ATOM     15  N   UNL     1      -1.950  -1.145  -1.567  0.00  0.00    -0.188 NA
ATOM     16  H   UNL     1      -2.757  -0.735  -1.915  0.00  0.00    +0.148 HD
BRANCH  15  17
ATOM     17  C   UNL     1      -1.117  -1.978  -2.438  0.00  0.00    +0.061 C 
ATOM     18  C   UNL     1      -1.705  -3.411  -2.562  0.00  0.00    +0.000 C 
ATOM     19  C   UNL     1      -1.502  -3.799  -4.048  0.00  0.00    -0.077 C 
ATOM     20  N   UNL     1      -0.763  -2.691  -4.654  0.00  0.00    +0.383 N 
ATOM     21  C   UNL     1      -1.175  -1.481  -3.893  0.00  0.00    -0.050 C 
ATOM     22  C   UNL     1      -0.168  -0.382  -4.203  0.00  0.00    -0.014 C 
ATOM     23  C   UNL     1      -0.277  -0.067  -5.703  0.00  0.00    -0.003 C 
ATOM     24  C   UNL     1      -0.071  -1.334  -6.534  0.00  0.00    -0.019 C 
ATOM     25  C   UNL     1      -1.019  -2.451  -6.067  0.00  0.00    -0.078 C 
ATOM     26  H   UNL     1       0.226  -2.835  -4.515  0.00  0.00    -0.081 HD
ENDBRANCH  15  17
ENDBRANCH   1  15
TORSDOF 5
