REMARK  Name = ZINC50093401
REMARK  11 active torsions:
REMARK  status: ('A' for Active; 'I' for Inactive)
REMARK    1  A    between atoms: C_1  and  C_2
REMARK    2  A    between atoms: C_2  and  C_3
REMARK    3  A    between atoms: C_3  and  C_4
REMARK    4  A    between atoms: C_3  and  C_5
REMARK    5  A    between atoms: C_3  and  N_7
REMARK    6  A    between atoms: C_5  and  N_6
REMARK    7  A    between atoms: N_7  and  C_8
REMARK    8  A    between atoms: N_7  and  S_9
REMARK    9  A    between atoms: S_9  and  C_12
REMARK   10  A    between atoms: N_14  and  C_21
REMARK   11  A    between atoms: N_17  and  C_20
REMARK                            x       y       z     vdW  Elec       q    Type
REMARK                         _______ _______ _______ _____ _____    ______ ____
ROOT
ATOM      1  S   UNL     1      -0.362  -0.874  -3.719  0.00  0.00    +0.068 S 
ATOM      2  O   UNL     1      -0.168  -0.206  -4.959  0.00  0.00    -0.153 OA
ATOM      3  O   UNL     1       0.117  -2.190  -3.479  0.00  0.00    -0.153 OA
ENDROOT
BRANCH   1   4
ATOM      4  C   UNL     1      -2.101  -0.911  -3.435  0.00  0.00    +0.186 A 
ATOM      5  C   UNL     1      -2.681  -2.001  -2.889  0.00  0.00    +0.124 A 
ATOM      6  N   UNL     1      -4.033  -2.014  -2.676  0.00  0.00    -0.301 N 
ATOM      7  C   UNL     1      -4.789  -0.951  -3.005  0.00  0.00    +0.332 A 
ATOM      8  O   UNL     1      -5.988  -0.983  -2.807  0.00  0.00    -0.246 OA
ATOM      9  N   UNL     1      -4.236   0.149  -3.550  0.00  0.00    -0.262 N 
ATOM     10  C   UNL     1      -2.907   0.203  -3.771  0.00  0.00    +0.283 A 
ATOM     11  O   UNL     1      -2.405   1.200  -4.259  0.00  0.00    -0.265 OA
ATOM     12  C   UNL     1      -5.081   1.294  -3.899  0.00  0.00    +0.157 C 
ATOM     13  C   UNL     1      -4.663  -3.196  -2.083  0.00  0.00    +0.153 C 
ENDBRANCH   1   4
BRANCH   1  14
ATOM     14  N   UNL     1       0.304   0.093  -2.552  0.00  0.00    -0.175 NA
ATOM     15  C   UNL     1       0.350   1.545  -2.741  0.00  0.00    +0.132 C 
BRANCH  14  16
ATOM     16  C   UNL     1       0.847  -0.504  -1.329  0.00  0.00    +0.024 C 
ATOM     17  C   UNL     1      -0.209  -1.409  -0.691  0.00  0.00    +0.027 C 
BRANCH  16  19
ATOM     18  C   UNL     1       1.890  -0.012   0.888  0.00  0.00    +0.005 C 
ATOM     19  C   UNL     1       1.229   0.605  -0.346  0.00  0.00    +0.018 C 
ENDBRANCH  16  19
BRANCH  16  20
ATOM     20  C   UNL     1       2.087  -1.331  -1.672  0.00  0.00    -0.062 C 
BRANCH  20  21
ATOM     21  N   UNL     1       3.053  -0.489  -2.392  0.00  0.00    +0.379 N 
ATOM     22  H   UNL     1       2.606  -0.080  -3.199  0.00  0.00    -0.090 HD
ATOM     23  H   UNL     1       3.381   0.243  -1.781  0.00  0.00    -0.090 HD
ATOM     24  H   UNL     1       3.834  -1.054  -2.690  0.00  0.00    -0.090 HD
ENDBRANCH  20  21
ENDBRANCH  16  20
ENDBRANCH  14  16
ENDBRANCH   1  14
TORSDOF 6
