REMARK  Name = ZINC57227423
REMARK  6 active torsions:
REMARK  status: ('A' for Active; 'I' for Inactive)
REMARK    1  A    between atoms: C_1  and  C_2
REMARK    2  A    between atoms: C_2  and  C_4
REMARK    3  A    between atoms: C_2  and  N_12
REMARK    4  A    between atoms: C_13  and  C_15
REMARK    5  A    between atoms: C_15  and  C_16
REMARK    6  A    between atoms: C_19  and  C_21
REMARK                            x       y       z     vdW  Elec       q    Type
REMARK                         _______ _______ _______ _____ _____    ______ ____
ROOT
ATOM      1  N   UNL     1       0.767  -0.346   1.203  0.00  0.00    -0.304 N 
ATOM      2  C   UNL     1       2.109  -0.451   1.140  0.00  0.00    +0.219 C 
ATOM      3  O   UNL     1       2.683  -0.263   0.089  0.00  0.00    -0.275 OA
ATOM      4  H   UNL     1       0.308  -0.497   2.044  0.00  0.00    +0.149 HD
ENDROOT
BRANCH   1   6
ATOM      5  C   UNL     1      -0.033   1.518  -0.163  0.00  0.00    +0.038 C 
ATOM      6  C   UNL     1       0.002  -0.003   0.002  0.00  0.00    +0.156 C 
BRANCH   6   7
ATOM      7  C   UNL     1      -1.405  -0.526   0.137  0.00  0.00    +0.236 C 
ATOM      8  O   UNL     1      -1.838  -0.828   1.228  0.00  0.00    -0.274 OA
ATOM      9  N   UNL     1      -2.182  -0.659  -0.957  0.00  0.00    -0.300 N 
ATOM     10  C   UNL     1      -1.636  -0.410  -2.298  0.00  0.00    +0.108 C 
ATOM     11  C   UNL     1      -1.909  -1.635  -3.177  0.00  0.00    +0.019 C 
ATOM     12  C   UNL     1      -3.407  -1.948  -3.157  0.00  0.00    +0.003 C 
ATOM     13  C   UNL     1      -3.842  -2.274  -1.726  0.00  0.00    +0.019 C 
ATOM     14  C   UNL     1      -3.589  -1.063  -0.831  0.00  0.00    +0.108 C 
ENDBRANCH   6   7
ENDBRANCH   1   6
BRANCH   2  15
ATOM     15  C   UNL     1       2.896  -0.804   2.376  0.00  0.00    +0.151 C 
BRANCH  15  16
ATOM     16  C   UNL     1       4.364  -0.858   2.038  0.00  0.00    +0.058 A 
ATOM     17  C   UNL     1       5.255  -0.108   2.744  0.00  0.00    +0.071 A 
ATOM     18  S   UNL     1       6.783  -0.560   1.931  0.00  0.00    -0.072 S 
ATOM     19  C   UNL     1       6.071  -1.693   0.746  0.00  0.00    +0.145 A 
ATOM     20  N   UNL     1       4.786  -1.631   1.068  0.00  0.00    -0.240 NA
BRANCH  19  21
ATOM     21  C   UNL     1       6.736  -2.490  -0.307  0.00  0.00    +0.185 A 
ATOM     22  N   UNL     1       6.002  -3.273  -1.089  0.00  0.00    -0.234 NA
ATOM     23  C   UNL     1       6.566  -3.997  -2.039  0.00  0.00    +0.115 A 
ATOM     24  C   UNL     1       7.941  -3.933  -2.214  0.00  0.00    +0.039 A 
ATOM     25  C   UNL     1       8.678  -3.106  -1.379  0.00  0.00    +0.115 A 
ATOM     26  N   UNL     1       8.053  -2.403  -0.451  0.00  0.00    -0.234 NA
ENDBRANCH  19  21
ENDBRANCH  15  16
ENDBRANCH   2  15
TORSDOF 5
