REMARK  Name = ZINC42016237
REMARK  7 active torsions:
REMARK  status: ('A' for Active; 'I' for Inactive)
REMARK    1  A    between atoms: C_1  and  C_2
REMARK    2  A    between atoms: C_2  and  C_3
REMARK    3  A    between atoms: C_3  and  C_4
REMARK    4  A    between atoms: C_3  and  C_5
REMARK    5  A    between atoms: C_3  and  N_6
REMARK    6  A    between atoms: C_7  and  C_11
REMARK    7  A    between atoms: C_16  and  N_17
REMARK                            x       y       z     vdW  Elec       q    Type
REMARK                         _______ _______ _______ _____ _____    ______ ____
ROOT
ATOM      1  N   UNL     1       0.925  -1.469  -2.280  0.00  0.00    -0.219 N 
ATOM      2  C   UNL     1       1.698  -1.194  -3.361  0.00  0.00    +0.184 A 
ATOM      3  N   UNL     1       1.966  -2.342  -3.946  0.00  0.00    -0.108 NA
ATOM      4  N   UNL     1       1.416  -3.311  -3.307  0.00  0.00    -0.023 NA
ATOM      5  N   UNL     1       0.772  -2.866  -2.283  0.00  0.00    -0.043 NA
ENDROOT
BRANCH   2   6
ATOM      6  C   UNL     1       2.152   0.143  -3.799  0.00  0.00    +0.044 A 
ATOM      7  C   UNL     1       1.827   1.274  -3.050  0.00  0.00    +0.051 A 
ATOM      8  C   UNL     1       2.255   2.521  -3.464  0.00  0.00    +0.124 A 
ATOM      9  C   UNL     1       3.006   2.653  -4.622  0.00  0.00    +0.040 A 
ATOM     10  C   UNL     1       3.333   1.540  -5.371  0.00  0.00    +0.026 A 
ATOM     11  C   UNL     1       2.917   0.280  -4.965  0.00  0.00    +0.036 A 
ATOM     12  F   UNL     1       1.939   3.616  -2.738  0.00  0.00    -0.205 F 
BRANCH  11  13
ATOM     13  N   UNL     1       3.252  -0.845  -5.718  0.00  0.00    -0.357 N 
ATOM     14  H   UNL     1       2.957  -1.724  -5.434  0.00  0.00    +0.142 HD
ATOM     15  H   UNL     1       3.782  -0.748  -6.525  0.00  0.00    +0.142 HD
ENDBRANCH  11  13
ENDBRANCH   2   6
BRANCH   1  16
ATOM     16  C   UNL     1       0.374  -0.515  -1.314  0.00  0.00    +0.062 C 
ATOM     17  C   UNL     1      -0.489   0.513  -2.048  0.00  0.00    +0.036 C 
ATOM     18  C   UNL     1       1.519   0.200  -0.594  0.00  0.00    +0.036 C 
BRANCH  16  20
ATOM     19  C   UNL     1      -1.059  -0.268   0.718  0.00  0.00    +0.006 C 
ATOM     20  C   UNL     1      -0.483  -1.264  -0.291  0.00  0.00    +0.026 C 
ENDBRANCH  16  20
ENDBRANCH   1  16
TORSDOF 4
