REMARK  Name = ZINC09154896
REMARK  8 active torsions:
REMARK  status: ('A' for Active; 'I' for Inactive)
REMARK    1  A    between atoms: C_2  and  C_3
REMARK    2  A    between atoms: C_3  and  N_39
REMARK    3  A    between atoms: C_4  and  C_5
REMARK    4  A    between atoms: C_4  and  N_39
REMARK    5  A    between atoms: C_11  and  C_12
REMARK    6  A    between atoms: C_11  and  N_39
REMARK    7  A    between atoms: N_14  and  C_15
REMARK    8  A    between atoms: C_16  and  C_20
REMARK                            x       y       z     vdW  Elec       q    Type
REMARK                         _______ _______ _______ _____ _____    ______ ____
ROOT
ATOM      1  C   UNL     1       6.143  -0.817  -3.047  0.00  0.00    +0.201 C 
ATOM      2  O   UNL     1       5.306  -0.516  -3.871  0.00  0.00    -0.278 OA
ATOM      3  N   UNL     1       7.422  -1.010  -3.426  0.00  0.00    -0.281 N 
ATOM      4  H   UNL     1       8.092  -1.251  -2.768  0.00  0.00    +0.155 HD
ENDROOT
BRANCH   3   5
ATOM      5  C   UNL     1       7.780  -0.865  -4.758  0.00  0.00    +0.084 A 
ATOM      6  C   UNL     1       9.036  -1.015  -5.336  0.00  0.00    +0.065 A 
ATOM      7  C   UNL     1       9.123  -0.805  -6.761  0.00  0.00    +0.022 A 
ATOM      8  C   UNL     1       7.989  -0.474  -7.404  0.00  0.00    +0.048 A 
ATOM      9  S   UNL     1       6.774  -0.444  -6.103  0.00  0.00    -0.081 S 
BRANCH   6  10
ATOM     10  C   UNL     1      10.212  -1.372  -4.537  0.00  0.00    +0.244 C 
ATOM     11  O   UNL     1      10.104  -1.545  -3.337  0.00  0.00    -0.270 OA
ATOM     12  N   UNL     1      11.414  -1.510  -5.132  0.00  0.00    -0.325 N 
ATOM     13  H   UNL     1      11.500  -1.372  -6.088  0.00  0.00    +0.145 HD
ATOM     14  H   UNL     1      12.192  -1.746  -4.604  0.00  0.00    +0.145 HD
ENDBRANCH   6  10
ENDBRANCH   3   5
BRANCH   1  15
ATOM     15  C   UNL     1       5.754  -0.975  -1.600  0.00  0.00    +0.020 C 
BRANCH  15  16
ATOM     16  N   UNL     1       4.334  -0.595  -1.446  0.00  0.00    +0.391 N 
ATOM     17  H   UNL     1       3.791  -1.021  -2.206  0.00  0.00    -0.080 HD
BRANCH  16  18
ATOM     18  C   UNL     1       4.194   0.875  -1.522  0.00  0.00    -0.051 C 
BRANCH  18  20
ATOM     19  C   UNL     1       5.842   2.442  -0.633  0.00  0.00    +0.002 C 
ATOM     20  C   UNL     1       4.930   1.535  -0.385  0.00  0.00    -0.053 C 
ENDBRANCH  18  20
ENDBRANCH  16  18
BRANCH  16  21
ATOM     21  C   UNL     1       3.817  -1.086  -0.152  0.00  0.00    -0.034 C 
BRANCH  21  22
ATOM     22  C   UNL     1       2.325  -0.881  -0.115  0.00  0.00    -0.025 A 
ATOM     23  C   UNL     1       1.339  -1.715  -0.528  0.00  0.00    +0.011 A 
ATOM     24  C   UNL     1       0.022  -1.313  -0.397  0.00  0.00    +0.028 A 
ATOM     25  C   UNL     1      -0.243  -0.097   0.141  0.00  0.00    +0.078 A 
ATOM     26  S   UNL     1       1.397   0.522   0.482  0.00  0.00    -0.084 S 
ATOM     27 CL   UNL     1      -1.778   0.664   0.419  0.00  0.00    -0.076 Cl
ENDBRANCH  21  22
ENDBRANCH  16  21
ENDBRANCH  15  16
ENDBRANCH   1  15
TORSDOF 8
