REMARK  Name = ZINC06375812
REMARK  8 active torsions:
REMARK  status: ('A' for Active; 'I' for Inactive)
REMARK    1  A    between atoms: C_1  and  N_51
REMARK    2  A    between atoms: C_4  and  O_7
REMARK    3  A    between atoms: C_4  and  O_8
REMARK    4  A    between atoms: O_8  and  C_9
REMARK    5  A    between atoms: C_9  and  C_11
REMARK    6  A    between atoms: C_11  and  C_13
REMARK    7  A    between atoms: C_11  and  C_19
REMARK    8  A    between atoms: C_19  and  O_24
REMARK                            x       y       z     vdW  Elec       q    Type
REMARK                         _______ _______ _______ _____ _____    ______ ____
ROOT
ATOM      1  C   UNL     1       2.855  -0.677  -2.623  0.00  0.00    +0.159 C 
ENDROOT
BRANCH   1   2
ATOM      2  C   UNL     1       2.847  -2.184  -2.625  0.00  0.00    -0.031 A 
ATOM      3  C   UNL     1       1.647  -2.869  -2.643  0.00  0.00    +0.004 A 
ATOM      4  C   UNL     1       1.640  -4.251  -2.649  0.00  0.00    +0.000 A 
ATOM      5  C   UNL     1       2.833  -4.948  -2.628  0.00  0.00    +0.000 A 
ATOM      6  C   UNL     1       4.034  -4.263  -2.605  0.00  0.00    +0.000 A 
ATOM      7  C   UNL     1       4.041  -2.881  -2.603  0.00  0.00    +0.004 A 
ENDBRANCH   1   2
BRANCH   1   8
ATOM      8  C   UNL     1       2.160  -0.162  -3.886  0.00  0.00    +0.083 C 
ATOM      9  C   UNL     1       2.939  -0.612  -5.139  0.00  0.00    +0.036 C 
ATOM     10  C   UNL     1       2.828   0.591  -6.108  0.00  0.00    +0.003 C 
ATOM     11  C   UNL     1       2.940   1.808  -5.157  0.00  0.00    +0.003 C 
ATOM     12  C   UNL     1       2.161   1.377  -3.897  0.00  0.00    +0.036 C 
BRANCH   8  13
ATOM     13  O   UNL     1       0.819  -0.651  -3.940  0.00  0.00    -0.387 OA
ATOM     14  H   UNL     1       0.325  -0.359  -4.718  0.00  0.00    +0.210 HD
ENDBRANCH   8  13
ENDBRANCH   1   8
BRANCH   1  15
ATOM     15  C   UNL     1       2.123  -0.172  -1.406  0.00  0.00    +0.320 C 
ATOM     16  O   UNL     1       1.645  -0.956  -0.621  0.00  0.00    -0.250 OA
BRANCH  15  17
ATOM     17  O   UNL     1       2.003   1.148  -1.195  0.00  0.00    -0.432 OA
BRANCH  17  21
ATOM     18  C   UNL     1       0.652   3.595   3.706  0.00  0.00    -0.096 C 
ATOM     19  C   UNL     1       0.442   3.521   1.295  0.00  0.00    -0.073 C 
ATOM     20  C   UNL     1       1.146   3.087   0.008  0.00  0.00    +0.060 C 
ATOM     21  C   UNL     1       1.286   1.562  -0.002  0.00  0.00    +0.210 C 
ATOM     22  C   UNL     1       2.062   1.121   1.242  0.00  0.00    +0.060 C 
ATOM     23  C   UNL     1       1.332   1.612   2.494  0.00  0.00    -0.073 C 
ATOM     24  N   UNL     1       1.252   3.088   2.454  0.00  0.00    +0.378 N 
ATOM     25  H   UNL     1       2.200   3.471   2.360  0.00  0.00    -0.082 HD
BRANCH  21  26
ATOM     26  O   UNL     1      -0.011   0.963   0.007  0.00  0.00    -0.355 OA
ATOM     27  H   UNL     1       0.002  -0.004   0.002  0.00  0.00    +0.214 HD
ENDBRANCH  21  26
ENDBRANCH  17  21
ENDBRANCH  15  17
ENDBRANCH   1  15
TORSDOF 7
