REMARK  Name = ZINC00043079
REMARK  5 active torsions:
REMARK  status: ('A' for Active; 'I' for Inactive)
REMARK    1  A    between atoms: C_1  and  C_2
REMARK    2  A    between atoms: C_7  and  C_8
REMARK    3  A    between atoms: C_13  and  C_17
REMARK    4  A    between atoms: C_19  and  N_23
REMARK    5  A    between atoms: C_20  and  C_21
REMARK                            x       y       z     vdW  Elec       q    Type
REMARK                         _______ _______ _______ _____ _____    ______ ____
ROOT
ATOM      1  C   UNL     1      -0.335   1.166   0.003  0.00  0.00    +0.105 C 
ATOM      2  C   UNL     1       1.162   1.303  -0.017  0.00  0.00    +0.092 A 
ATOM      3  C   UNL     1       1.972   0.231   0.291  0.00  0.00    +0.144 A 
ATOM      4  C   UNL     1       3.373   0.417   0.257  0.00  0.00    +0.088 A 
ATOM      5  C   UNL     1       3.873   1.622  -0.074  0.00  0.00    +0.110 A 
ATOM      6  O   UNL     1       3.089   2.663  -0.373  0.00  0.00    -0.427 OA
ATOM      7  C   UNL     1       1.756   2.526  -0.351  0.00  0.00    +0.345 A 
ATOM      8  O   UNL     1       1.049   3.482  -0.625  0.00  0.00    -0.245 OA
ATOM      9  C   UNL     1       5.368   1.805  -0.107  0.00  0.00    +0.086 C 
ATOM     10  O   UNL     1       1.451  -0.969   0.618  0.00  0.00    -0.441 OA
ATOM     11  C   UNL     1       0.176  -1.255   0.300  0.00  0.00    +0.199 C 
ATOM     12  C   UNL     1      -0.721  -0.287  -0.002  0.00  0.00    +0.098 C 
ENDROOT
BRANCH   1  19
ATOM     13  C   UNL     1      -2.256   3.313  -0.222  0.00  0.00    +0.044 C 
ATOM     14  C   UNL     1      -1.799   2.850   1.137  0.00  0.00    -0.046 A 
ATOM     15  C   UNL     1      -2.301   3.450   2.277  0.00  0.00    +0.003 A 
ATOM     16  C   UNL     1      -1.879   3.029   3.524  0.00  0.00    +0.000 A 
ATOM     17  C   UNL     1      -0.956   2.005   3.631  0.00  0.00    +0.000 A 
ATOM     18  C   UNL     1      -0.456   1.403   2.492  0.00  0.00    +0.005 A 
ATOM     19  C   UNL     1      -0.880   1.823   1.245  0.00  0.00    -0.032 A 
ENDBRANCH   1  19
BRANCH  11  20
ATOM     20  N   UNL     1      -0.227  -2.566   0.282  0.00  0.00    -0.328 N 
ATOM     21  H   UNL     1      -1.144  -2.789   0.054  0.00  0.00    +0.145 HD
ATOM     22  H   UNL     1       0.404  -3.271   0.496  0.00  0.00    +0.145 HD
ENDBRANCH  11  20
BRANCH  12  23
ATOM     23  C   UNL     1      -2.065  -0.655  -0.333  0.00  0.00    +0.101 C 
ATOM     24  N   UNL     1      -3.131  -0.947  -0.596  0.00  0.00    -0.191 NA
ENDBRANCH  12  23
TORSDOF 3
