REMARK  Name = ZINC13567687
REMARK  6 active torsions:
REMARK  status: ('A' for Active; 'I' for Inactive)
REMARK    1  A    between atoms: C_1  and  C_2
REMARK    2  A    between atoms: C_2  and  C_3
REMARK    3  A    between atoms: C_3  and  N_4
REMARK    4  A    between atoms: C_14  and  C_33
REMARK    5  A    between atoms: C_15  and  N_32
REMARK    6  A    between atoms: N_16  and  C_24
REMARK                            x       y       z     vdW  Elec       q    Type
REMARK                         _______ _______ _______ _____ _____    ______ ____
ROOT
ATOM      1  N   UNL     1      -2.850   1.522   2.483  0.00  0.00    -0.270 N 
ATOM      2  C   UNL     1      -3.561   2.707   2.554  0.00  0.00    +0.041 A 
ATOM      3  C   UNL     1      -3.782   3.669   1.567  0.00  0.00    +0.024 A 
ATOM      4  C   UNL     1      -4.542   4.774   1.917  0.00  0.00    +0.002 A 
ATOM      5  C   UNL     1      -5.065   4.928   3.185  0.00  0.00    +0.000 A 
ATOM      6  C   UNL     1      -4.853   3.977   4.177  0.00  0.00    +0.007 A 
ATOM      7  C   UNL     1      -4.097   2.876   3.835  0.00  0.00    -0.001 A 
ATOM      8  C   UNL     1      -3.674   1.680   4.632  0.00  0.00    +0.141 C 
ATOM      9  C   UNL     1      -2.867   0.851   3.653  0.00  0.00    +0.240 C 
ATOM     10  O   UNL     1      -2.335  -0.215   3.879  0.00  0.00    -0.274 OA
ATOM     11  C   UNL     1      -2.816   2.087   5.792  0.00  0.00    +0.089 C 
ATOM     12  C   UNL     1      -3.306   2.073   7.060  0.00  0.00    +0.108 C 
ATOM     13  N   UNL     1      -4.602   1.675   7.294  0.00  0.00    -0.257 N 
ATOM     14  C   UNL     1      -5.282   0.926   6.370  0.00  0.00    +0.025 C 
ATOM     15  C   UNL     1      -4.877   0.893   5.081  0.00  0.00    +0.037 C 
ATOM     16  C   UNL     1      -5.566   0.127   4.125  0.00  0.00    +0.162 C 
ATOM     17  O   UNL     1      -5.167   0.106   2.978  0.00  0.00    -0.292 OA
ATOM     18  C   UNL     1      -6.788  -0.667   4.497  0.00  0.00    +0.080 C 
ATOM     19  C   UNL     1      -7.487   0.016   5.677  0.00  0.00    +0.014 C 
ATOM     20  C   UNL     1      -6.485   0.140   6.828  0.00  0.00    +0.052 C 
ENDROOT
BRANCH  13  21
ATOM     21  C   UNL     1      -5.234   2.039   8.491  0.00  0.00    +0.075 A 
ATOM     22  C   UNL     1      -5.150   1.211   9.602  0.00  0.00    +0.029 A 
ATOM     23  C   UNL     1      -5.769   1.574  10.782  0.00  0.00    +0.040 A 
ATOM     24  C   UNL     1      -6.484   2.759  10.855  0.00  0.00    +0.126 A 
ATOM     25  C   UNL     1      -6.574   3.585   9.748  0.00  0.00    +0.078 A 
ATOM     26  C   UNL     1      -5.951   3.228   8.566  0.00  0.00    +0.148 A 
ATOM     27  F   UNL     1      -6.039   4.034   7.485  0.00  0.00    -0.203 F 
ATOM     28  F   UNL     1      -7.093   3.108  12.009  0.00  0.00    -0.205 F 
ENDBRANCH  13  21
BRANCH  12  29
ATOM     29  N   UNL     1      -2.506   2.457   8.109  0.00  0.00    -0.345 N 
ATOM     30  H   UNL     1      -2.854   2.447   9.014  0.00  0.00    +0.144 HD
ATOM     31  H   UNL     1      -1.592   2.738   7.945  0.00  0.00    +0.144 HD
ENDBRANCH  12  29
BRANCH  11  32
ATOM     32  C   UNL     1      -1.463   2.495   5.561  0.00  0.00    +0.100 C 
ATOM     33  N   UNL     1      -0.390   2.820   5.379  0.00  0.00    -0.191 NA
ENDBRANCH  11  32
BRANCH   1  34
ATOM     34  C   UNL     1      -2.164   1.050   1.278  0.00  0.00    +0.113 C 
BRANCH  34  36
ATOM     35  C   UNL     1      -0.013   1.086   0.008  0.00  0.00    +0.005 C 
ATOM     36  C   UNL     1      -0.729   1.579   1.267  0.00  0.00    +0.016 C 
ENDBRANCH  34  36
ENDBRANCH   1  34
TORSDOF 5
