REMARK  Name = ZINC43933405
REMARK  9 active torsions:
REMARK  status: ('A' for Active; 'I' for Inactive)
REMARK    1  A    between atoms: C_1  and  C_2
REMARK    2  A    between atoms: C_2  and  C_4
REMARK    3  A    between atoms: C_2  and  N_12
REMARK    4  A    between atoms: C_4  and  N_6
REMARK    5  A    between atoms: C_13  and  O_15
REMARK    6  A    between atoms: O_15  and  C_16
REMARK    7  A    between atoms: C_16  and  C_17
REMARK    8  A    between atoms: C_16  and  C_18
REMARK    9  A    between atoms: C_16  and  C_19
REMARK                            x       y       z     vdW  Elec       q    Type
REMARK                         _______ _______ _______ _____ _____    ______ ____
ROOT
ATOM      1  C   UNL     1      -0.019   1.526   0.010  0.00  0.00    +0.038 C 
ATOM      2  C   UNL     1       0.002  -0.004   0.002  0.00  0.00    +0.161 C 
ENDROOT
BRANCH   2   3
ATOM      3  N   UNL     1      -1.372  -0.511   0.012  0.00  0.00    -0.270 N 
ATOM      4  C   UNL     1      -2.029  -0.655   1.181  0.00  0.00    +0.401 C 
ATOM      5  O   UNL     1      -1.480  -0.364   2.225  0.00  0.00    -0.226 OA
ATOM      6  H   UNL     1      -1.810  -0.743  -0.822  0.00  0.00    +0.153 HD
BRANCH   4   7
ATOM      7  O   UNL     1      -3.292  -1.121   1.190  0.00  0.00    -0.445 OA
BRANCH   7   8
ATOM      8  C   UNL     1      -3.927  -1.248   2.464  0.00  0.00    +0.107 C 
ATOM      9  C   UNL     1      -3.989   0.122   3.142  0.00  0.00    +0.055 C 
ATOM     10  C   UNL     1      -5.346  -1.789   2.275  0.00  0.00    +0.055 C 
ATOM     11  C   UNL     1      -3.125  -2.215   3.339  0.00  0.00    +0.055 C 
ENDBRANCH   7   8
ENDBRANCH   4   7
ENDBRANCH   2   3
BRANCH   2  12
ATOM     12  C   UNL     1       0.707  -0.490  -1.238  0.00  0.00    +0.258 C 
ATOM     13  O   UNL     1       0.119  -1.193  -2.036  0.00  0.00    -0.272 OA
BRANCH  12  14
ATOM     14  N   UNL     1       1.975  -0.150  -1.459  0.00  0.00    -0.158 NA
ATOM     15  C   UNL     1       2.596  -0.578  -2.551  0.00  0.00    +0.146 C 
ATOM     16  N   UNL     1       3.878  -0.314  -2.895  0.00  0.00    -0.325 N 
ATOM     17  C   UNL     1       4.424  -0.852  -4.124  0.00  0.00    +0.114 C 
ATOM     18  C   UNL     1       3.373  -1.693  -4.880  0.00  0.00    +0.095 C 
ATOM     19  S   UNL     1       1.936  -1.549  -3.748  0.00  0.00    -0.092 S 
ATOM     20  H   UNL     1       4.431   0.236  -2.318  0.00  0.00    +0.148 HD
ENDBRANCH  12  14
ENDBRANCH   2  12
TORSDOF 5
