REMARK  Name = ZINC37706851
REMARK  8 active torsions:
REMARK  status: ('A' for Active; 'I' for Inactive)
REMARK    1  A    between atoms: C_1  and  C_2
REMARK    2  A    between atoms: C_2  and  N_3
REMARK    3  A    between atoms: N_3  and  C_4
REMARK    4  A    between atoms: C_4  and  C_6
REMARK    5  A    between atoms: C_4  and  C_7
REMARK    6  A    between atoms: C_12  and  O_13
REMARK    7  A    between atoms: O_13  and  C_14
REMARK    8  A    between atoms: C_21  and  O_23
REMARK                            x       y       z     vdW  Elec       q    Type
REMARK                         _______ _______ _______ _____ _____    ______ ____
ROOT
ATOM      1  C   UNL     1       1.513  -2.559  -2.389  0.00  0.00    -0.020 A 
ATOM      2  C   UNL     1       2.575  -1.880  -2.956  0.00  0.00    +0.005 A 
ATOM      3  C   UNL     1       3.287  -2.452  -3.994  0.00  0.00    +0.000 A 
ATOM      4  C   UNL     1       2.940  -3.704  -4.467  0.00  0.00    +0.004 A 
ATOM      5  C   UNL     1       1.880  -4.387  -3.903  0.00  0.00    +0.046 A 
ATOM      6  C   UNL     1       1.166  -3.817  -2.858  0.00  0.00    +0.123 A 
ENDROOT
BRANCH   1   7
ATOM      7  C   UNL     1       0.736  -1.935  -1.259  0.00  0.00    -0.041 C 
ATOM      8  C   UNL     1       1.298  -2.425   0.077  0.00  0.00    -0.009 C 
BRANCH   7   9
ATOM      9  N   UNL     1       0.855  -0.472  -1.332  0.00  0.00    +0.383 N 
ATOM     10  H   UNL     1       0.561  -0.156  -2.244  0.00  0.00    -0.085 HD
ATOM     11  H   UNL     1       1.815  -0.204  -1.176  0.00  0.00    -0.085 HD
BRANCH   9  13
ATOM     12  C   UNL     1       0.125   1.663  -0.381  0.00  0.00    -0.017 C 
ATOM     13  C   UNL     1       0.002   0.140  -0.304  0.00  0.00    -0.085 C 
ENDBRANCH   9  13
ENDBRANCH   7   9
ENDBRANCH   1   7
BRANCH   6  14
ATOM     14  O   UNL     1       0.126  -4.489  -2.298  0.00  0.00    -0.484 OA
BRANCH  14  15
ATOM     15  C   UNL     1      -0.253  -5.724  -2.909  0.00  0.00    +0.224 C 
ATOM     16  C   UNL     1       0.700  -6.834  -2.412  0.00  0.00    +0.213 C 
ATOM     17  S   UNL     1      -0.319  -7.617  -1.087  0.00  0.00    -0.025 S 
ATOM     18  O   UNL     1      -0.062  -9.014  -1.059  0.00  0.00    -0.174 OA
ATOM     19  O   UNL     1      -0.205  -6.855   0.107  0.00  0.00    -0.174 OA
ATOM     20  C   UNL     1      -1.972  -7.315  -1.851  0.00  0.00    +0.201 C 
ATOM     21  C   UNL     1      -1.718  -5.990  -2.598  0.00  0.00    +0.177 C 
BRANCH  21  22
ATOM     22  O   UNL     1      -2.447  -6.017  -3.827  0.00  0.00    -0.386 OA
ATOM     23  H   UNL     1      -3.394  -6.181  -3.719  0.00  0.00    +0.210 HD
ENDBRANCH  21  22
ENDBRANCH  14  15
ENDBRANCH   6  14
TORSDOF 6
