REMARK  Name = ZINC42516079
REMARK  7 active torsions:
REMARK  status: ('A' for Active; 'I' for Inactive)
REMARK    1  A    between atoms: C_1  and  C_2
REMARK    2  A    between atoms: C_2  and  C_3
REMARK    3  A    between atoms: C_6  and  N_9
REMARK    4  A    between atoms: N_9  and  C_10
REMARK    5  A    between atoms: N_9  and  C_11
REMARK    6  A    between atoms: C_11  and  C_12
REMARK    7  A    between atoms: C_12  and  C_13
REMARK                            x       y       z     vdW  Elec       q    Type
REMARK                         _______ _______ _______ _____ _____    ______ ____
ROOT
ATOM      1  N   UNL     1       1.539  -2.640   4.856  0.00  0.00    +0.380 N 
ATOM      2  C   UNL     1       1.663  -4.102   4.788  0.00  0.00    -0.096 C 
ATOM      3  H   UNL     1       2.458  -2.225   4.892  0.00  0.00    -0.082 HD
ENDROOT
BRANCH   1   7
ATOM      4  C   UNL     1       0.742  -0.511   1.242  0.00  0.00    -0.011 C 
ATOM      5  C   UNL     1      -0.042  -0.124   2.497  0.00  0.00    +0.002 C 
ATOM      6  C   UNL     1       0.698  -0.630   3.737  0.00  0.00    -0.015 C 
ATOM      7  C   UNL     1       0.828  -2.153   3.666  0.00  0.00    -0.069 C 
ATOM      8  C   UNL     1       1.612  -2.541   2.410  0.00  0.00    -0.015 C 
ATOM      9  C   UNL     1       0.872  -2.034   1.171  0.00  0.00    +0.002 C 
BRANCH   4  11
ATOM     10  C   UNL     1      -0.019   1.526   0.010  0.00  0.00    +0.004 C 
ATOM     11  C   UNL     1       0.002  -0.004   0.002  0.00  0.00    -0.000 C 
ENDBRANCH   4  11
ENDBRANCH   1   7
BRANCH   1  12
ATOM     12  C   UNL     1       0.786  -2.268   6.062  0.00  0.00    -0.080 C 
BRANCH  12  13
ATOM     13  C   UNL     1       1.586  -2.664   7.304  0.00  0.00    -0.034 C 
BRANCH  13  14
ATOM     14  C   UNL     1       0.802  -2.277   8.560  0.00  0.00    -0.074 C 
ATOM     15  C   UNL     1       1.542  -2.785   9.800  0.00  0.00    -0.016 C 
ATOM     16  C   UNL     1       0.754  -2.396  11.053  0.00  0.00    -0.003 C 
ATOM     17  C   UNL     1       0.565  -0.876  11.073  0.00  0.00    -0.019 C 
ATOM     18  C   UNL     1      -0.139  -0.439   9.787  0.00  0.00    -0.082 C 
ATOM     19  N   UNL     1       0.677  -0.816   8.627  0.00  0.00    +0.381 N 
ATOM     20  H   UNL     1       1.594  -0.404   8.713  0.00  0.00    -0.086 HD
ATOM     21  H   UNL     1       0.237  -0.479   7.784  0.00  0.00    -0.086 HD
ENDBRANCH  13  14
ENDBRANCH  12  13
ENDBRANCH   1  12
TORSDOF 5
