REMARK  Name = ZINC08184736
REMARK  10 active torsions:
REMARK  status: ('A' for Active; 'I' for Inactive)
REMARK    1  A    between atoms: C_1  and  C_2
REMARK    2  A    between atoms: C_2  and  C_3
REMARK    3  A    between atoms: C_3  and  N_4
REMARK    4  A    between atoms: C_5  and  N_31
REMARK    5  A    between atoms: C_6  and  C_13
REMARK    6  A    between atoms: C_13  and  C_15
REMARK    7  A    between atoms: C_15  and  N_60
REMARK    8  A    between atoms: C_21  and  C_23
REMARK    9  A    between atoms: C_26  and  O_29
REMARK   10  A    between atoms: O_29  and  C_30
REMARK                            x       y       z     vdW  Elec       q    Type
REMARK                         _______ _______ _______ _____ _____    ______ ____
ROOT
ATOM      1  C   UNL     1      -0.711   3.539  -1.120  0.00  0.00    +0.155 C 
ATOM      2  O   UNL     1      -0.356   4.041  -0.072  0.00  0.00    -0.294 OA
ENDROOT
BRANCH   1   5
ATOM      3  N   UNL     1      -3.036   6.083  -2.429  0.00  0.00    -0.281 N 
ATOM      4  C   UNL     1      -2.119   5.486  -1.611  0.00  0.00    +0.116 A 
ATOM      5  C   UNL     1      -1.661   4.197  -1.931  0.00  0.00    +0.118 A 
ATOM      6  C   UNL     1      -2.207   3.552  -3.132  0.00  0.00    +0.266 A 
ATOM      7  O   UNL     1      -1.850   2.434  -3.455  0.00  0.00    -0.267 OA
ATOM      8  N   UNL     1      -3.113   4.226  -3.871  0.00  0.00    -0.274 N 
ATOM      9  H   UNL     1      -3.494   3.800  -4.692  0.00  0.00    +0.173 HD
ATOM     10  C   UNL     1      -3.510   5.459  -3.518  0.00  0.00    +0.331 A 
ATOM     11  O   UNL     1      -4.328   6.031  -4.212  0.00  0.00    -0.246 OA
BRANCH   4  12
ATOM     12  N   UNL     1      -1.654   6.131  -0.507  0.00  0.00    -0.344 N 
ATOM     13  H   UNL     1      -0.785   5.902  -0.142  0.00  0.00    +0.144 HD
ATOM     14  H   UNL     1      -2.192   6.820  -0.085  0.00  0.00    +0.144 HD
ENDBRANCH   4  12
BRANCH   3  15
ATOM     15  C   UNL     1      -3.516   7.429  -2.107  0.00  0.00    +0.128 C 
BRANCH  15  17
ATOM     16  C   UNL     1      -5.250   8.735  -0.869  0.00  0.00    +0.005 C 
ATOM     17  C   UNL     1      -4.748   7.329  -1.206  0.00  0.00    +0.018 C 
ENDBRANCH  15  17
ENDBRANCH   3  15
ENDBRANCH   1   5
BRANCH   1  18
ATOM     18  C   UNL     1      -0.136   2.216  -1.555  0.00  0.00    +0.003 C 
BRANCH  18  25
ATOM     19  C   UNL     1       1.942   2.694  -0.396  0.00  0.00    -0.077 C 
ATOM     20  C   UNL     1       2.444   2.602   1.024  0.00  0.00    -0.019 C 
ATOM     21  C   UNL     1       3.637   1.638   1.142  0.00  0.00    -0.002 C 
ATOM     22  C   UNL     1       3.439   0.369   0.289  0.00  0.00    -0.001 C 
ATOM     23  C   UNL     1       2.032  -0.166   0.363  0.00  0.00    -0.011 C 
ATOM     24  C   UNL     1       1.206   0.423  -0.800  0.00  0.00    -0.037 C 
ATOM     25  N   UNL     1       0.788   1.748  -0.506  0.00  0.00    +0.389 N 
ATOM     26  H   UNL     1       0.292   1.737   0.393  0.00  0.00    -0.080 HD
BRANCH  24  27
ATOM     27  C   UNL     1      -0.029  -0.416  -1.002  0.00  0.00    -0.061 A 
ATOM     28  C   UNL     1      -1.139  -0.215  -0.202  0.00  0.00    +0.005 A 
ATOM     29  C   UNL     1      -2.274  -0.980  -0.388  0.00  0.00    +0.046 A 
ATOM     30  C   UNL     1      -2.296  -1.958  -1.371  0.00  0.00    +0.120 A 
ATOM     31  C   UNL     1      -1.179  -2.162  -2.169  0.00  0.00    +0.046 A 
ATOM     32  C   UNL     1      -0.049  -1.391  -1.982  0.00  0.00    +0.005 A 
BRANCH  30  33
ATOM     33  O   UNL     1      -3.410  -2.716  -1.553  0.00  0.00    -0.495 OA
ATOM     34  C   UNL     1      -4.522  -2.450  -0.695  0.00  0.00    +0.277 C 
ENDBRANCH  30  33
ENDBRANCH  24  27
ENDBRANCH  18  25
ENDBRANCH   1  18
TORSDOF 8
