REMARK  Name = ZINC29763909
REMARK  8 active torsions:
REMARK  status: ('A' for Active; 'I' for Inactive)
REMARK    1  A    between atoms: C_1  and  C_2
REMARK    2  A    between atoms: N_8  and  C_9
REMARK    3  A    between atoms: C_10  and  C_11
REMARK    4  A    between atoms: C_10  and  N_19
REMARK    5  A    between atoms: N_13  and  N_14
REMARK    6  A    between atoms: N_16  and  C_17
REMARK    7  A    between atoms: N_16  and  C_18
REMARK    8  A    between atoms: C_20  and  C_22
REMARK                            x       y       z     vdW  Elec       q    Type
REMARK                         _______ _______ _______ _____ _____    ______ ____
ROOT
ATOM      1  C   UNL     1      -0.980   0.185  -0.362  0.00  0.00    +0.103 C 
ATOM      2  C   UNL     1      -0.505  -1.061  -0.145  0.00  0.00    +0.112 C 
ENDROOT
BRANCH   1  10
ATOM      3  C   UNL     1       0.808   5.911  -1.054  0.00  0.00    +0.066 C 
ATOM      4  C   UNL     1      -0.171   4.777  -0.890  0.00  0.00    +0.043 A 
ATOM      5  C   UNL     1      -1.534   5.026  -0.858  0.00  0.00    +0.043 A 
ATOM      6  C   UNL     1      -2.400   3.955  -0.705  0.00  0.00    +0.116 A 
ATOM      7  N   UNL     1      -1.903   2.734  -0.596  0.00  0.00    -0.223 NA
ATOM      8  C   UNL     1      -0.594   2.530  -0.631  0.00  0.00    +0.219 A 
ATOM      9  N   UNL     1       0.261   3.533  -0.771  0.00  0.00    -0.220 NA
ATOM     10  N   UNL     1      -0.107   1.237  -0.514  0.00  0.00    -0.288 N 
ATOM     11  H   UNL     1       0.977   1.053  -0.541  0.00  0.00    +0.155 HD
ENDBRANCH   1  10
BRANCH   2  12
ATOM     12  C   UNL     1       0.936  -1.311  -0.184  0.00  0.00    +0.277 C 
ATOM     13  O   UNL     1       1.586  -1.290   0.846  0.00  0.00    -0.267 OA
ATOM     14  N   UNL     1       1.544  -1.565  -1.360  0.00  0.00    -0.224 N 
ATOM     15  H   UNL     1       0.958  -1.584  -2.290  0.00  0.00    +0.175 HD
BRANCH  14  16
ATOM     16  N   UNL     1       2.924  -1.804  -1.397  0.00  0.00    -0.298 N 
ATOM     17  C   UNL     1       3.529  -1.926  -2.535  0.00  0.00    +0.172 C 
ATOM     18  N   UNL     1       3.016  -1.309  -3.661  0.00  0.00    -0.328 N 
ATOM     19  C   UNL     1       1.886  -0.384  -3.538  0.00  0.00    +0.129 C 
ATOM     20  C   UNL     1       3.601  -1.581  -4.976  0.00  0.00    +0.129 C 
ATOM     21  H   UNL     1       3.494  -1.889  -0.460  0.00  0.00    +0.185 HD
ENDBRANCH  14  16
ENDBRANCH   2  12
BRANCH   2  22
ATOM     22  N   UNL     1      -1.395  -2.118   0.119  0.00  0.00    -0.276 N 
ATOM     23  C   UNL     1      -0.934  -3.380   0.214  0.00  0.00    +0.248 C 
ATOM     24  O   UNL     1       0.262  -3.595   0.169  0.00  0.00    -0.270 OA
ATOM     25  H   UNL     1      -2.469  -1.913   0.247  0.00  0.00    +0.155 HD
BRANCH  23  26
ATOM     26  C   UNL     1      -1.881  -4.503   0.375  0.00  0.00    +0.037 A 
ATOM     27  C   UNL     1      -3.254  -4.260   0.433  0.00  0.00    +0.013 A 
ATOM     28  C   UNL     1      -4.133  -5.313   0.579  0.00  0.00    +0.001 A 
ATOM     29  C   UNL     1      -3.656  -6.608   0.676  0.00  0.00    +0.000 A 
ATOM     30  C   UNL     1      -2.296  -6.856   0.624  0.00  0.00    +0.001 A 
ATOM     31  C   UNL     1      -1.406  -5.812   0.474  0.00  0.00    +0.013 A 
ENDBRANCH  23  26
ENDBRANCH   2  22
TORSDOF 5
