REMARK  Name = ZINC00111513
REMARK  6 active torsions:
REMARK  status: ('A' for Active; 'I' for Inactive)
REMARK    1  A    between atoms: C_1  and  N_2
REMARK    2  A    between atoms: N_11  and  C_12
REMARK    3  A    between atoms: C_12  and  C_13
REMARK    4  A    between atoms: C_17  and  O_20
REMARK    5  A    between atoms: C_18  and  O_19
REMARK    6  A    between atoms: O_20  and  C_21
REMARK                            x       y       z     vdW  Elec       q    Type
REMARK                         _______ _______ _______ _____ _____    ______ ____
ROOT
ATOM      1  C   UNL     1      -0.018   1.461   0.010  0.00  0.00    +0.152 C 
ATOM      2  N   UNL     1       0.002  -0.004   0.002  0.00  0.00    -0.317 N 
ATOM      3  C   UNL     1       0.008  -0.820  -1.118  0.00  0.00    +0.068 A 
ATOM      4  C   UNL     1      -0.002  -0.578  -2.483  0.00  0.00    +0.028 A 
ATOM      5  C   UNL     1       0.008  -1.636  -3.368  0.00  0.00    +0.002 A 
ATOM      6  C   UNL     1       0.028  -2.942  -2.901  0.00  0.00    +0.002 A 
ATOM      7  C   UNL     1       0.037  -3.201  -1.549  0.00  0.00    +0.028 A 
ATOM      8  C   UNL     1       0.028  -2.140  -0.639  0.00  0.00    +0.065 A 
ATOM      9  N   UNL     1       0.033  -2.073   0.718  0.00  0.00    -0.327 N 
ATOM     10  C   UNL     1       0.024  -0.820   1.097  0.00  0.00    +0.174 A 
ATOM     11  N   UNL     1       0.032  -0.388   2.406  0.00  0.00    -0.312 N 
ATOM     12  H   UNL     1       0.021   0.562   2.604  0.00  0.00    +0.149 HD
ATOM     13  H   UNL     1       0.046  -2.838   1.315  0.00  0.00    +0.169 HD
ENDROOT
BRANCH  11  14
ATOM     14  C   UNL     1       0.056  -1.363   3.499  0.00  0.00    +0.143 C 
BRANCH  14  15
ATOM     15  C   UNL     1       0.060  -0.638   4.820  0.00  0.00    +0.015 A 
ATOM     16  C   UNL     1       1.245  -0.467   5.511  0.00  0.00    +0.009 A 
ATOM     17  C   UNL     1       1.252   0.198   6.723  0.00  0.00    +0.004 A 
ATOM     18  C   UNL     1       0.074   0.695   7.250  0.00  0.00    +0.049 A 
ATOM     19  C   UNL     1      -1.117   0.527   6.562  0.00  0.00    +0.162 A 
ATOM     20  C   UNL     1      -1.123  -0.137   5.339  0.00  0.00    +0.163 A 
BRANCH  20  21
ATOM     21  O   UNL     1      -2.289  -0.300   4.658  0.00  0.00    -0.503 OA
ATOM     22  H   UNL     1      -2.765  -1.111   4.881  0.00  0.00    +0.292 HD
ENDBRANCH  20  21
BRANCH  19  23
ATOM     23  O   UNL     1      -2.276   1.015   7.079  0.00  0.00    -0.491 OA
ATOM     24  C   UNL     1      -2.193   1.691   8.335  0.00  0.00    +0.277 C 
ENDBRANCH  19  23
ENDBRANCH  14  15
ENDBRANCH  11  14
TORSDOF 4
