REMARK  Name = ZINC55194774
REMARK  9 active torsions:
REMARK  status: ('A' for Active; 'I' for Inactive)
REMARK    1  A    between atoms: C_1  and  C_2
REMARK    2  A    between atoms: C_5  and  C_8
REMARK    3  A    between atoms: C_8  and  C_9
REMARK    4  A    between atoms: C_8  and  C_10
REMARK    5  A    between atoms: C_8  and  N_20
REMARK    6  A    between atoms: C_13  and  O_18
REMARK    7  A    between atoms: C_14  and  O_16
REMARK    8  A    between atoms: O_16  and  C_17
REMARK    9  A    between atoms: O_18  and  C_19
REMARK                            x       y       z     vdW  Elec       q    Type
REMARK                         _______ _______ _______ _____ _____    ______ ____
ROOT
ATOM      1  C   UNL     1       0.059  -4.275  -0.021  0.00  0.00    -0.022 C 
ATOM      2  C   UNL     1      -1.395  -4.710   0.168  0.00  0.00    -0.001 C 
ENDROOT
BRANCH   1   7
ATOM      3  C   UNL     1       0.336   1.493  -0.241  0.00  0.00    +0.044 C 
ATOM      4  C   UNL     1       0.264  -0.012  -0.184  0.00  0.00    -0.050 A 
ATOM      5  C   UNL     1      -0.584  -0.629   0.717  0.00  0.00    +0.003 A 
ATOM      6  C   UNL     1      -0.650  -2.009   0.769  0.00  0.00    +0.003 A 
ATOM      7  C   UNL     1       0.131  -2.771  -0.079  0.00  0.00    -0.055 A 
ATOM      8  C   UNL     1       0.978  -2.154  -0.981  0.00  0.00    +0.003 A 
ATOM      9  C   UNL     1       1.041  -0.774  -1.036  0.00  0.00    +0.003 A 
ENDBRANCH   1   7
BRANCH   1  10
ATOM     10  C   UNL     1       0.887  -4.773   1.135  0.00  0.00    -0.051 A 
ATOM     11  C   UNL     1       0.469  -4.543   2.433  0.00  0.00    +0.006 A 
ATOM     12  C   UNL     1       1.224  -4.998   3.497  0.00  0.00    +0.049 A 
ATOM     13  C   UNL     1       2.404  -5.687   3.265  0.00  0.00    +0.161 A 
ATOM     14  C   UNL     1       2.825  -5.919   1.959  0.00  0.00    +0.162 A 
ATOM     15  C   UNL     1       2.061  -5.464   0.896  0.00  0.00    +0.052 A 
BRANCH  14  16
ATOM     16  O   UNL     1       3.983  -6.594   1.726  0.00  0.00    -0.491 OA
ATOM     17  C   UNL     1       4.353  -6.795   0.360  0.00  0.00    +0.277 C 
ENDBRANCH  14  16
BRANCH  13  18
ATOM     18  O   UNL     1       3.149  -6.135   4.311  0.00  0.00    -0.491 OA
ATOM     19  C   UNL     1       2.656  -5.860   5.623  0.00  0.00    +0.277 C 
ENDBRANCH  13  18
ENDBRANCH   1  10
BRANCH   1  20
ATOM     20  N   UNL     1       0.580  -4.839  -1.274  0.00  0.00    +0.387 N 
ATOM     21  H   UNL     1       1.539  -4.552  -1.399  0.00  0.00    -0.088 HD
ATOM     22  H   UNL     1       0.532  -5.846  -1.236  0.00  0.00    -0.088 HD
ATOM     23  H   UNL     1       0.025  -4.505  -2.049  0.00  0.00    -0.088 HD
ENDBRANCH   1  20
TORSDOF 5
