REMARK  Name = ZINC41681725
REMARK  8 active torsions:
REMARK  status: ('A' for Active; 'I' for Inactive)
REMARK    1  A    between atoms: C_1  and  C_2
REMARK    2  A    between atoms: N_5  and  S_11
REMARK    3  A    between atoms: C_7  and  C_9
REMARK    4  A    between atoms: C_7  and  C_10
REMARK    5  A    between atoms: S_11  and  C_14
REMARK    6  A    between atoms: C_18  and  C_20
REMARK    7  A    between atoms: C_20  and  C_22
REMARK    8  A    between atoms: C_20  and  N_23
REMARK                            x       y       z     vdW  Elec       q    Type
REMARK                         _______ _______ _______ _____ _____    ______ ____
ROOT
ATOM      1  S   UNL     1       0.438  -2.962  -2.386  0.00  0.00    +0.061 S 
ATOM      2  O   UNL     1       0.199  -4.236  -1.805  0.00  0.00    -0.153 OA
ATOM      3  O   UNL     1      -0.552  -2.266  -3.131  0.00  0.00    -0.153 OA
ENDROOT
BRANCH   1   7
ATOM      4  C   UNL     1      -0.019   1.526   0.010  0.00  0.00    +0.039 C 
ATOM      5  C   UNL     1       0.002  -0.004   0.002  0.00  0.00    +0.132 C 
ATOM      6  C   UNL     1       0.722  -0.499  -1.258  0.00  0.00    +0.140 C 
ATOM      7  N   UNL     1       0.894  -1.957  -1.151  0.00  0.00    -0.171 NA
ATOM      8  C   UNL     1       1.483  -2.495   0.085  0.00  0.00    +0.144 C 
ATOM      9  C   UNL     1       0.726  -1.903   1.280  0.00  0.00    +0.079 C 
ATOM     10  O   UNL     1       0.695  -0.479   1.159  0.00  0.00    -0.368 OA
ATOM     11  C   UNL     1       1.437  -2.290   2.578  0.00  0.00    +0.042 C 
ATOM     12  C   UNL     1      -0.705  -2.444   1.298  0.00  0.00    +0.042 C 
ENDBRANCH   1   7
BRANCH   1  13
ATOM     13  C   UNL     1       1.831  -3.146  -3.449  0.00  0.00    +0.106 A 
ATOM     14  C   UNL     1       2.020  -2.268  -4.500  0.00  0.00    +0.028 A 
ATOM     15  C   UNL     1       3.113  -2.412  -5.333  0.00  0.00    +0.002 A 
ATOM     16  C   UNL     1       4.017  -3.435  -5.116  0.00  0.00    +0.002 A 
ATOM     17  C   UNL     1       3.829  -4.312  -4.065  0.00  0.00    -0.060 A 
ATOM     18  C   UNL     1       2.738  -4.165  -3.229  0.00  0.00    +0.030 A 
BRANCH  17  19
ATOM     19  C   UNL     1       4.815  -5.427  -3.829  0.00  0.00    -0.047 C 
ATOM     20  C   UNL     1       4.524  -6.579  -4.792  0.00  0.00    -0.009 C 
BRANCH  19  21
ATOM     21  N   UNL     1       6.179  -4.931  -4.057  0.00  0.00    +0.382 N 
ATOM     22  H   UNL     1       6.372  -4.171  -3.421  0.00  0.00    -0.089 HD
ATOM     23  H   UNL     1       6.839  -5.678  -3.898  0.00  0.00    -0.089 HD
ATOM     24  H   UNL     1       6.263  -4.604  -5.008  0.00  0.00    -0.089 HD
ENDBRANCH  19  21
ENDBRANCH  17  19
ENDBRANCH   1  13
TORSDOF 4
