REMARK  Name = ZINC37156995
REMARK  12 active torsions:
REMARK  status: ('A' for Active; 'I' for Inactive)
REMARK    1  A    between atoms: C_1  and  C_2
REMARK    2  A    between atoms: C_2  and  C_3
REMARK    3  A    between atoms: C_3  and  C_4
REMARK    4  A    between atoms: C_3  and  C_5
REMARK    5  A    between atoms: C_3  and  C_6
REMARK    6  A    between atoms: C_10  and  C_20
REMARK    7  A    between atoms: C_12  and  N_15
REMARK    8  A    between atoms: N_15  and  C_16
REMARK    9  A    between atoms: N_15  and  C_18
REMARK   10  A    between atoms: C_16  and  C_17
REMARK   11  A    between atoms: C_18  and  C_19
REMARK   12  A    between atoms: C_20  and  N_21
REMARK                            x       y       z     vdW  Elec       q    Type
REMARK                         _______ _______ _______ _____ _____    ______ ____
ROOT
ATOM      1  C   UNL     1       1.074  -1.852  -1.185  0.00  0.00    -0.007 C 
ATOM      2  C   UNL     1       1.900  -2.376  -0.008  0.00  0.00    +0.004 C 
ATOM      3  C   UNL     1       1.748  -3.895   0.086  0.00  0.00    +0.000 C 
ATOM      4  C   UNL     1       2.244  -4.538  -1.211  0.00  0.00    -0.042 C 
ATOM      5  C   UNL     1       1.418  -4.015  -2.388  0.00  0.00    -0.067 C 
ATOM      6  C   UNL     1       1.570  -2.496  -2.482  0.00  0.00    -0.011 C 
ENDROOT
BRANCH   1   7
ATOM      7  C   UNL     1       1.226  -0.333  -1.280  0.00  0.00    -0.032 C 
ATOM      8  C   UNL     1       0.401   0.190  -2.457  0.00  0.00    +0.011 C 
ATOM      9  C   UNL     1       2.700   0.020  -1.494  0.00  0.00    +0.011 C 
BRANCH   7  11
ATOM     10  C   UNL     1       0.883   1.830  -0.077  0.00  0.00    +0.004 C 
ATOM     11  C   UNL     1       0.731   0.311   0.017  0.00  0.00    +0.003 C 
ENDBRANCH   7  11
ENDBRANCH   1   7
BRANCH   5  12
ATOM     12  N   UNL     1       1.894  -4.633  -3.633  0.00  0.00    +0.381 N 
ATOM     13  H   UNL     1       1.883  -5.638  -3.535  0.00  0.00    -0.081 HD
BRANCH  12  14
ATOM     14  C   UNL     1       1.015  -4.240  -4.742  0.00  0.00    -0.082 C 
ATOM     15  C   UNL     1      -0.378  -4.834  -4.524  0.00  0.00    -0.017 C 
ENDBRANCH  12  14
BRANCH  12  16
ATOM     16  C   UNL     1       3.264  -4.183  -3.910  0.00  0.00    -0.082 C 
ATOM     17  C   UNL     1       3.814  -4.939  -5.121  0.00  0.00    -0.017 C 
ENDBRANCH  12  16
ENDBRANCH   5  12
BRANCH   4  18
ATOM     18  C   UNL     1       2.092  -6.058  -1.116  0.00  0.00    -0.085 C 
BRANCH  18  19
ATOM     19  N   UNL     1       2.950  -6.570  -0.040  0.00  0.00    +0.378 N 
ATOM     20  H   UNL     1       2.850  -7.572   0.022  0.00  0.00    -0.090 HD
ATOM     21  H   UNL     1       3.912  -6.340  -0.238  0.00  0.00    -0.090 HD
ATOM     22  H   UNL     1       2.677  -6.150   0.836  0.00  0.00    -0.090 HD
ENDBRANCH  18  19
ENDBRANCH   4  18
TORSDOF 7
