REMARK  Name = ZINC36007556
REMARK  9 active torsions:
REMARK  status: ('A' for Active; 'I' for Inactive)
REMARK    1  A    between atoms: C_1  and  C_2
REMARK    2  A    between atoms: C_7  and  C_8
REMARK    3  A    between atoms: C_7  and  C_9
REMARK    4  A    between atoms: C_11  and  N_13
REMARK    5  A    between atoms: C_14  and  C_16
REMARK    6  A    between atoms: C_16  and  S_17
REMARK    7  A    between atoms: S_17  and  C_18
REMARK    8  A    between atoms: C_21  and  C_24
REMARK    9  A    between atoms: N_22  and  N_23
REMARK                            x       y       z     vdW  Elec       q    Type
REMARK                         _______ _______ _______ _____ _____    ______ ____
ROOT
ATOM      1  S   UNL     1       0.529  -0.678  -6.317  0.00  0.00    -0.075 S 
ENDROOT
BRANCH   1   2
ATOM      2  C   UNL     1      -0.640  -0.690  -7.635  0.00  0.00    +0.209 A 
ATOM      3  N   UNL     1      -1.949  -0.704  -7.515  0.00  0.00    -0.121 NA
ATOM      4  N   UNL     1      -2.498  -0.710  -8.677  0.00  0.00    -0.127 NA
ATOM      5  C   UNL     1      -1.575  -0.701  -9.610  0.00  0.00    +0.183 A 
ATOM      6  N   UNL     1      -0.356  -0.682  -8.971  0.00  0.00    -0.224 N 
BRANCH   5   7
ATOM      7  C   UNL     1      -1.801  -0.703 -11.070  0.00  0.00    +0.039 A 
ATOM      8  C   UNL     1      -1.088  -1.582 -11.888  0.00  0.00    +0.014 A 
ATOM      9  C   UNL     1      -1.304  -1.580 -13.251  0.00  0.00    +0.021 A 
ATOM     10  C   UNL     1      -2.225  -0.709 -13.808  0.00  0.00    +0.042 A 
ATOM     11  C   UNL     1      -2.935   0.165 -13.003  0.00  0.00    +0.040 A 
ATOM     12  C   UNL     1      -2.732   0.169 -11.637  0.00  0.00    +0.053 A 
ATOM     13 CL   UNL     1      -3.629   1.261 -10.628  0.00  0.00    -0.083 Cl
ATOM     14 CL   UNL     1      -2.490  -0.713 -15.524  0.00  0.00    -0.083 Cl
ENDBRANCH   5   7
BRANCH   6  15
ATOM     15  N   UNL     1       0.880  -0.661  -9.552  0.00  0.00    -0.295 N 
ATOM     16  H   UNL     1       1.185  -1.594  -9.786  0.00  0.00    +0.163 HD
ATOM     17  H   UNL     1       0.888  -0.064 -10.364  0.00  0.00    +0.163 HD
ENDBRANCH   6  15
ENDBRANCH   1   2
BRANCH   1  18
ATOM     18  C   UNL     1      -0.495  -0.698  -4.821  0.00  0.00    +0.173 C 
BRANCH  18  20
ATOM     19  N   UNL     1      -0.152  -0.701  -2.371  0.00  0.00    -0.311 N 
ATOM     20  C   UNL     1       0.394  -0.689  -3.603  0.00  0.00    +0.224 C 
ATOM     21  O   UNL     1       1.599  -0.671  -3.733  0.00  0.00    -0.275 OA
ATOM     22  H   UNL     1      -1.116  -0.716  -2.267  0.00  0.00    +0.149 HD
BRANCH  19  32
ATOM     23  C   UNL     1       2.164   1.457  -1.547  0.00  0.00    +0.013 C 
ATOM     24  C   UNL     1       1.041   0.772  -0.765  0.00  0.00    -0.008 C 
ATOM     25  C   UNL     1      -0.331   1.513  -0.753  0.00  0.00    +0.009 C 
ATOM     26  C   UNL     1      -1.081   0.926   0.464  0.00  0.00    +0.005 C 
ATOM     27  C   UNL     1      -0.092  -0.114   1.073  0.00  0.00    -0.003 C 
ATOM     28  C   UNL     1       1.282   0.583   0.774  0.00  0.00    -0.025 C 
ATOM     29  C   UNL     1       1.417   1.921   1.502  0.00  0.00    +0.012 C 
ATOM     30  C   UNL     1       2.468  -0.341   1.060  0.00  0.00    +0.012 C 
ATOM     31  C   UNL     1      -0.074  -1.285   0.044  0.00  0.00    +0.027 C 
ATOM     32  C   UNL     1       0.712  -0.693  -1.188  0.00  0.00    +0.080 C 
ENDBRANCH  19  32
ENDBRANCH  18  20
ENDBRANCH   1  18
TORSDOF 6
