REMARK  Name = ZINC06419637
REMARK  5 active torsions:
REMARK  status: ('A' for Active; 'I' for Inactive)
REMARK    1  A    between atoms: C_1  and  C_2
REMARK    2  A    between atoms: C_2  and  N_3
REMARK    3  A    between atoms: N_3  and  C_4
REMARK    4  A    between atoms: N_11  and  C_14
REMARK    5  A    between atoms: C_19  and  C_20
REMARK                            x       y       z     vdW  Elec       q    Type
REMARK                         _______ _______ _______ _____ _____    ______ ____
ROOT
ATOM      1  C   UNL     1      -1.601  -1.840   0.007  0.00  0.00    +0.085 C 
ATOM      2  C   UNL     1      -2.892  -2.320   0.122  0.00  0.00    +0.113 C 
ATOM      3  C   UNL     1      -4.052  -1.411   0.135  0.00  0.00    +0.256 C 
ATOM      4  O   UNL     1      -3.903  -0.206   0.045  0.00  0.00    -0.270 OA
ATOM      5  N   UNL     1      -5.283  -1.950   0.248  0.00  0.00    -0.263 N 
ATOM      6  C   UNL     1      -5.462  -3.275   0.348  0.00  0.00    +0.150 C 
ATOM      7  S   UNL     1      -7.061  -3.869   0.488  0.00  0.00    -0.018 S 
ATOM      8  N   UNL     1      -4.454  -4.159   0.342  0.00  0.00    -0.217 N 
ATOM      9  C   UNL     1      -3.170  -3.763   0.229  0.00  0.00    +0.263 C 
ATOM     10  O   UNL     1      -2.264  -4.576   0.220  0.00  0.00    -0.269 OA
ATOM     11  H   UNL     1      -6.058  -1.365   0.259  0.00  0.00    +0.157 HD
ENDROOT
BRANCH   8  12
ATOM     12  C   UNL     1      -4.743  -5.525   0.451  0.00  0.00    +0.046 A 
ATOM     13  C   UNL     1      -4.956  -6.284  -0.693  0.00  0.00    +0.024 A 
ATOM     14  C   UNL     1      -5.240  -7.631  -0.583  0.00  0.00    +0.002 A 
ATOM     15  C   UNL     1      -5.311  -8.225   0.665  0.00  0.00    +0.000 A 
ATOM     16  C   UNL     1      -5.099  -7.472   1.805  0.00  0.00    +0.005 A 
ATOM     17  C   UNL     1      -4.810  -6.125   1.701  0.00  0.00    -0.029 A 
ATOM     18  C   UNL     1      -4.573  -5.306   2.944  0.00  0.00    +0.045 C 
ENDBRANCH   8  12
BRANCH   1  19
ATOM     19  N   UNL     1      -1.366  -0.514   0.071  0.00  0.00    -0.349 N 
ATOM     20  H   UNL     1      -2.091   0.098   0.278  0.00  0.00    +0.146 HD
BRANCH  19  22
ATOM     21  C   UNL     1      -0.025   1.528  -0.040  0.00  0.00    +0.024 C 
ATOM     22  C   UNL     1      -0.017   0.004  -0.172  0.00  0.00    +0.097 C 
ENDBRANCH  19  22
ENDBRANCH   1  19
TORSDOF 3
