REMARK  Name = ZINC07177489
REMARK  8 active torsions:
REMARK  status: ('A' for Active; 'I' for Inactive)
REMARK    1  A    between atoms: C_1  and  C_2
REMARK    2  A    between atoms: C_4  and  N_27
REMARK    3  A    between atoms: C_6  and  S_8
REMARK    4  A    between atoms: S_8  and  C_9
REMARK    5  A    between atoms: C_9  and  C_11
REMARK    6  A    between atoms: C_9  and  C_12
REMARK    7  A    between atoms: N_14  and  C_15
REMARK    8  A    between atoms: C_16  and  C_25
REMARK                            x       y       z     vdW  Elec       q    Type
REMARK                         _______ _______ _______ _____ _____    ______ ____
ROOT
ATOM      1  C   UNL     1       0.216  -5.458   3.460  0.00  0.00    +0.231 C 
ATOM      2  O   UNL     1      -0.150  -5.029   4.534  0.00  0.00    -0.274 OA
ATOM      3  N   UNL     1       0.748  -6.693   3.374  0.00  0.00    -0.278 N 
ATOM      4  H   UNL     1       1.041  -7.036   2.515  0.00  0.00    +0.155 HD
ENDROOT
BRANCH   3   5
ATOM      5  C   UNL     1       0.878  -7.474   4.514  0.00  0.00    +0.090 A 
ATOM      6  C   UNL     1       1.402  -8.751   4.615  0.00  0.00    +0.084 A 
ATOM      7  C   UNL     1       1.427  -9.362   5.936  0.00  0.00    -0.018 A 
ATOM      8  C   UNL     1       0.917  -8.579   6.911  0.00  0.00    -0.004 A 
ATOM      9  S   UNL     1       0.443  -7.084   6.087  0.00  0.00    -0.077 S 
ATOM     10  C   UNL     1       0.775  -8.905   8.365  0.00  0.00    +0.043 C 
ATOM     11  C   UNL     1       2.105  -9.462   8.888  0.00  0.00    +0.005 C 
ATOM     12  C   UNL     1       2.108 -10.975   8.696  0.00  0.00    +0.001 C 
ATOM     13  C   UNL     1       1.328 -11.349   7.437  0.00  0.00    +0.005 C 
ATOM     14  C   UNL     1       1.990 -10.750   6.201  0.00  0.00    +0.037 C 
BRANCH   6  15
ATOM     15  C   UNL     1       1.899  -9.444   3.465  0.00  0.00    +0.102 C 
ATOM     16  N   UNL     1       2.293  -9.994   2.553  0.00  0.00    -0.191 NA
ENDBRANCH   6  15
ENDBRANCH   3   5
BRANCH   1  17
ATOM     17  C   UNL     1       0.075  -4.610   2.222  0.00  0.00    +0.137 C 
ATOM     18  C   UNL     1      -1.231  -4.963   1.508  0.00  0.00    +0.029 C 
BRANCH  17  19
ATOM     19  S   UNL     1       0.053  -2.857   2.690  0.00  0.00    -0.074 S 
BRANCH  19  25
ATOM     20  C   UNL     1      -0.018   1.503   0.010  0.00  0.00    +0.066 C 
ATOM     21  C   UNL     1       0.002  -0.004   0.002  0.00  0.00    +0.044 A 
ATOM     22  C   UNL     1       0.006  -0.696  -1.194  0.00  0.00    +0.066 A 
ATOM     23  C   UNL     1       0.025  -2.091  -1.157  0.00  0.00    +0.121 A 
ATOM     24  N   UNL     1       0.039  -2.705   0.022  0.00  0.00    -0.207 NA
ATOM     25  C   UNL     1       0.035  -2.005   1.147  0.00  0.00    +0.191 A 
ATOM     26  N   UNL     1       0.022  -0.679   1.141  0.00  0.00    -0.227 NA
BRANCH  23  27
ATOM     27  N   UNL     1       0.029  -2.826  -2.331  0.00  0.00    -0.343 N 
ATOM     28  H   UNL     1       0.018  -2.371  -3.188  0.00  0.00    +0.144 HD
ATOM     29  H   UNL     1       0.042  -3.795  -2.297  0.00  0.00    +0.144 HD
ENDBRANCH  23  27
ENDBRANCH  19  25
ENDBRANCH  17  19
ENDBRANCH   1  17
TORSDOF 6
