REMARK  Name = ZINC37473317
REMARK  4 active torsions:
REMARK  status: ('A' for Active; 'I' for Inactive)
REMARK    1  A    between atoms: C_3  and  S_9
REMARK    2  A    between atoms: S_9  and  N_12
REMARK    3  A    between atoms: N_12  and  C_13
REMARK    4  A    between atoms: C_16  and  N_18
REMARK                            x       y       z     vdW  Elec       q    Type
REMARK                         _______ _______ _______ _____ _____    ______ ____
ROOT
ATOM      1  S   UNL     1       4.005   2.351  -0.068  0.00  0.00    +0.060 S 
ATOM      2  O   UNL     1       4.994   1.886  -0.976  0.00  0.00    -0.153 OA
ATOM      3  O   UNL     1       3.516   3.685  -0.091  0.00  0.00    -0.153 OA
ENDROOT
BRANCH   1   6
ATOM      4  C   UNL     1       1.530  -0.536  -1.363  0.00  0.00    +0.017 A 
ATOM      5  C   UNL     1       2.627   0.291  -1.210  0.00  0.00    +0.031 A 
ATOM      6  C   UNL     1       2.606   1.298  -0.263  0.00  0.00    +0.119 A 
ATOM      7  C   UNL     1       1.488   1.479   0.530  0.00  0.00    +0.045 A 
ATOM      8  C   UNL     1       0.390   0.652   0.377  0.00  0.00    +0.032 A 
ATOM      9  C   UNL     1       0.411  -0.355  -0.570  0.00  0.00    +0.019 A 
ATOM     10 BR   UNL     1      -1.090  -1.486  -0.781  0.00  0.00    -0.050 Br
ATOM     11 BR   UNL     1       1.460   2.857   1.825  0.00  0.00    -0.048 Br
ENDBRANCH   1   6
BRANCH   1  12
ATOM     12  N   UNL     1       4.603   2.094   1.455  0.00  0.00    -0.188 NA
ATOM     13  H   UNL     1       4.587   2.809   2.110  0.00  0.00    +0.148 HD
BRANCH  12  14
ATOM     14  C   UNL     1       5.155   0.785   1.814  0.00  0.00    +0.061 C 
ATOM     15  C   UNL     1       4.966   0.309   3.256  0.00  0.00    +0.004 C 
ATOM     16  C   UNL     1       6.347   0.760   2.772  0.00  0.00    -0.055 C 
BRANCH  16  17
ATOM     17  N   UNL     1       7.365  -0.279   2.563  0.00  0.00    +0.381 N 
ATOM     18  H   UNL     1       7.765  -0.176   1.642  0.00  0.00    -0.090 HD
ATOM     19  H   UNL     1       8.090  -0.184   3.257  0.00  0.00    -0.090 HD
ATOM     20  H   UNL     1       6.938  -1.189   2.644  0.00  0.00    -0.090 HD
ENDBRANCH  16  17
ENDBRANCH  12  14
ENDBRANCH   1  12
TORSDOF 4
