REMARK  Name = ZINC20373432
REMARK  1 active torsions:
REMARK  status: ('A' for Active; 'I' for Inactive)
REMARK    1  A    between atoms: C_5  and  N_7
REMARK                            x       y       z     vdW  Elec       q    Type
REMARK                         _______ _______ _______ _____ _____    ______ ____
ROOT
ATOM      1  C   UNL     1      -5.499  -2.445  -0.018  0.00  0.00    +0.003 A 
ATOM      2  C   UNL     1      -4.821  -1.234  -0.079  0.00  0.00    +0.014 A 
ATOM      3  C   UNL     1      -3.438  -1.214  -0.032  0.00  0.00    +0.052 A 
ATOM      4  C   UNL     1      -2.721  -2.425   0.078  0.00  0.00    +0.070 A 
ATOM      5  C   UNL     1      -3.412  -3.634   0.138  0.00  0.00    +0.038 A 
ATOM      6  C   UNL     1      -4.808  -3.632   0.090  0.00  0.00    +0.023 A 
ATOM      7  C   UNL     1      -1.297  -2.051   0.101  0.00  0.00    +0.261 C 
ATOM      8  O   UNL     1      -0.363  -2.823   0.187  0.00  0.00    -0.269 OA
ATOM      9  N   UNL     1      -1.202  -0.712   0.010  0.00  0.00    -0.186 N 
ATOM     10  C   UNL     1      -2.420  -0.144  -0.066  0.00  0.00    +0.259 C 
ATOM     11  O   UNL     1      -2.643   1.046  -0.151  0.00  0.00    -0.269 OA
ATOM     12  C   UNL     1       0.002  -0.004   0.002  0.00  0.00    +0.135 A 
ATOM     13  C   UNL     1       1.207  -0.696  -0.013  0.00  0.00    +0.046 A 
ATOM     14  C   UNL     1       2.393   0.017  -0.021  0.00  0.00    +0.025 A 
ATOM     15  C   UNL     1       2.332   1.405  -0.013  0.00  0.00    +0.059 A 
ATOM     16  C   UNL     1       1.098   2.026   0.003  0.00  0.00    +0.133 A 
ATOM     17  N   UNL     1      -0.016   1.319   0.009  0.00  0.00    -0.238 NA
ATOM     18 CL   UNL     1       3.789   2.348  -0.021  0.00  0.00    -0.082 Cl
ENDROOT
BRANCH   5  19
ATOM     19  N   UNL     1      -2.719  -4.831   0.246  0.00  0.00    -0.357 N 
ATOM     20  H   UNL     1      -3.268  -5.782   0.294  0.00  0.00    +0.142 HD
ATOM     21  H   UNL     1      -1.619  -4.828   0.285  0.00  0.00    +0.142 HD
ENDBRANCH   5  19
TORSDOF 1
