REMARK  Name = ZINC36265967
REMARK  6 active torsions:
REMARK  status: ('A' for Active; 'I' for Inactive)
REMARK    1  A    between atoms: C_1  and  C_2
REMARK    2  A    between atoms: C_5  and  C_18
REMARK    3  A    between atoms: C_6  and  S_9
REMARK    4  A    between atoms: S_9  and  N_12
REMARK    5  A    between atoms: N_12  and  C_13
REMARK    6  A    between atoms: C_15  and  N_17
REMARK                            x       y       z     vdW  Elec       q    Type
REMARK                         _______ _______ _______ _____ _____    ______ ____
ROOT
ATOM      1  S   UNL     1      -0.506  -2.795   2.649  0.00  0.00    +0.060 S 
ATOM      2  O   UNL     1      -1.224  -1.878   3.463  0.00  0.00    -0.153 OA
ATOM      3  O   UNL     1      -1.065  -4.026   2.212  0.00  0.00    -0.153 OA
ENDROOT
BRANCH   1   9
ATOM      4  C   UNL     1       1.145  -2.672  -2.311  0.00  0.00    +0.045 C 
ATOM      5  C   UNL     1       0.728  -1.917  -1.075  0.00  0.00    -0.029 A 
ATOM      6  C   UNL     1       0.719  -0.535  -1.079  0.00  0.00    +0.025 A 
ATOM      7  C   UNL     1       0.336   0.157   0.055  0.00  0.00    +0.046 A 
ATOM      8  C   UNL     1      -0.038  -0.533   1.194  0.00  0.00    -0.004 A 
ATOM      9  C   UNL     1      -0.030  -1.915   1.198  0.00  0.00    +0.128 A 
ATOM     10  C   UNL     1       0.348  -2.608   0.062  0.00  0.00    +0.070 A 
ATOM     11 CL   UNL     1       0.352  -4.344   0.065  0.00  0.00    -0.081 Cl
ATOM     12  C   UNL     1      -0.455   0.221   2.430  0.00  0.00    +0.047 C 
ATOM     13 CL   UNL     1       0.326   1.893   0.050  0.00  0.00    -0.083 Cl
ENDBRANCH   1   9
BRANCH   1  14
ATOM     14  N   UNL     1       0.882  -3.171   3.471  0.00  0.00    -0.187 NA
ATOM     15  H   UNL     1       1.120  -4.099   3.620  0.00  0.00    +0.148 HD
BRANCH  14  16
ATOM     16  C   UNL     1       1.748  -2.102   3.973  0.00  0.00    +0.073 C 
ATOM     17  C   UNL     1       3.149  -2.096   3.338  0.00  0.00    +0.004 C 
ATOM     18  C   UNL     1       3.695  -1.761   4.736  0.00  0.00    -0.072 C 
ATOM     19  C   UNL     1       2.439  -2.442   5.304  0.00  0.00    +0.004 C 
BRANCH  18  20
ATOM     20  N   UNL     1       4.944  -2.462   5.064  0.00  0.00    +0.380 N 
ATOM     21  H   UNL     1       5.656  -2.211   4.394  0.00  0.00    -0.090 HD
ATOM     22  H   UNL     1       5.245  -2.198   5.990  0.00  0.00    -0.090 HD
ATOM     23  H   UNL     1       4.789  -3.458   5.032  0.00  0.00    -0.090 HD
ENDBRANCH  18  20
ENDBRANCH  14  16
ENDBRANCH   1  14
TORSDOF 4
