REMARK  Name = ZINC48634224
REMARK  6 active torsions:
REMARK  status: ('A' for Active; 'I' for Inactive)
REMARK    1  A    between atoms: C_1  and  C_2
REMARK    2  A    between atoms: C_2  and  C_3
REMARK    3  A    between atoms: C_9  and  O_11
REMARK    4  A    between atoms: O_11  and  C_12
REMARK    5  A    between atoms: C_12  and  C_14
REMARK    6  A    between atoms: C_14  and  N_21
REMARK                            x       y       z     vdW  Elec       q    Type
REMARK                         _______ _______ _______ _____ _____    ______ ____
ROOT
ATOM      1  C   UNL     1       0.103  -3.790  -0.674  0.00  0.00    +0.296 C 
ATOM      2  O   UNL     1       0.136  -4.380   0.379  0.00  0.00    -0.252 OA
ENDROOT
BRANCH   1   3
ATOM      3  C   UNL     1       0.700  -4.417  -1.908  0.00  0.00    +0.028 C 
ATOM      4  C   UNL     1      -0.426  -5.074  -2.728  0.00  0.00    -0.002 C 
ATOM      5  C   UNL     1       0.100  -6.093  -3.757  0.00  0.00    -0.001 C 
ATOM      6  C   UNL     1       1.336  -5.608  -4.466  0.00  0.00    -0.000 C 
ATOM      7  C   UNL     1       2.572  -6.153  -3.722  0.00  0.00    -0.000 C 
ATOM      8  C   UNL     1       2.893  -5.375  -2.535  0.00  0.00    -0.001 C 
ATOM      9  C   UNL     1       1.758  -5.402  -1.490  0.00  0.00    -0.002 C 
BRANCH   3  10
ATOM     10  N   UNL     1       1.325  -3.364  -2.721  0.00  0.00    +0.389 N 
ATOM     11  H   UNL     1       1.891  -2.775  -2.129  0.00  0.00    -0.088 HD
ATOM     12  H   UNL     1       1.906  -3.787  -3.429  0.00  0.00    -0.088 HD
ATOM     13  H   UNL     1       0.607  -2.809  -3.161  0.00  0.00    -0.088 HD
ENDBRANCH   3  10
ENDBRANCH   1   3
BRANCH   1  14
ATOM     14  O   UNL     1      -0.465  -2.576  -0.747  0.00  0.00    -0.462 OA
BRANCH  14  20
ATOM     15  C   UNL     1      -0.920  -0.515   0.431  0.00  0.00    +0.030 C 
ATOM     16  C   UNL     1      -1.711   0.019  -0.765  0.00  0.00    +0.007 C 
ATOM     17  C   UNL     1      -3.176  -0.403  -0.638  0.00  0.00    +0.001 C 
ATOM     18  C   UNL     1      -3.266  -1.930  -0.607  0.00  0.00    +0.004 C 
ATOM     19  C   UNL     1      -2.476  -2.464   0.589  0.00  0.00    +0.045 C 
ATOM     20  C   UNL     1      -1.011  -2.042   0.462  0.00  0.00    +0.179 C 
BRANCH  15  22
ATOM     21  C   UNL     1       0.647   1.430   0.399  0.00  0.00    +0.004 C 
ATOM     22  C   UNL     1       0.545  -0.093   0.304  0.00  0.00    +0.004 C 
ENDBRANCH  15  22
ENDBRANCH  14  20
ENDBRANCH   1  14
TORSDOF 5
