REMARK  Name = ZINC08683848
REMARK  9 active torsions:
REMARK  status: ('A' for Active; 'I' for Inactive)
REMARK    1  A    between atoms: C_4  and  N_7
REMARK    2  A    between atoms: N_10  and  C_13
REMARK    3  A    between atoms: C_13  and  C_15
REMARK    4  A    between atoms: C_13  and  C_30
REMARK    5  A    between atoms: C_15  and  N_16
REMARK    6  A    between atoms: C_17  and  C_19
REMARK    7  A    between atoms: N_21  and  C_22
REMARK    8  A    between atoms: C_22  and  C_23
REMARK    9  A    between atoms: C_23  and  C_24
REMARK                            x       y       z     vdW  Elec       q    Type
REMARK                         _______ _______ _______ _____ _____    ______ ____
ROOT
ATOM      1  C   UNL     1       6.748  -2.580  -2.031  0.00  0.00    +0.017 C 
ENDROOT
BRANCH   1   5
ATOM      2  N   UNL     1       3.467  -0.673  -0.270  0.00  0.00    -0.333 N 
ATOM      3  C   UNL     1       4.744   0.058  -0.269  0.00  0.00    +0.086 C 
ATOM      4  C   UNL     1       5.659  -0.563  -1.330  0.00  0.00    -0.059 C 
ATOM      5  N   UNL     1       5.785  -2.005  -1.082  0.00  0.00    +0.389 N 
ATOM      6  C   UNL     1       4.482  -2.658  -1.254  0.00  0.00    -0.059 C 
ATOM      7  C   UNL     1       3.508  -2.141  -0.184  0.00  0.00    +0.086 C 
ATOM      8  H   UNL     1       6.114  -2.156  -0.140  0.00  0.00    -0.081 HD
BRANCH   2  12
ATOM      9  C   UNL     1      -0.162   1.358  -0.488  0.00  0.00    +0.000 A 
ATOM     10  C   UNL     1      -0.141  -0.024  -0.533  0.00  0.00    +0.002 A 
ATOM     11  C   UNL     1       1.061  -0.701  -0.461  0.00  0.00    +0.023 A 
ATOM     12  C   UNL     1       2.249   0.008  -0.343  0.00  0.00    +0.030 A 
ATOM     13  C   UNL     1       2.225   1.397  -0.298  0.00  0.00    +0.023 A 
ATOM     14  C   UNL     1       1.020   2.067  -0.371  0.00  0.00    +0.002 A 
ENDBRANCH   2  12
ENDBRANCH   1   5
BRANCH   1  15
ATOM     15  C   UNL     1       8.112  -1.990  -1.782  0.00  0.00    +0.093 A 
ATOM     16  C   UNL     1       8.996  -1.625  -2.728  0.00  0.00    +0.043 A 
ATOM     17  C   UNL     1      10.134  -1.126  -2.054  0.00  0.00    +0.041 A 
ATOM     18  C   UNL     1       9.878  -1.216  -0.737  0.00  0.00    +0.195 A 
ATOM     19  O   UNL     1       8.650  -1.735  -0.578  0.00  0.00    -0.469 OA
ENDBRANCH   1  15
BRANCH   1  20
ATOM     20  C   UNL     1       6.806  -4.098  -1.842  0.00  0.00    +0.097 C 
BRANCH  20  21
ATOM     21  N   UNL     1       7.094  -4.404  -0.438  0.00  0.00    -0.309 N 
ATOM     22  C   UNL     1       7.091  -5.683  -0.013  0.00  0.00    +0.299 C 
ATOM     23  O   UNL     1       6.850  -6.581  -0.794  0.00  0.00    -0.265 OA
ATOM     24  H   UNL     1       7.287  -3.686   0.185  0.00  0.00    +0.149 HD
BRANCH  22  25
ATOM     25  C   UNL     1       7.385  -5.996   1.418  0.00  0.00    +0.299 C 
ATOM     26  O   UNL     1       7.626  -5.098   2.198  0.00  0.00    -0.265 OA
ATOM     27  N   UNL     1       7.382  -7.275   1.843  0.00  0.00    -0.307 N 
ATOM     28  H   UNL     1       7.189  -7.992   1.219  0.00  0.00    +0.149 HD
BRANCH  27  29
ATOM     29  C   UNL     1       7.670  -7.581   3.246  0.00  0.00    +0.109 C 
BRANCH  29  30
ATOM     30  C   UNL     1       7.603  -9.095   3.462  0.00  0.00    +0.049 C 
BRANCH  30  31
ATOM     31  C   UNL     1       7.899  -9.410   4.905  0.00  0.00    -0.072 C 
ATOM     32  C   UNL     1       6.898  -9.555   5.713  0.00  0.00    -0.028 C 
ATOM     33  C   UNL     1       7.035  -9.859   7.176  0.00  0.00    +0.027 C 
ATOM     34  C   UNL     1       8.441 -10.384   7.476  0.00  0.00    +0.004 C 
ATOM     35  C   UNL     1       9.460  -9.431   6.839  0.00  0.00    +0.005 C 
ATOM     36  C   UNL     1       9.337  -9.542   5.316  0.00  0.00    +0.030 C 
ENDBRANCH  30  31
ENDBRANCH  29  30
ENDBRANCH  27  29
ENDBRANCH  22  25
ENDBRANCH  20  21
ENDBRANCH   1  20
TORSDOF 9
