REMARK  Name = ZINC10085487
REMARK  9 active torsions:
REMARK  status: ('A' for Active; 'I' for Inactive)
REMARK    1  A    between atoms: C_1  and  C_2
REMARK    2  A    between atoms: C_2  and  C_3
REMARK    3  A    between atoms: C_2  and  C_4
REMARK    4  A    between atoms: C_4  and  C_6
REMARK    5  A    between atoms: C_4  and  O_12
REMARK    6  A    between atoms: O_12  and  C_13
REMARK    7  A    between atoms: C_13  and  C_15
REMARK    8  A    between atoms: C_16  and  C_17
REMARK    9  A    between atoms: C_21  and  N_23
REMARK                            x       y       z     vdW  Elec       q    Type
REMARK                         _______ _______ _______ _____ _____    ______ ____
ROOT
ATOM      1  O   UNL     1       1.423   1.506   0.100  0.00  0.00    -0.449 OA
ENDROOT
BRANCH   1   2
ATOM      2  C   UNL     1       2.300   0.665   0.685  0.00  0.00    +0.333 C 
ATOM      3  O   UNL     1       1.917  -0.400   1.130  0.00  0.00    -0.246 OA
BRANCH   2   4
ATOM      4  C   UNL     1       3.711   1.035   0.786  0.00  0.00    +0.092 C 
ATOM      5  C   UNL     1       4.589   0.193   1.372  0.00  0.00    +0.015 C 
BRANCH   5   6
ATOM      6  C   UNL     1       6.008   0.565   1.474  0.00  0.00    -0.023 A 
ATOM      7  C   UNL     1       6.453   1.790   0.964  0.00  0.00    +0.009 A 
ATOM      8  C   UNL     1       7.784   2.131   1.062  0.00  0.00    +0.023 A 
ATOM      9  C   UNL     1       8.682   1.264   1.664  0.00  0.00    +0.071 A 
ATOM     10  C   UNL     1       8.250   0.050   2.171  0.00  0.00    +0.145 A 
ATOM     11  C   UNL     1       6.920  -0.302   2.086  0.00  0.00    +0.042 A 
ATOM     12 CL   UNL     1      10.358   1.702   1.784  0.00  0.00    -0.081 Cl
BRANCH  10  13
ATOM     13  N   UNL     1       9.217  -0.870   2.812  0.00  0.00    +0.058 N 
ATOM     14  O   UNL     1       8.838  -1.938   3.257  0.00  0.00    -0.126 OA
ATOM     15  O   UNL     1      10.392  -0.558   2.892  0.00  0.00    -0.126 OA
ENDBRANCH  10  13
ENDBRANCH   5   6
ENDBRANCH   2   4
ENDBRANCH   1   2
BRANCH   1  16
ATOM     16  C   UNL     1       0.060   1.081   0.036  0.00  0.00    +0.265 C 
BRANCH  16  17
ATOM     17  C   UNL     1      -0.594   1.672  -1.187  0.00  0.00    +0.261 C 
ATOM     18  O   UNL     1      -1.704   1.312  -1.514  0.00  0.00    -0.271 OA
ATOM     19  N   UNL     1       0.056   2.601  -1.916  0.00  0.00    -0.237 N 
ATOM     20  C   UNL     1      -0.569   3.209  -2.943  0.00  0.00    +0.303 C 
ATOM     21  O   UNL     1      -1.718   2.920  -3.213  0.00  0.00    -0.253 OA
ATOM     22  N   UNL     1       0.081   4.138  -3.672  0.00  0.00    -0.313 N 
ATOM     23  H   UNL     1       0.973   2.832  -1.701  0.00  0.00    +0.159 HD
ATOM     24  H   UNL     1       0.998   4.370  -3.457  0.00  0.00    +0.146 HD
ATOM     25  H   UNL     1      -0.369   4.576  -4.412  0.00  0.00    +0.146 HD
ENDBRANCH  16  17
BRANCH  16  27
ATOM     26  C   UNL     1      -2.100   0.982   1.287  0.00  0.00    +0.011 C 
ATOM     27  C   UNL     1      -0.680   1.553   1.289  0.00  0.00    +0.033 C 
ATOM     28  C   UNL     1       0.064   1.067   2.534  0.00  0.00    +0.011 C 
ENDBRANCH  16  27
ENDBRANCH   1  16
TORSDOF 7
