REMARK  Name = ZINC59831337
REMARK  14 active torsions:
REMARK  status: ('A' for Active; 'I' for Inactive)
REMARK    1  A    between atoms: C_1  and  C_2
REMARK    2  A    between atoms: C_2  and  C_3
REMARK    3  A    between atoms: C_3  and  C_5
REMARK    4  A    between atoms: C_3  and  S_6
REMARK    5  A    between atoms: S_6  and  C_7
REMARK    6  A    between atoms: C_13  and  C_15
REMARK    7  A    between atoms: C_15  and  S_16
REMARK    8  A    between atoms: S_16  and  C_17
REMARK    9  A    between atoms: N_22  and  N_23
REMARK   10  A    between atoms: C_24  and  C_25
REMARK   11  A    between atoms: C_26  and  C_34
REMARK   12  A    between atoms: N_28  and  C_31
REMARK   13  A    between atoms: C_29  and  C_30
REMARK   14  A    between atoms: C_31  and  C_32
REMARK                            x       y       z     vdW  Elec       q    Type
REMARK                         _______ _______ _______ _____ _____    ______ ____
ROOT
ATOM      1  C   UNL     1       6.406  -3.305 -10.668  0.00  0.00    +0.211 A 
ATOM      2  N   UNL     1       7.547  -3.880 -11.063  0.00  0.00    -0.186 NA
ATOM      3  C   UNL     1       7.601  -3.898 -12.378  0.00  0.00    +0.232 A 
ATOM      4  N   UNL     1       6.474  -3.324 -12.850  0.00  0.00    -0.245 N 
ATOM      5  N   UNL     1       5.716  -2.955 -11.727  0.00  0.00    -0.144 NA
ATOM      6  N   UNL     1       8.632  -4.414 -13.142  0.00  0.00    -0.205 N 
ATOM      7  H   UNL     1       8.582  -4.382 -14.110  0.00  0.00    +0.177 HD
ATOM      8  H   UNL     1       6.234  -3.196 -13.781  0.00  0.00    +0.192 HD
ENDROOT
BRANCH   6   9
ATOM      9  N   UNL     1       9.749  -4.985 -12.517  0.00  0.00    -0.187 NA
ATOM     10  C   UNL     1      10.716  -5.469 -13.234  0.00  0.00    +0.141 C 
BRANCH  10  11
ATOM     11  C   UNL     1      11.892  -6.070 -12.575  0.00  0.00    +0.038 A 
ATOM     12  C   UNL     1      12.101  -6.194 -11.185  0.00  0.00    +0.069 A 
ATOM     13  N   UNL     1      13.254  -6.778 -10.998  0.00  0.00    -0.175 NA
ATOM     14  N   UNL     1      13.830  -7.052 -12.244  0.00  0.00    -0.264 N 
ATOM     15  C   UNL     1      12.988  -6.620 -13.205  0.00  0.00    +0.045 A 
ATOM     16  C   UNL     1      13.206  -6.720 -14.693  0.00  0.00    +0.066 C 
ATOM     17  C   UNL     1      11.158  -5.731 -10.104  0.00  0.00    +0.068 C 
BRANCH  14  18
ATOM     18  C   UNL     1      15.124  -7.701 -12.466  0.00  0.00    +0.170 C 
BRANCH  18  19
ATOM     19  C   UNL     1      14.929  -9.192 -12.559  0.00  0.00    -0.012 C 
ATOM     20  C   UNL     1      15.363  -9.845 -13.609  0.00  0.00    +0.006 C 
ENDBRANCH  18  19
ENDBRANCH  14  18
ENDBRANCH  10  11
ENDBRANCH   6   9
BRANCH   1  21
ATOM     21  S   UNL     1       5.906  -3.064  -8.996  0.00  0.00    -0.075 S 
BRANCH  21  22
ATOM     22  C   UNL     1       4.288  -2.254  -9.133  0.00  0.00    +0.173 C 
BRANCH  22  29
ATOM     23  C   UNL     1       0.774  -0.523  -4.074  0.00  0.00    +0.160 A 
ATOM     24  N   UNL     1       1.960  -1.116  -4.077  0.00  0.00    -0.133 NA
ATOM     25  N   UNL     1       2.556  -1.409  -5.149  0.00  0.00    -0.125 NA
ATOM     26  C   UNL     1       2.037  -1.143  -6.336  0.00  0.00    +0.189 A 
ATOM     27  S   UNL     1       0.494  -0.382  -5.837  0.00  0.00    -0.024 S 
ATOM     28  N   UNL     1       2.542  -1.389  -7.610  0.00  0.00    -0.263 N 
ATOM     29  C   UNL     1       3.741  -1.988  -7.755  0.00  0.00    +0.229 C 
ATOM     30  O   UNL     1       4.379  -2.312  -6.776  0.00  0.00    -0.275 OA
ATOM     31  H   UNL     1       2.032  -1.129  -8.393  0.00  0.00    +0.157 HD
BRANCH  23  32
ATOM     32  S   UNL     1      -0.239  -0.022  -2.723  0.00  0.00    -0.094 S 
BRANCH  32  33
ATOM     33  C   UNL     1       0.718  -0.497  -1.257  0.00  0.00    +0.050 C 
ATOM     34  C   UNL     1       0.849  -2.021  -1.205  0.00  0.00    +0.019 C 
BRANCH  33  36
ATOM     35  C   UNL     1      -0.019   1.526   0.010  0.00  0.00    +0.005 C 
ATOM     36  C   UNL     1       0.002  -0.004   0.002  0.00  0.00    +0.011 C 
ENDBRANCH  33  36
ENDBRANCH  32  33
ENDBRANCH  23  32
ENDBRANCH  22  29
ENDBRANCH  21  22
ENDBRANCH   1  21
TORSDOF 10
