REMARK  Name = ZINC05883176
REMARK  6 active torsions:
REMARK  status: ('A' for Active; 'I' for Inactive)
REMARK    1  A    between atoms: C_3  and  C_19
REMARK    2  A    between atoms: N_5  and  C1*_6
REMARK    3  A    between atoms: C2*_8  and  O2*_18
REMARK    4  A    between atoms: C3*_10  and  O3*_17
REMARK    5  A    between atoms: C4*_12  and  C5*_15
REMARK    6  A    between atoms: C5*_15  and  O5*_16
REMARK                            x       y       z     vdW  Elec       q    Type
REMARK                         _______ _______ _______ _____ _____    ______ ____
ROOT
ATOM      1  C   UNL     1      -3.277   4.045   3.989  0.00  0.00    +0.222 A 
ATOM      2  N   UNL     1      -2.929   3.985   2.732  0.00  0.00    -0.212 NA
ATOM      3  C   UNL     1      -2.090   2.957   2.542  0.00  0.00    +0.212 A 
ATOM      4  N   UNL     1      -1.891   2.356   3.695  0.00  0.00    -0.144 NA
ATOM      5  N   UNL     1      -2.655   3.049   4.648  0.00  0.00    -0.220 N 
ENDROOT
BRANCH   3   6
ATOM      6  C   UNL     1      -1.482   2.566   1.249  0.00  0.00    +0.139 C 
ATOM      7  C   UNL     1      -0.013   1.086   0.008  0.00  0.00    +0.115 C 
ATOM      8  C   UNL     1      -0.742   1.587  -1.240  0.00  0.00    +0.040 C 
ATOM      9  C   UNL     1      -0.980   3.098  -1.091  0.00  0.00    +0.104 C 
ATOM     10  N   UNL     1      -1.788   3.297   0.122  0.00  0.00    -0.328 N 
ATOM     11  H   UNL     1      -2.523   3.931   0.128  0.00  0.00    +0.147 HD
ATOM     12  N   UNL     1      -0.670   1.505   1.300  0.00  0.00    -0.370 N 
ATOM     13  H   UNL     1      -0.502   0.999   2.177  0.00  0.00    +0.161 HD
ENDBRANCH   3   6
BRANCH   5  14
ATOM     14  C1* UNL     1      -2.756   2.748   6.078  0.00  0.00    +0.270 C 
ATOM     15  C2* UNL     1      -3.192   1.281   6.289  0.00  0.00    +0.196 C 
ATOM     16  C3* UNL     1      -1.861   0.518   6.478  0.00  0.00    +0.178 C 
ATOM     17  C4* UNL     1      -0.779   1.614   6.359  0.00  0.00    +0.177 C 
ATOM     18  O4* UNL     1      -1.458   2.841   6.704  0.00  0.00    -0.344 OA
BRANCH  16  19
ATOM     19  O3* UNL     1      -1.814  -0.094   7.769  0.00  0.00    -0.386 OA
ATOM     20  H3* UNL     1      -2.510  -0.748   7.920  0.00  0.00    +0.210 HD
ENDBRANCH  16  19
BRANCH  15  21
ATOM     21  O2* UNL     1      -3.891   0.796   5.142  0.00  0.00    -0.385 OA
ATOM     22  H2* UNL     1      -4.188  -0.121   5.220  0.00  0.00    +0.210 HD
ENDBRANCH  15  21
BRANCH  17  23
ATOM     23  C5* UNL     1       0.364   1.344   7.339  0.00  0.00    +0.190 C 
BRANCH  23  24
ATOM     24  O5* UNL     1       1.405   2.300   7.132  0.00  0.00    -0.392 OA
ATOM     25  H5* UNL     1       2.164   2.189   7.720  0.00  0.00    +0.210 HD
ENDBRANCH  23  24
ENDBRANCH  17  23
ENDBRANCH   5  14
TORSDOF 6
