REMARK  Name = ZINC57847091
REMARK  4 active torsions:
REMARK  status: ('A' for Active; 'I' for Inactive)
REMARK    1  A    between atoms: C_1  and  C_2
REMARK    2  A    between atoms: C_2  and  C_4
REMARK    3  A    between atoms: C_4  and  N_5
REMARK    4  A    between atoms: N_13  and  C_17
REMARK                            x       y       z     vdW  Elec       q    Type
REMARK                         _______ _______ _______ _____ _____    ______ ____
ROOT
ATOM      1  N   UNL     1      -1.867  -0.948   1.235  0.00  0.00    +0.382 N 
ATOM      2  C   UNL     1      -2.354   0.352   1.713  0.00  0.00    -0.076 C 
ATOM      3  C   UNL     1      -2.881   0.207   3.143  0.00  0.00    +0.017 C 
ATOM      4  C   UNL     1      -4.009  -0.821   3.163  0.00  0.00    +0.109 C 
ATOM      5  C   UNL     1      -3.532  -2.145   2.576  0.00  0.00    +0.017 C 
ATOM      6  C   UNL     1      -2.978  -1.905   1.169  0.00  0.00    -0.076 C 
ATOM      7  C   UNL     1      -4.520  -1.019   4.571  0.00  0.00    +0.247 C 
ATOM      8  O   UNL     1      -3.896  -1.422   5.528  0.00  0.00    -0.273 OA
ATOM      9  N   UNL     1      -5.818  -0.652   4.537  0.00  0.00    -0.221 N 
ATOM     10  C   UNL     1      -6.187  -0.255   3.313  0.00  0.00    +0.310 C 
ATOM     11  O   UNL     1      -7.308   0.123   3.034  0.00  0.00    -0.252 OA
ATOM     12  N   UNL     1      -5.176  -0.320   2.425  0.00  0.00    -0.285 N 
ATOM     13  H   UNL     1      -5.211  -0.084   1.485  0.00  0.00    +0.151 HD
ATOM     14  H   UNL     1      -1.163  -1.295   1.870  0.00  0.00    -0.081 HD
ENDROOT
BRANCH   9  15
ATOM     15  C   UNL     1      -6.713  -0.685   5.696  0.00  0.00    +0.082 C 
ATOM     16  C   UNL     1      -7.896  -1.613   5.404  0.00  0.00    +0.004 C 
ATOM     17  C   UNL     1      -8.867  -1.581   6.587  0.00  0.00    -0.081 C 
ATOM     18  N   UNL     1      -9.356  -0.212   6.786  0.00  0.00    +0.379 N 
ATOM     19  C   UNL     1      -8.237   0.671   7.137  0.00  0.00    -0.081 C 
ATOM     20  C   UNL     1      -7.242   0.726   5.976  0.00  0.00    +0.004 C 
ATOM     21  H   UNL     1      -9.788   0.117   5.935  0.00  0.00    -0.086 HD
ATOM     22  H   UNL     1     -10.036  -0.204   7.531  0.00  0.00    -0.086 HD
ENDBRANCH   9  15
BRANCH   1  23
ATOM     23  C   UNL     1      -1.281  -0.787  -0.102  0.00  0.00    -0.048 C 
BRANCH  23  25
ATOM     24  C   UNL     1       1.269  -0.522   0.388  0.00  0.00    +0.036 C 
ATOM     25  C   UNL     1      -0.053   0.081  -0.012  0.00  0.00    -0.096 C 
ATOM     26  C   UNL     1      -0.134   1.361  -0.281  0.00  0.00    +0.005 C 
ENDBRANCH  23  25
ENDBRANCH   1  23
TORSDOF 3
