REMARK  Name = ZINC53047293
REMARK  12 active torsions:
REMARK  status: ('A' for Active; 'I' for Inactive)
REMARK    1  A    between atoms: C_1  and  C_2
REMARK    2  A    between atoms: C_2  and  C_3
REMARK    3  A    between atoms: C_3  and  C_4
REMARK    4  A    between atoms: C_3  and  C_6
REMARK    5  A    between atoms: C_3  and  N_8
REMARK    6  A    between atoms: C_4  and  C_5
REMARK    7  A    between atoms: C_6  and  O_7
REMARK    8  A    between atoms: N_8  and  C_9
REMARK    9  A    between atoms: C_9  and  C_10
REMARK   10  A    between atoms: C_12  and  O_18
REMARK   11  A    between atoms: C_13  and  O_17
REMARK   12  A    between atoms: O_18  and  C_19
REMARK                            x       y       z     vdW  Elec       q    Type
REMARK                         _______ _______ _______ _____ _____    ______ ____
ROOT
ATOM      1  C   UNL     1      -1.324  -0.546   2.461  0.00  0.00    -0.046 C 
ENDROOT
BRANCH   1   2
ATOM      2  C   UNL     1      -2.029  -0.060   3.700  0.00  0.00    -0.060 A 
ATOM      3  C   UNL     1      -1.982  -0.811   4.860  0.00  0.00    +0.051 A 
ATOM      4  C   UNL     1      -2.630  -0.366   6.001  0.00  0.00    +0.163 A 
ATOM      5  C   UNL     1      -3.327   0.838   5.977  0.00  0.00    +0.173 A 
ATOM      6  C   UNL     1      -3.370   1.587   4.812  0.00  0.00    +0.063 A 
ATOM      7  C   UNL     1      -2.716   1.139   3.678  0.00  0.00    +0.021 A 
ATOM      8 BR   UNL     1      -4.315   3.224   4.774  0.00  0.00    -0.046 Br
BRANCH   5   9
ATOM      9  O   UNL     1      -3.965   1.279   7.095  0.00  0.00    -0.503 OA
ATOM     10  H   UNL     1      -3.418   1.834   7.667  0.00  0.00    +0.292 HD
ENDBRANCH   5   9
BRANCH   4  11
ATOM     11  O   UNL     1      -2.585  -1.105   7.142  0.00  0.00    -0.491 OA
ATOM     12  C   UNL     1      -1.852  -2.331   7.093  0.00  0.00    +0.277 C 
ENDBRANCH   4  11
ENDBRANCH   1   2
BRANCH   1  13
ATOM     13  N   UNL     1       0.054  -0.037   2.450  0.00  0.00    +0.387 N 
ATOM     14  H   UNL     1       0.542  -0.371   3.268  0.00  0.00    -0.085 HD
ATOM     15  H   UNL     1       0.041   0.972   2.456  0.00  0.00    -0.085 HD
BRANCH  13  16
ATOM     16  C   UNL     1       0.742  -0.511   1.242  0.00  0.00    -0.045 C 
BRANCH  16  18
ATOM     17  C   UNL     1      -0.019   1.526   0.010  0.00  0.00    +0.002 C 
ATOM     18  C   UNL     1       0.002  -0.004   0.002  0.00  0.00    -0.014 C 
ENDBRANCH  16  18
BRANCH  16  19
ATOM     19  C   UNL     1       0.763  -2.041   1.233  0.00  0.00    -0.014 C 
ATOM     20  C   UNL     1       1.392  -2.549   2.532  0.00  0.00    +0.002 C 
ENDBRANCH  16  19
BRANCH  16  21
ATOM     21  C   UNL     1       2.178   0.019   1.231  0.00  0.00    +0.143 C 
BRANCH  21  22
ATOM     22  O   UNL     1       2.846  -0.442   0.055  0.00  0.00    -0.396 OA
ATOM     23  H   UNL     1       3.763  -0.144  -0.018  0.00  0.00    +0.209 HD
ENDBRANCH  21  22
ENDBRANCH  16  21
ENDBRANCH  13  16
ENDBRANCH   1  13
TORSDOF 9
