REMARK  Name = ZINC19521787
REMARK  7 active torsions:
REMARK  status: ('A' for Active; 'I' for Inactive)
REMARK    1  A    between atoms: C_1  and  C_2
REMARK    2  A    between atoms: C_2  and  C_3
REMARK    3  A    between atoms: C_4  and  C_22
REMARK    4  A    between atoms: C_11  and  O_12
REMARK    5  A    between atoms: C_15  and  C_19
REMARK    6  A    between atoms: C_19  and  C_20
REMARK    7  A    between atoms: C_19  and  C_21
REMARK                            x       y       z     vdW  Elec       q    Type
REMARK                         _______ _______ _______ _____ _____    ______ ____
ROOT
ATOM      1  C   UNL     1      -1.412  -0.526   0.013  0.00  0.00    +0.015 A 
ATOM      2  C   UNL     1      -2.174  -0.810   1.147  0.00  0.00    +0.065 A 
ATOM      3  N   UNL     1      -3.349  -1.243   0.763  0.00  0.00    -0.167 NA
ATOM      4  N   UNL     1      -3.384  -1.251  -0.637  0.00  0.00    -0.185 N 
ATOM      5  C   UNL     1      -2.175  -0.797  -1.084  0.00  0.00    +0.133 A 
ATOM      6  N   UNL     1      -1.926  -0.694  -2.438  0.00  0.00    -0.297 N 
ATOM      7  C   UNL     1      -2.891  -1.042  -3.339  0.00  0.00    +0.065 C 
ATOM      8  C   UNL     1      -4.128  -1.502  -2.885  0.00  0.00    +0.092 C 
ATOM      9  C   UNL     1      -4.361  -1.610  -1.532  0.00  0.00    +0.217 C 
ATOM     10  C   UNL     1      -2.629  -0.932  -4.779  0.00  0.00    +0.107 C 
ATOM     11  C   UNL     1      -1.439  -0.493  -5.387  0.00  0.00    +0.054 C 
ATOM     12  C   UNL     1      -1.672  -0.564  -6.733  0.00  0.00    +0.039 C 
ATOM     13  N   UNL     1      -2.909  -1.012  -6.904  0.00  0.00    -0.281 N 
ATOM     14  N   UNL     1      -3.472  -1.234  -5.771  0.00  0.00    -0.172 NA
ATOM     15  H   UNL     1      -3.330  -1.156  -7.766  0.00  0.00    +0.189 HD
ATOM     16  C   UNL     1      -1.719  -0.647   2.574  0.00  0.00    +0.068 C 
ATOM     17  H   UNL     1      -1.065  -0.373  -2.749  0.00  0.00    +0.154 HD
ENDROOT
BRANCH  12  18
ATOM     18  C   UNL     1      -0.700  -0.199  -7.825  0.00  0.00    +0.031 C 
ATOM     19  C   UNL     1      -0.436  -1.423  -8.704  0.00  0.00    +0.014 C 
ATOM     20  C   UNL     1      -1.290   0.925  -8.680  0.00  0.00    +0.014 C 
ENDBRANCH  12  18
BRANCH   1  22
ATOM     21  C   UNL     1      -0.019   1.526   0.010  0.00  0.00    +0.009 C 
ATOM     22  C   UNL     1       0.002  -0.004   0.002  0.00  0.00    +0.037 C 
ENDBRANCH   1  22
BRANCH   9  23
ATOM     23  O   UNL     1      -5.555  -2.052  -1.086  0.00  0.00    -0.492 OA
ATOM     24  H   UNL     1      -6.177  -2.280  -1.790  0.00  0.00    +0.294 HD
ENDBRANCH   9  23
TORSDOF 3
