REMARK  Name = ZINC05345274
REMARK  9 active torsions:
REMARK  status: ('A' for Active; 'I' for Inactive)
REMARK    1  A    between atoms: C_1  and  C_2
REMARK    2  A    between atoms: C_2  and  N_51
REMARK    3  A    between atoms: C_3  and  C_4
REMARK    4  A    between atoms: C_3  and  N_51
REMARK    5  A    between atoms: C_5  and  C_6
REMARK    6  A    between atoms: C_5  and  N_51
REMARK    7  A    between atoms: C_6  and  N_7
REMARK    8  A    between atoms: C_13  and  C_23
REMARK    9  A    between atoms: C_18  and  O_22
REMARK                            x       y       z     vdW  Elec       q    Type
REMARK                         _______ _______ _______ _____ _____    ______ ____
ROOT
ATOM      1  N   UNL     1       0.052   1.132  -0.091  0.00  0.00    -0.320 N 
ATOM      2  C   UNL     1       0.187   2.481  -0.061  0.00  0.00    +0.204 A 
ATOM      3  N   UNL     1       1.357   3.050  -0.120  0.00  0.00    -0.202 NA
ATOM      4  C   UNL     1       2.495   2.337  -0.217  0.00  0.00    +0.229 A 
ATOM      5  C   UNL     1       2.441   0.977  -0.256  0.00  0.00    +0.069 A 
ATOM      6  C   UNL     1       1.179   0.341  -0.191  0.00  0.00    +0.115 A 
ATOM      7  C   UNL     1       3.688   0.147  -0.367  0.00  0.00    +0.127 C 
ATOM      8  C   UNL     1       4.838   0.991  -0.847  0.00  0.00    +0.010 A 
ATOM      9  C   UNL     1       5.967   0.378  -1.361  0.00  0.00    +0.012 A 
ATOM     10  C   UNL     1       7.030   1.138  -1.808  0.00  0.00    +0.046 A 
ATOM     11  C   UNL     1       6.968   2.523  -1.740  0.00  0.00    +0.120 A 
ATOM     12  C   UNL     1       5.840   3.140  -1.224  0.00  0.00    +0.092 A 
ATOM     13  C   UNL     1       4.772   2.374  -0.776  0.00  0.00    +0.138 A 
ATOM     14  O   UNL     1       3.676   2.991  -0.274  0.00  0.00    -0.437 OA
ATOM     15  H   UNL     1       0.256  -1.489  -0.185  0.00  0.00    +0.157 HD
ATOM     16  N   UNL     1       1.149  -0.998  -0.230  0.00  0.00    -0.384 N 
ATOM     17  H   UNL     1       2.024  -1.529  -0.305  0.00  0.00    +0.157 HD
ENDROOT
BRANCH   7  18
ATOM     18  C   UNL     1       3.454  -0.978  -1.342  0.00  0.00    +0.117 A 
ATOM     19  C   UNL     1       3.538  -2.291  -1.064  0.00  0.00    +0.045 A 
ATOM     20  C   UNL     1       3.244  -2.983  -2.261  0.00  0.00    +0.041 A 
ATOM     21  C   UNL     1       2.997  -2.051  -3.199  0.00  0.00    +0.195 A 
ATOM     22  O   UNL     1       3.120  -0.839  -2.636  0.00  0.00    -0.467 OA
ENDBRANCH   7  18
BRANCH  11  23
ATOM     23  O   UNL     1       8.013   3.273  -2.180  0.00  0.00    -0.507 OA
ATOM     24  H   UNL     1       8.672   3.466  -1.499  0.00  0.00    +0.292 HD
ENDBRANCH  11  23
BRANCH   1  25
ATOM     25  C   UNL     1      -1.277   0.520  -0.020  0.00  0.00    +0.106 C 
BRANCH  25  26
ATOM     26  C   UNL     1      -1.591   0.150   1.431  0.00  0.00    -0.057 C 
BRANCH  26  27
ATOM     27  N   UNL     1      -2.942  -0.446   1.490  0.00  0.00    +0.380 N 
ATOM     28  H   UNL     1      -3.605   0.182   1.019  0.00  0.00    -0.082 HD
BRANCH  27  30
ATOM     29  C   UNL     1      -1.981  -2.723   1.482  0.00  0.00    -0.017 C 
ATOM     30  C   UNL     1      -2.948  -1.753   0.801  0.00  0.00    -0.082 C 
ENDBRANCH  27  30
BRANCH  27  31
ATOM     31  C   UNL     1      -3.359  -0.615   2.898  0.00  0.00    -0.082 C 
ATOM     32  C   UNL     1      -4.865  -0.882   2.936  0.00  0.00    -0.017 C 
ENDBRANCH  27  31
ENDBRANCH  26  27
ENDBRANCH  25  26
ENDBRANCH   1  25
TORSDOF 7
