REMARK  Name = ZINC53587746
REMARK  9 active torsions:
REMARK  status: ('A' for Active; 'I' for Inactive)
REMARK    1  A    between atoms: C_1  and  C_2
REMARK    2  A    between atoms: C_7  and  O_8
REMARK    3  A    between atoms: O_8  and  C_9
REMARK    4  A    between atoms: C_9  and  C_11
REMARK    5  A    between atoms: C_9  and  C_12
REMARK    6  A    between atoms: C_12  and  N_13
REMARK    7  A    between atoms: N_13  and  C_14
REMARK    8  A    between atoms: C_14  and  C_15
REMARK    9  A    between atoms: C_14  and  C_16
REMARK                            x       y       z     vdW  Elec       q    Type
REMARK                         _______ _______ _______ _____ _____    ______ ____
ROOT
ATOM      1  O   UNL     1       0.025  -0.032   2.381  0.00  0.00    -0.489 OA
ENDROOT
BRANCH   1   8
ATOM      2  C   UNL     1      -0.018   1.503   0.010  0.00  0.00    +0.047 C 
ATOM      3  C   UNL     1       0.002  -0.004   0.002  0.00  0.00    -0.006 A 
ATOM      4  C   UNL     1       0.006  -0.689  -1.198  0.00  0.00    +0.022 A 
ATOM      5  C   UNL     1       0.025  -2.072  -1.207  0.00  0.00    +0.020 A 
ATOM      6  C   UNL     1       0.040  -2.773  -0.015  0.00  0.00    +0.039 A 
ATOM      7  C   UNL     1       0.036  -2.092   1.188  0.00  0.00    +0.084 A 
ATOM      8  C   UNL     1       0.023  -0.704   1.199  0.00  0.00    +0.142 A 
ATOM      9 CL   UNL     1       0.055  -2.973   2.685  0.00  0.00    -0.080 Cl
ATOM     10 BR   UNL     1       0.030  -3.005  -2.852  0.00  0.00    -0.050 Br
ENDBRANCH   1   8
BRANCH   1  11
ATOM     11  C   UNL     1      -1.247   0.271   2.957  0.00  0.00    +0.154 C 
ATOM     12  C   UNL     1      -1.677  -0.874   3.875  0.00  0.00    +0.050 C 
BRANCH  11  13
ATOM     13  C   UNL     1      -1.144   1.564   3.768  0.00  0.00    -0.037 C 
BRANCH  13  14
ATOM     14  N   UNL     1      -0.849   2.686   2.866  0.00  0.00    +0.383 N 
ATOM     15  H   UNL     1       0.026   2.515   2.393  0.00  0.00    -0.085 HD
ATOM     16  H   UNL     1      -1.588   2.774   2.185  0.00  0.00    -0.085 HD
BRANCH  14  17
ATOM     17  C   UNL     1      -0.750   3.927   3.645  0.00  0.00    -0.078 C 
ATOM     18  C   UNL     1      -0.320   5.073   2.727  0.00  0.00    -0.014 C 
ATOM     19  C   UNL     1      -2.112   4.252   4.262  0.00  0.00    -0.014 C 
ENDBRANCH  14  17
ENDBRANCH  13  14
ENDBRANCH  11  13
ENDBRANCH   1  11
TORSDOF 5
