REMARK  Name = ZINC41142223
REMARK  7 active torsions:
REMARK  status: ('A' for Active; 'I' for Inactive)
REMARK    1  A    between atoms: C_1  and  C_2
REMARK    2  A    between atoms: C_2  and  O_3
REMARK    3  A    between atoms: O_3  and  C_4
REMARK    4  A    between atoms: C_7  and  C_10
REMARK    5  A    between atoms: C_13  and  C_23
REMARK    6  A    between atoms: N_15  and  C_16
REMARK    7  A    between atoms: C_23  and  N_24
REMARK                            x       y       z     vdW  Elec       q    Type
REMARK                         _______ _______ _______ _____ _____    ______ ____
ROOT
ATOM      1  C   UNL     1       1.144  -6.059   1.764  0.00  0.00    +0.134 C 
ATOM      2  C   UNL     1       0.123  -6.579   2.797  0.00  0.00    +0.079 C 
ATOM      3  C   UNL     1       0.985  -7.180   3.884  0.00  0.00    +0.022 C 
ATOM      4  N   UNL     1       2.211  -7.053   3.581  0.00  0.00    -0.190 NA
ATOM      5  N   UNL     1       2.443  -6.414   2.360  0.00  0.00    -0.217 N 
ENDROOT
BRANCH   5   6
ATOM      6  C   UNL     1       3.694  -6.154   1.799  0.00  0.00    +0.054 A 
ATOM      7  C   UNL     1       3.787  -5.501   0.575  0.00  0.00    +0.025 A 
ATOM      8  C   UNL     1       5.026  -5.245   0.022  0.00  0.00    +0.003 A 
ATOM      9  C   UNL     1       6.175  -5.636   0.684  0.00  0.00    +0.020 A 
ATOM     10  C   UNL     1       6.088  -6.286   1.903  0.00  0.00    +0.043 A 
ATOM     11  C   UNL     1       4.851  -6.541   2.465  0.00  0.00    +0.045 A 
ATOM     12 CL   UNL     1       7.533  -6.776   2.730  0.00  0.00    -0.083 Cl
ENDBRANCH   5   6
BRANCH   1  16
ATOM     13  C   UNL     1       0.802  -1.824   1.306  0.00  0.00    +0.121 A 
ATOM     14  C   UNL     1       0.260  -2.673   0.351  0.00  0.00    +0.046 A 
ATOM     15  C   UNL     1       0.372  -4.041   0.502  0.00  0.00    +0.009 A 
ATOM     16  C   UNL     1       1.024  -4.566   1.603  0.00  0.00    -0.025 A 
ATOM     17  C   UNL     1       1.565  -3.722   2.555  0.00  0.00    +0.009 A 
ATOM     18  C   UNL     1       1.460  -2.353   2.406  0.00  0.00    +0.046 A 
BRANCH  13  19
ATOM     19  O   UNL     1       0.693  -0.477   1.160  0.00  0.00    -0.492 OA
BRANCH  19  21
ATOM     20  C   UNL     1      -0.019   1.526   0.010  0.00  0.00    +0.048 C 
ATOM     21  C   UNL     1       0.002  -0.004   0.002  0.00  0.00    +0.225 C 
ENDBRANCH  19  21
ENDBRANCH  13  19
ENDBRANCH   1  16
BRANCH   3  22
ATOM     22  C   UNL     1       0.465  -7.832   5.140  0.00  0.00    -0.033 C 
BRANCH  22  23
ATOM     23  N   UNL     1       1.597  -8.296   5.955  0.00  0.00    +0.382 N 
ATOM     24  H   UNL     1       2.179  -7.509   6.200  0.00  0.00    -0.090 HD
ATOM     25  H   UNL     1       1.249  -8.732   6.795  0.00  0.00    -0.090 HD
ATOM     26  H   UNL     1       2.138  -8.964   5.428  0.00  0.00    -0.090 HD
ENDBRANCH  22  23
ENDBRANCH   3  22
TORSDOF 6
