REMARK  Name = ZINC39452870
REMARK  4 active torsions:
REMARK  status: ('A' for Active; 'I' for Inactive)
REMARK    1  A    between atoms: C_1  and  O_2
REMARK    2  A    between atoms: O_2  and  C_3
REMARK    3  A    between atoms: C_14  and  C_20
REMARK    4  A    between atoms: C_25  and  O_26
REMARK                            x       y       z     vdW  Elec       q    Type
REMARK                         _______ _______ _______ _____ _____    ______ ____
ROOT
ATOM      1  C   UNL     1       0.652  -0.570  -1.138  0.00  0.00    +0.210 C 
ATOM      2  C   UNL     1       0.312  -2.062  -1.239  0.00  0.00    +0.132 C 
ATOM      3  C   UNL     1       1.172  -2.699  -2.299  0.00  0.00    +0.189 C 
ATOM      4  O   UNL     1       0.752  -3.655  -2.920  0.00  0.00    -0.290 OA
ATOM      5  C   UNL     1       2.462  -2.194  -2.580  0.00  0.00    +0.154 A 
ATOM      6  C   UNL     1       2.919  -1.071  -1.918  0.00  0.00    +0.086 A 
ATOM      7  C   UNL     1       4.265  -0.549  -2.206  0.00  0.00    +0.100 A 
ATOM      8  C   UNL     1       5.050  -1.227  -3.175  0.00  0.00    +0.070 A 
ATOM      9  C   UNL     1       6.323  -0.764  -3.476  0.00  0.00    +0.026 A 
ATOM     10  C   UNL     1       6.784   0.372  -2.797  0.00  0.00    +0.009 A 
ATOM     11  C   UNL     1       8.072   0.903  -3.054  0.00  0.00    -0.005 A 
ATOM     12  C   UNL     1       8.491   2.026  -2.363  0.00  0.00    +0.009 A 
ATOM     13  C   UNL     1       7.661   2.631  -1.425  0.00  0.00    +0.003 A 
ATOM     14  C   UNL     1       6.419   2.140  -1.160  0.00  0.00    +0.028 A 
ATOM     15  C   UNL     1       5.947   1.001  -1.838  0.00  0.00    +0.072 A 
ATOM     16  N   UNL     1       4.729   0.518  -1.583  0.00  0.00    -0.245 NA
ATOM     17  C   UNL     1       4.489  -2.412  -3.840  0.00  0.00    +0.297 A 
ATOM     18  O   UNL     1       5.144  -3.009  -4.675  0.00  0.00    -0.264 OA
ATOM     19  N   UNL     1       3.252  -2.837  -3.527  0.00  0.00    -0.088 N 
ATOM     20  O   UNL     1       2.735  -3.979  -4.186  0.00  0.00    -0.160 OA
ATOM     21  N   UNL     1       2.110  -0.438  -0.994  0.00  0.00    -0.315 N 
ATOM     22  H   UNL     1       2.493   0.079  -0.269  0.00  0.00    +0.149 HD
ENDROOT
BRANCH  11  23
ATOM     23  C   UNL     1       8.960   0.263  -4.050  0.00  0.00    +0.024 A 
ATOM     24  C   UNL     1      10.154  -0.333  -3.645  0.00  0.00    +0.012 A 
ATOM     25  C   UNL     1      10.977  -0.928  -4.577  0.00  0.00    +0.001 A 
ATOM     26  C   UNL     1      10.623  -0.938  -5.916  0.00  0.00    +0.004 A 
ATOM     27  C   UNL     1       9.443  -0.351  -6.329  0.00  0.00    +0.046 A 
ATOM     28  C   UNL     1       8.602   0.246  -5.403  0.00  0.00    +0.125 A 
BRANCH  28  29
ATOM     29  O   UNL     1       7.439   0.819  -5.808  0.00  0.00    -0.506 OA
ATOM     30  H   UNL     1       7.522   1.753  -6.045  0.00  0.00    +0.292 HD
ENDBRANCH  28  29
ENDBRANCH  11  23
BRANCH   1  32
ATOM     31  C   UNL     1      -0.017   1.425   0.010  0.00  0.00    +0.196 C 
ATOM     32  O   UNL     1       0.002  -0.004   0.002  0.00  0.00    -0.362 OA
ENDBRANCH   1  32
TORSDOF 3
