REMARK  Name = ZINC55198501
REMARK  6 active torsions:
REMARK  status: ('A' for Active; 'I' for Inactive)
REMARK    1  A    between atoms: C_1  and  C_2
REMARK    2  A    between atoms: C_2  and  C_3
REMARK    3  A    between atoms: C_6  and  C_9
REMARK    4  A    between atoms: C_9  and  C_10
REMARK    5  A    between atoms: C_9  and  C_11
REMARK    6  A    between atoms: C_9  and  N_21
REMARK                            x       y       z     vdW  Elec       q    Type
REMARK                         _______ _______ _______ _____ _____    ______ ____
ROOT
ATOM      1  C   UNL     1       2.797  -1.919   4.683  0.00  0.00    -0.022 C 
ATOM      2  C   UNL     1       3.040  -0.527   5.270  0.00  0.00    -0.001 C 
ENDROOT
BRANCH   1   3
ATOM      3  C   UNL     1       1.838  -2.675   5.566  0.00  0.00    -0.051 A 
ATOM      4  C   UNL     1       2.130  -3.971   5.950  0.00  0.00    +0.006 A 
ATOM      5  C   UNL     1       1.252  -4.668   6.759  0.00  0.00    +0.049 A 
ATOM      6  C   UNL     1       0.076  -4.070   7.187  0.00  0.00    +0.162 A 
ATOM      7  C   UNL     1      -0.216  -2.767   6.803  0.00  0.00    +0.162 A 
ATOM      8  C   UNL     1       0.671  -2.071   5.995  0.00  0.00    +0.052 A 
ATOM      9  O   UNL     1      -1.360  -2.158   7.218  0.00  0.00    -0.485 OA
ATOM     10  C   UNL     1      -2.395  -3.009   7.722  0.00  0.00    +0.270 C 
ATOM     11  C   UNL     1      -1.762  -4.013   8.694  0.00  0.00    +0.270 C 
ATOM     12  O   UNL     1      -0.780  -4.771   7.979  0.00  0.00    -0.485 OA
ENDBRANCH   1   3
BRANCH   1  16
ATOM     13  C   UNL     1       1.132  -1.545   0.767  0.00  0.00    -0.048 A 
ATOM     14  C   UNL     1       2.177  -2.421   0.993  0.00  0.00    +0.004 A 
ATOM     15  C   UNL     1       2.716  -2.542   2.261  0.00  0.00    +0.003 A 
ATOM     16  C   UNL     1       2.210  -1.786   3.302  0.00  0.00    -0.055 A 
ATOM     17  C   UNL     1       1.166  -0.909   3.076  0.00  0.00    +0.003 A 
ATOM     18  C   UNL     1       0.630  -0.785   1.808  0.00  0.00    +0.004 A 
BRANCH  13  20
ATOM     19  C   UNL     1       1.294  -0.325  -1.385  0.00  0.00    +0.009 C 
ATOM     20  C   UNL     1       0.544  -1.413  -0.614  0.00  0.00    +0.032 C 
ENDBRANCH  13  20
ENDBRANCH   1  16
BRANCH   1  21
ATOM     21  N   UNL     1       4.070  -2.647   4.607  0.00  0.00    +0.387 N 
ATOM     22  H   UNL     1       4.712  -2.141   4.016  0.00  0.00    -0.088 HD
ATOM     23  H   UNL     1       4.463  -2.736   5.532  0.00  0.00    -0.088 HD
ATOM     24  H   UNL     1       3.910  -3.565   4.220  0.00  0.00    -0.088 HD
ENDBRANCH   1  21
TORSDOF 4
