REMARK  Name = ZINC31993884
REMARK  7 active torsions:
REMARK  status: ('A' for Active; 'I' for Inactive)
REMARK    1  A    between atoms: C_1  and  N_2
REMARK    2  A    between atoms: N_2  and  C_3
REMARK    3  A    between atoms: N_2  and  C_4
REMARK    4  A    between atoms: C_10  and  O_12
REMARK    5  A    between atoms: O_12  and  C_13
REMARK    6  A    between atoms: C_16  and  N_20
REMARK    7  A    between atoms: C_18  and  N_19
REMARK                            x       y       z     vdW  Elec       q    Type
REMARK                         _______ _______ _______ _____ _____    ______ ____
ROOT
ATOM      1  C   UNL     1       1.242   2.761  -0.083  0.00  0.00    +0.141 A 
ATOM      2  C   UNL     1       1.434   1.399  -0.245  0.00  0.00    +0.050 A 
ATOM      3  C   UNL     1       0.345   0.560  -0.395  0.00  0.00    +0.036 A 
ATOM      4  C   UNL     1      -0.937   1.077  -0.390  0.00  0.00    +0.128 A 
ATOM      5  C   UNL     1      -1.138   2.435  -0.223  0.00  0.00    +0.059 A 
ATOM      6  C   UNL     1      -0.050   3.283  -0.072  0.00  0.00    +0.069 A 
ENDROOT
BRANCH   6   7
ATOM      7  N   UNL     1      -0.250   4.658   0.091  0.00  0.00    -0.355 N 
ATOM      8  H   UNL     1      -1.271   5.069   0.100  0.00  0.00    +0.142 HD
ATOM      9  H   UNL     1       0.613   5.329   0.211  0.00  0.00    +0.142 HD
ENDBRANCH   6   7
BRANCH   4  10
ATOM     10  N   UNL     1      -2.098   0.175  -0.558  0.00  0.00    +0.056 N 
ATOM     11  O   UNL     1      -1.923  -1.022  -0.701  0.00  0.00    -0.126 OA
ATOM     12  O   UNL     1      -3.228   0.629  -0.554  0.00  0.00    -0.126 OA
ENDBRANCH   4  10
BRANCH   1  13
ATOM     13  O   UNL     1       2.312   3.588   0.065  0.00  0.00    -0.489 OA
BRANCH  13  19
ATOM     14  C   UNL     1       4.558   3.899   0.901  0.00  0.00    -0.028 C 
ATOM     15  C   UNL     1       5.936   3.241   0.991  0.00  0.00    -0.012 C 
ATOM     16  C   UNL     1       6.473   2.988  -0.419  0.00  0.00    -0.001 C 
ATOM     17  C   UNL     1       5.515   2.062  -1.171  0.00  0.00    +0.003 C 
ATOM     18  C   UNL     1       4.136   2.720  -1.261  0.00  0.00    +0.043 C 
ATOM     19  C   UNL     1       3.599   2.974   0.149  0.00  0.00    +0.160 C 
BRANCH  14  21
ATOM     20  C   UNL     1       4.101   2.920   3.068  0.00  0.00    -0.096 C 
ATOM     21  N   UNL     1       4.042   4.142   2.255  0.00  0.00    +0.380 N 
ATOM     22  C   UNL     1       4.768   5.242   2.905  0.00  0.00    -0.096 C 
ATOM     23  H   UNL     1       2.987   4.439   2.166  0.00  0.00    -0.082 HD
ENDBRANCH  14  21
ENDBRANCH  13  19
ENDBRANCH   1  13
TORSDOF 5
