REMARK  Name = ZINC56650678
REMARK  11 active torsions:
REMARK  status: ('A' for Active; 'I' for Inactive)
REMARK    1  A    between atoms: C_1  and  C_2
REMARK    2  A    between atoms: C_2  and  C_27
REMARK    3  A    between atoms: C_4  and  N_10
REMARK    4  A    between atoms: C_6  and  C_8
REMARK    5  A    between atoms: C_6  and  C_9
REMARK    6  A    between atoms: N_13  and  C_14
REMARK    7  A    between atoms: C_16  and  C_22
REMARK    8  A    between atoms: C_19  and  O_20
REMARK    9  A    between atoms: O_20  and  C_21
REMARK   10  A    between atoms: N_24  and  C_25
REMARK   11  A    between atoms: N_24  and  C_26
REMARK                            x       y       z     vdW  Elec       q    Type
REMARK                         _______ _______ _______ _____ _____    ______ ____
ROOT
ATOM      1  N   UNL     1      -3.069  -1.215   2.084  0.00  0.00    -0.296 N 
ATOM      2  C   UNL     1      -4.196  -0.696   2.609  0.00  0.00    +0.304 C 
ATOM      3  O   UNL     1      -4.128   0.176   3.454  0.00  0.00    -0.252 OA
ATOM      4  N   UNL     1      -5.399  -1.143   2.197  0.00  0.00    -0.266 N 
ATOM      5  H   UNL     1      -3.123  -1.911   1.410  0.00  0.00    +0.151 HD
ATOM      6  H   UNL     1      -5.456  -1.786   1.473  0.00  0.00    +0.156 HD
ENDROOT
BRANCH   1  10
ATOM      7  C   UNL     1       0.713   1.030   1.859  0.00  0.00    -0.010 C 
ATOM      8  C   UNL     1       0.652  -0.500   1.882  0.00  0.00    -0.072 C 
ATOM      9  C   UNL     1      -0.727  -0.969   1.430  0.00  0.00    +0.009 C 
ATOM     10  C   UNL     1      -1.758  -0.728   2.533  0.00  0.00    +0.072 C 
ATOM     11  C   UNL     1      -1.325  -1.514   3.770  0.00  0.00    +0.009 C 
ATOM     12  C   UNL     1       0.050  -1.051   4.239  0.00  0.00    -0.072 C 
ATOM     13  N   UNL     1       1.042  -1.025   3.179  0.00  0.00    +0.386 N 
ATOM     14  C   UNL     1       0.534  -2.054   5.311  0.00  0.00    -0.010 C 
ATOM     15  C   UNL     1      -0.069   0.315   4.924  0.00  0.00    -0.010 C 
ATOM     16  C   UNL     1       1.677  -1.010   0.841  0.00  0.00    -0.010 C 
ATOM     17  H   UNL     1       1.393  -1.979   3.046  0.00  0.00    -0.084 HD
ATOM     18  H   UNL     1       1.853  -0.493   3.510  0.00  0.00    -0.084 HD
ENDBRANCH   1  10
BRANCH   4  19
ATOM     19  C   UNL     1      -6.569  -0.679   2.816  0.00  0.00    +0.077 A 
ATOM     20  C   UNL     1      -6.631   0.617   3.294  0.00  0.00    +0.040 A 
ATOM     21  C   UNL     1      -7.798   1.076   3.909  0.00  0.00    +0.039 A 
ATOM     22  C   UNL     1      -8.898   0.223   4.039  0.00  0.00    +0.017 A 
ATOM     23  C   UNL     1      -8.830  -1.067   3.561  0.00  0.00    +0.048 A 
ATOM     24  C   UNL     1      -7.672  -1.523   2.944  0.00  0.00    +0.141 A 
BRANCH  21  25
ATOM     25  C   UNL     1      -7.870   2.458   4.421  0.00  0.00    +0.246 C 
ATOM     26  O   UNL     1      -7.501   3.385   3.725  0.00  0.00    -0.270 OA
ATOM     27  N   UNL     1      -8.345   2.694   5.660  0.00  0.00    -0.304 N 
ATOM     28  C   UNL     1      -8.327   4.054   6.205  0.00  0.00    +0.132 C 
ATOM     29  C   UNL     1      -8.878   1.590   6.463  0.00  0.00    +0.132 C 
ENDBRANCH  21  25
BRANCH  24  30
ATOM     30  O   UNL     1      -7.612  -2.794   2.470  0.00  0.00    -0.493 OA
ATOM     31  C   UNL     1      -8.778  -3.603   2.635  0.00  0.00    +0.277 C 
ENDBRANCH  24  30
ENDBRANCH   4  19
TORSDOF 4
