REMARK  Name = ZINC34887488
REMARK  6 active torsions:
REMARK  status: ('A' for Active; 'I' for Inactive)
REMARK    1  A    between atoms: C_1  and  C_2
REMARK    2  A    between atoms: N_7  and  S_9
REMARK    3  A    between atoms: S_9  and  N_12
REMARK    4  A    between atoms: C_16  and  N_19
REMARK    5  A    between atoms: N_19  and  S_20
REMARK    6  A    between atoms: S_20  and  C_23
REMARK                            x       y       z     vdW  Elec       q    Type
REMARK                         _______ _______ _______ _____ _____    ______ ____
ROOT
ATOM      1  N   UNL     1       1.630  -3.146   3.422  0.00  0.00    -0.165 NA
ATOM      2  C   UNL     1       2.571  -4.259   3.236  0.00  0.00    +0.110 C 
ATOM      3  C   UNL     1       3.994  -3.696   3.173  0.00  0.00    +0.019 C 
ATOM      4  C   UNL     1       4.259  -2.851   4.422  0.00  0.00    +0.023 C 
ATOM      5  C   UNL     1       3.277  -1.679   4.465  0.00  0.00    +0.092 C 
ATOM      6  C   UNL     1       1.849  -2.215   4.538  0.00  0.00    +0.131 C 
ENDROOT
BRANCH   1   7
ATOM      7  S   UNL     1       0.350  -2.942   2.392  0.00  0.00    +0.100 S 
ATOM      8  O   UNL     1      -0.630  -2.199   3.104  0.00  0.00    -0.141 OA
ATOM      9  O   UNL     1       0.077  -4.216   1.825  0.00  0.00    -0.141 OA
BRANCH   7  15
ATOM     10  C   UNL     1      -0.019   1.526   0.010  0.00  0.00    +0.009 C 
ATOM     11  C   UNL     1       0.002  -0.004   0.002  0.00  0.00    +0.002 C 
ATOM     12  C   UNL     1       0.720  -0.498  -1.256  0.00  0.00    +0.006 C 
ATOM     13  C   UNL     1       0.712  -2.028  -1.282  0.00  0.00    +0.017 C 
ATOM     14  C   UNL     1       1.463  -2.559  -0.057  0.00  0.00    +0.110 C 
ATOM     15  N   UNL     1       0.869  -1.973   1.153  0.00  0.00    -0.166 NA
ATOM     16  C   UNL     1       0.744  -0.512   1.242  0.00  0.00    +0.113 C 
ENDBRANCH   7  15
ENDBRANCH   1   7
BRANCH   5  17
ATOM     17  N   UNL     1       3.553  -0.853   5.643  0.00  0.00    -0.190 NA
ATOM     18  H   UNL     1       3.165  -1.087   6.501  0.00  0.00    +0.148 HD
BRANCH  17  19
ATOM     19  S   UNL     1       4.526   0.481   5.510  0.00  0.00    +0.027 S 
ATOM     20  O   UNL     1       4.590   1.015   6.825  0.00  0.00    -0.158 OA
ATOM     21  O   UNL     1       5.699   0.011   4.860  0.00  0.00    -0.158 OA
ATOM     22  C   UNL     1       3.619   1.613   4.421  0.00  0.00    +0.214 C 
ENDBRANCH  17  19
ENDBRANCH   5  17
TORSDOF 4
