REMARK  Name = ZINC13019445
REMARK  11 active torsions:
REMARK  status: ('A' for Active; 'I' for Inactive)
REMARK    1  A    between atoms: C_1  and  C_2
REMARK    2  A    between atoms: C_2  and  N_3
REMARK    3  A    between atoms: C_9  and  C_28
REMARK    4  A    between atoms: C_13  and  S_14
REMARK    5  A    between atoms: S_14  and  C_15
REMARK    6  A    between atoms: C_15  and  C_17
REMARK    7  A    between atoms: C_15  and  C_18
REMARK    8  A    between atoms: N_23  and  C_24
REMARK    9  A    between atoms: C_24  and  C_25
REMARK   10  A    between atoms: C_24  and  C_26
REMARK   11  A    between atoms: C_24  and  C_27
REMARK                            x       y       z     vdW  Elec       q    Type
REMARK                         _______ _______ _______ _____ _____    ______ ____
ROOT
ATOM      1  N   UNL     1      -6.371   1.183   1.070  0.00  0.00    -0.288 N 
ATOM      2  C   UNL     1      -7.416   0.325   1.119  0.00  0.00    +0.262 A 
ATOM      3  O   UNL     1      -8.517   0.693   1.484  0.00  0.00    -0.267 OA
ATOM      4  C   UNL     1      -7.173  -1.069   0.715  0.00  0.00    +0.065 A 
ATOM      5  C   UNL     1      -8.189  -2.024   0.733  0.00  0.00    +0.016 A 
ATOM      6  C   UNL     1      -7.923  -3.307   0.350  0.00  0.00    +0.016 A 
ATOM      7  C   UNL     1      -6.636  -3.676  -0.062  0.00  0.00    +0.065 A 
ATOM      8  C   UNL     1      -5.609  -2.741  -0.087  0.00  0.00    +0.043 A 
ATOM      9  C   UNL     1      -5.869  -1.424   0.303  0.00  0.00    +0.080 A 
ATOM     10  N   UNL     1      -4.900  -0.478   0.288  0.00  0.00    -0.223 NA
ATOM     11  C   UNL     1      -5.141   0.755   0.658  0.00  0.00    +0.173 A 
ENDROOT
BRANCH   7  12
ATOM     12  C   UNL     1      -6.368  -5.072  -0.473  0.00  0.00    +0.387 C 
ATOM     13  O   UNL     1      -5.254  -5.397  -0.830  0.00  0.00    -0.241 OA
ATOM     14  O   UNL     1      -7.361  -5.983  -0.450  0.00  0.00    -0.241 OA
ENDBRANCH   7  12
BRANCH   1  16
ATOM     15  C   UNL     1      -6.965   3.404   0.237  0.00  0.00    +0.027 C 
ATOM     16  C   UNL     1      -6.560   2.582   1.462  0.00  0.00    +0.124 C 
ENDBRANCH   1  16
BRANCH  11  17
ATOM     17  S   UNL     1      -3.818   1.918   0.614  0.00  0.00    -0.075 S 
BRANCH  17  18
ATOM     18  C   UNL     1      -2.482   0.853   0.018  0.00  0.00    +0.137 C 
ATOM     19  C   UNL     1      -2.799   0.384  -1.403  0.00  0.00    +0.029 C 
BRANCH  18  20
ATOM     20  C   UNL     1      -1.187   1.624   0.017  0.00  0.00    +0.233 C 
ATOM     21  O   UNL     1      -1.204   2.836   0.023  0.00  0.00    -0.274 OA
ATOM     22  N   UNL     1      -0.011   0.966   0.007  0.00  0.00    -0.239 N 
ATOM     23  C   UNL     1       1.147   1.655   0.000  0.00  0.00    +0.306 C 
ATOM     24  O   UNL     1       1.130   2.871   0.007  0.00  0.00    -0.252 OA
ATOM     25  N   UNL     1       2.323   0.998  -0.015  0.00  0.00    -0.294 N 
ATOM     26  H   UNL     1       0.002  -0.004   0.002  0.00  0.00    +0.159 HD
ATOM     27  H   UNL     1       2.336   0.028  -0.020  0.00  0.00    +0.151 HD
BRANCH  25  28
ATOM     28  C   UNL     1       3.582   1.747  -0.023  0.00  0.00    +0.028 C 
ATOM     29  C   UNL     1       3.663   2.621   1.230  0.00  0.00    +0.031 C 
ATOM     30  C   UNL     1       4.758   0.769  -0.039  0.00  0.00    +0.031 C 
ATOM     31  C   UNL     1       3.639   2.635  -1.268  0.00  0.00    +0.031 C 
ENDBRANCH  25  28
ENDBRANCH  18  20
ENDBRANCH  17  18
ENDBRANCH  11  17
TORSDOF 6
