REMARK  Name = ZINC00410357
REMARK  6 active torsions:
REMARK  status: ('A' for Active; 'I' for Inactive)
REMARK    1  A    between atoms: C_1  and  N_2
REMARK    2  A    between atoms: C_3  and  C_16
REMARK    3  A    between atoms: C_6  and  S_7
REMARK    4  A    between atoms: S_7  and  C_8
REMARK    5  A    between atoms: C_8  and  C_9
REMARK    6  A    between atoms: C_21  and  N_22
REMARK                            x       y       z     vdW  Elec       q    Type
REMARK                         _______ _______ _______ _____ _____    ______ ____
ROOT
ATOM      1  C   UNL     1       3.769  -2.508  -0.279  0.00  0.00    +0.153 C 
ATOM      2  N   UNL     1       2.380  -2.952  -0.138  0.00  0.00    -0.305 N 
ATOM      3  C   UNL     1       1.286  -2.176   0.169  0.00  0.00    +0.166 A 
ATOM      4  N   UNL     1       0.242  -2.972   0.188  0.00  0.00    -0.128 NA
ATOM      5  N   UNL     1       0.604  -4.176  -0.076  0.00  0.00    -0.122 NA
ATOM      6  C   UNL     1       1.901  -4.224  -0.280  0.00  0.00    +0.192 A 
ENDROOT
BRANCH   3   7
ATOM      7  C   UNL     1       1.285  -0.720   0.422  0.00  0.00    +0.040 A 
ATOM      8  C   UNL     1       2.221  -0.159   1.291  0.00  0.00    +0.013 A 
ATOM      9  C   UNL     1       2.215   1.201   1.524  0.00  0.00    +0.001 A 
ATOM     10  C   UNL     1       1.284   2.013   0.898  0.00  0.00    +0.002 A 
ATOM     11  C   UNL     1       0.352   1.470   0.035  0.00  0.00    +0.023 A 
ATOM     12  C   UNL     1       0.344   0.105  -0.210  0.00  0.00    +0.035 A 
BRANCH  12  13
ATOM     13  N   UNL     1      -0.596  -0.445  -1.081  0.00  0.00    -0.357 N 
ATOM     14  H   UNL     1      -1.247   0.128  -1.516  0.00  0.00    +0.142 HD
ATOM     15  H   UNL     1      -0.600  -1.400  -1.251  0.00  0.00    +0.142 HD
ENDBRANCH  12  13
ENDBRANCH   3   7
BRANCH   6  16
ATOM     16  S   UNL     1       2.845  -5.659  -0.672  0.00  0.00    -0.081 S 
BRANCH  16  17
ATOM     17  C   UNL     1       1.532  -6.904  -0.691  0.00  0.00    +0.112 C 
BRANCH  17  18
ATOM     18  C   UNL     1       2.123  -8.252  -1.014  0.00  0.00    -0.037 A 
ATOM     19  C   UNL     1       2.212  -8.669  -2.329  0.00  0.00    +0.007 A 
ATOM     20  C   UNL     1       2.758  -9.903  -2.628  0.00  0.00    +0.038 A 
ATOM     21  C   UNL     1       3.206 -10.726  -1.608  0.00  0.00    +0.123 A 
ATOM     22  C   UNL     1       3.111 -10.310  -0.291  0.00  0.00    +0.038 A 
ATOM     23  C   UNL     1       2.570  -9.073   0.004  0.00  0.00    +0.007 A 
ATOM     24  F   UNL     1       3.735 -11.935  -1.898  0.00  0.00    -0.205 F 
ENDBRANCH  17  18
ENDBRANCH  16  17
ENDBRANCH   6  16
TORSDOF 5
