REMARK  Name = ZINC23232545
REMARK  9 active torsions:
REMARK  status: ('A' for Active; 'I' for Inactive)
REMARK    1  A    between atoms: C_1  and  C_2
REMARK    2  A    between atoms: C_7  and  C_27
REMARK    3  A    between atoms: N_9  and  C_10
REMARK    4  A    between atoms: C_10  and  C_11
REMARK    5  A    between atoms: C_15  and  C_17
REMARK    6  A    between atoms: C_22  and  C_24
REMARK    7  A    between atoms: C_24  and  C_25
REMARK    8  A    between atoms: C_25  and  N_26
REMARK    9  A    between atoms: C_27  and  C_28
REMARK                            x       y       z     vdW  Elec       q    Type
REMARK                         _______ _______ _______ _____ _____    ______ ____
ROOT
ATOM      1  C   UNL     1      -2.002  -0.018  -0.906  0.00  0.00    -0.063 A 
ATOM      2  C   UNL     1      -0.901   0.358  -1.654  0.00  0.00    +0.002 A 
ATOM      3  C   UNL     1      -0.252  -0.565  -2.455  0.00  0.00    +0.001 A 
ATOM      4  C   UNL     1      -0.707  -1.865  -2.521  0.00  0.00    +0.011 A 
ATOM      5  C   UNL     1      -1.821  -2.251  -1.774  0.00  0.00    +0.019 A 
ATOM      6  C   UNL     1      -2.468  -1.316  -0.963  0.00  0.00    +0.013 A 
ENDROOT
BRANCH   5   7
ATOM      7  C   UNL     1      -2.314  -3.642  -1.840  0.00  0.00    +0.164 A 
ATOM      8  N   UNL     1      -1.610  -4.569  -2.550  0.00  0.00    -0.189 NA
ATOM      9  C   UNL     1      -2.054  -5.842  -2.614  0.00  0.00    +0.274 A 
ATOM     10  O   UNL     1      -1.438  -6.685  -3.244  0.00  0.00    -0.266 OA
ATOM     11  C   UNL     1      -3.244  -6.178  -1.938  0.00  0.00    +0.095 A 
ATOM     12  C   UNL     1      -3.904  -5.207  -1.244  0.00  0.00    +0.047 A 
ATOM     13  N   UNL     1      -3.422  -3.967  -1.207  0.00  0.00    -0.232 NA
BRANCH  12  14
ATOM     14  C   UNL     1      -5.178  -5.541  -0.512  0.00  0.00    +0.036 C 
BRANCH  14  15
ATOM     15  C   UNL     1      -4.859  -5.858   0.950  0.00  0.00    -0.080 C 
BRANCH  15  16
ATOM     16  N   UNL     1      -6.101  -6.183   1.664  0.00  0.00    +0.378 N 
ATOM     17  H   UNL     1      -5.871  -6.411   2.715  0.00  0.00    -0.090 HD
ATOM     18  H   UNL     1      -6.576  -7.057   1.194  0.00  0.00    -0.090 HD
ATOM     19  H   UNL     1      -6.787  -5.324   1.616  0.00  0.00    -0.090 HD
ENDBRANCH  15  16
ENDBRANCH  14  15
ENDBRANCH  12  14
ENDBRANCH   5   7
BRANCH   1  20
ATOM     20  C   UNL     1      -2.699   0.992  -0.032  0.00  0.00    -0.042 C 
BRANCH  20  27
ATOM     21  C   UNL     1      -3.476  -0.721   2.056  0.00  0.00    -0.009 C 
ATOM     22  C   UNL     1      -2.033  -0.224   1.952  0.00  0.00    -0.048 C 
ATOM     23  C   UNL     1      -1.452  -0.091   3.331  0.00  0.00    -0.047 C 
ATOM     24  C   UNL     1      -1.303   1.048   3.934  0.00  0.00    -0.034 C 
ATOM     25  C   UNL     1      -1.690   2.360   3.309  0.00  0.00    +0.012 C 
ATOM     26  C   UNL     1      -2.618   2.110   2.118  0.00  0.00    -0.060 C 
ATOM     27  N   UNL     1      -2.013   1.073   1.265  0.00  0.00    +0.389 N 
ATOM     28  H   UNL     1      -0.966   1.347   1.070  0.00  0.00    -0.080 HD
BRANCH  26  29
ATOM     29  C   UNL     1      -2.784   3.402   1.316  0.00  0.00    +0.012 C 
BRANCH  29  30
ATOM     30  C   UNL     1      -3.424   4.454   2.185  0.00  0.00    -0.036 C 
ATOM     31  C   UNL     1      -2.836   5.613   2.352  0.00  0.00    +0.004 C 
ENDBRANCH  29  30
ENDBRANCH  26  29
ENDBRANCH  20  27
ENDBRANCH   1  20
TORSDOF 8
