REMARK  Name = ZINC04597182
REMARK  5 active torsions:
REMARK  status: ('A' for Active; 'I' for Inactive)
REMARK    1  A    between atoms: C_1  and  C_2
REMARK    2  A    between atoms: C_2  and  C_27
REMARK    3  A    between atoms: C_6  and  C_16
REMARK    4  A    between atoms: C_19  and  O_23
REMARK    5  A    between atoms: C_21  and  O_22
REMARK                            x       y       z     vdW  Elec       q    Type
REMARK                         _______ _______ _______ _____ _____    ______ ____
ROOT
ATOM      1  C   UNL     1      -0.599  -5.744   0.487  0.00  0.00    +0.011 C 
ATOM      2  C   UNL     1       0.263  -5.455   1.718  0.00  0.00    -0.023 C 
ATOM      3  C   UNL     1       1.270  -4.352   1.398  0.00  0.00    +0.058 C 
ATOM      4  C   UNL     1       0.537  -3.084   0.989  0.00  0.00    +0.017 C 
ATOM      5  C   UNL     1      -0.658  -2.787   1.525  0.00  0.00    +0.037 C 
ATOM      6  C   UNL     1      -1.479  -1.554   1.231  0.00  0.00    +0.139 C 
ATOM      7  N   UNL     1      -1.015  -0.783   0.098  0.00  0.00    -0.331 N 
ATOM      8  C   UNL     1       0.230  -0.158   0.114  0.00  0.00    +0.049 A 
ATOM      9  C   UNL     1       0.345   1.224   0.124  0.00  0.00    +0.025 A 
ATOM     10  C   UNL     1       1.600   1.802   0.203  0.00  0.00    +0.002 A 
ATOM     11  C   UNL     1       2.731   1.011   0.287  0.00  0.00    +0.002 A 
ATOM     12  C   UNL     1       2.620  -0.369   0.273  0.00  0.00    +0.025 A 
ATOM     13  C   UNL     1       1.368  -0.948   0.167  0.00  0.00    +0.052 A 
ATOM     14  N   UNL     1       1.191  -2.324   0.074  0.00  0.00    -0.316 N 
ATOM     15  C   UNL     1      -1.262  -3.667   2.454  0.00  0.00    +0.163 C 
ATOM     16  O   UNL     1      -2.336  -3.364   2.934  0.00  0.00    -0.292 OA
ATOM     17  C   UNL     1      -0.623  -4.959   2.867  0.00  0.00    +0.086 C 
ATOM     18  C   UNL     1       1.002  -6.724   2.145  0.00  0.00    +0.011 C 
ATOM     19  H   UNL     1      -1.649  -0.683  -0.796  0.00  0.00    +0.147 HD
ATOM     20  H   UNL     1       1.627  -2.794  -0.821  0.00  0.00    +0.152 HD
ENDROOT
BRANCH   6  21
ATOM     21  C   UNL     1      -1.464  -0.668   2.450  0.00  0.00    +0.019 A 
ATOM     22  C   UNL     1      -0.454  -0.796   3.385  0.00  0.00    +0.013 A 
ATOM     23  C   UNL     1      -0.437   0.015   4.503  0.00  0.00    +0.046 A 
ATOM     24  C   UNL     1      -1.435   0.960   4.691  0.00  0.00    +0.120 A 
ATOM     25  C   UNL     1      -2.450   1.091   3.756  0.00  0.00    +0.091 A 
ATOM     26  C   UNL     1      -2.461   0.280   2.631  0.00  0.00    +0.126 A 
BRANCH  26  27
ATOM     27  O   UNL     1      -3.452   0.409   1.710  0.00  0.00    -0.506 OA
ATOM     28  H   UNL     1      -4.242   1.160   1.853  0.00  0.00    +0.292 HD
ENDBRANCH  26  27
BRANCH  24  29
ATOM     29  O   UNL     1      -1.418   1.758   5.791  0.00  0.00    -0.507 OA
ATOM     30  H   UNL     1      -2.209   2.507   5.940  0.00  0.00    +0.292 HD
ENDBRANCH  24  29
ENDBRANCH   6  21
TORSDOF 3
