REMARK  Name = ZINC42073439
REMARK  5 active torsions:
REMARK  status: ('A' for Active; 'I' for Inactive)
REMARK    1  A    between atoms: C_1  and  C_2
REMARK    2  A    between atoms: C_4  and  C_23
REMARK    3  A    between atoms: C_8  and  N_13
REMARK    4  A    between atoms: N_13  and  C_14
REMARK    5  A    between atoms: C_20  and  C_22
REMARK                            x       y       z     vdW  Elec       q    Type
REMARK                         _______ _______ _______ _____ _____    ______ ____
ROOT
ATOM      1  C   UNL     1      -3.749  -2.938   5.581  0.00  0.00    +0.044 C 
ATOM      2  C   UNL     1      -3.022  -2.537   4.323  0.00  0.00    -0.050 A 
ATOM      3  C   UNL     1      -3.549  -1.560   3.499  0.00  0.00    +0.008 A 
ATOM      4  C   UNL     1      -2.888  -1.188   2.347  0.00  0.00    -0.029 A 
ATOM      5  C   UNL     1      -1.682  -1.796   2.005  0.00  0.00    +0.038 A 
ATOM      6  C   UNL     1      -1.162  -2.776   2.841  0.00  0.00    -0.031 A 
ATOM      7  C   UNL     1      -1.821  -3.142   3.993  0.00  0.00    +0.007 A 
ATOM      8  C   UNL     1       0.132  -3.234   2.208  0.00  0.00    +0.049 C 
ATOM      9  C   UNL     1       0.243  -2.396   0.952  0.00  0.00    +0.208 C 
ATOM     10  O   UNL     1       1.139  -2.437   0.136  0.00  0.00    -0.277 OA
ATOM     11  N   UNL     1      -0.838  -1.598   0.912  0.00  0.00    -0.286 N 
ATOM     12  C   UNL     1      -3.472  -0.123   1.455  0.00  0.00    +0.045 C 
ATOM     13  H   UNL     1      -1.011  -0.958   0.204  0.00  0.00    +0.155 HD
ENDROOT
BRANCH   8  14
ATOM     14  N   UNL     1       1.265  -2.973   3.106  0.00  0.00    +0.391 N 
ATOM     15  H   UNL     1       2.128  -3.181   2.627  0.00  0.00    -0.084 HD
ATOM     16  H   UNL     1       1.258  -2.002   3.382  0.00  0.00    -0.084 HD
BRANCH  14  17
ATOM     17  C   UNL     1       1.149  -3.822   4.299  0.00  0.00    -0.067 C 
ATOM     18  C   UNL     1       1.246  -5.293   3.889  0.00  0.00    -0.015 C 
ATOM     19  C   UNL     1       1.127  -6.178   5.131  0.00  0.00    -0.002 C 
ATOM     20  C   UNL     1       2.258  -5.845   6.106  0.00  0.00    +0.000 C 
ATOM     21  C   UNL     1       2.161  -4.374   6.516  0.00  0.00    +0.002 C 
ATOM     22  C   UNL     1       2.281  -3.489   5.274  0.00  0.00    -0.028 C 
ATOM     23  C   UNL     1       2.184  -2.018   5.684  0.00  0.00    +0.006 C 
ENDBRANCH  14  17
ENDBRANCH   8  14
TORSDOF 2
