REMARK  Name = ZINC43654910
REMARK  7 active torsions:
REMARK  status: ('A' for Active; 'I' for Inactive)
REMARK    1  A    between atoms: C_1  and  C_2
REMARK    2  A    between atoms: C_2  and  C_3
REMARK    3  A    between atoms: C_3  and  C_4
REMARK    4  A    between atoms: C_8  and  N_24
REMARK    5  A    between atoms: C_10  and  C_13
REMARK    6  A    between atoms: C_13  and  C_14
REMARK    7  A    between atoms: C_19  and  N_20
REMARK                            x       y       z     vdW  Elec       q    Type
REMARK                         _______ _______ _______ _____ _____    ______ ____
ROOT
ATOM      1  C   UNL     1      -1.626  -1.829   0.032  0.00  0.00    -0.011 C 
ATOM      2  C   UNL     1      -1.059  -2.195  -1.342  0.00  0.00    +0.002 C 
ATOM      3  C   UNL     1      -0.923  -3.715  -1.449  0.00  0.00    -0.016 C 
ATOM      4  C   UNL     1      -2.298  -4.363  -1.276  0.00  0.00    -0.072 C 
ATOM      5  C   UNL     1      -2.865  -3.998   0.098  0.00  0.00    -0.021 C 
ATOM      6  C   UNL     1      -3.001  -2.478   0.205  0.00  0.00    +0.005 C 
ENDROOT
BRANCH   4   7
ATOM      7  N   UNL     1      -2.168  -5.823  -1.379  0.00  0.00    +0.380 N 
ATOM      8  H   UNL     1      -1.546  -6.157  -0.658  0.00  0.00    -0.090 HD
ATOM      9  H   UNL     1      -3.075  -6.251  -1.264  0.00  0.00    -0.090 HD
ATOM     10  H   UNL     1      -1.794  -6.064  -2.284  0.00  0.00    -0.090 HD
ENDBRANCH   4   7
BRANCH   1  11
ATOM     11  C   UNL     1      -1.762  -0.309   0.139  0.00  0.00    +0.003 C 
BRANCH  11  13
ATOM     12  C   UNL     1      -0.510   1.852   0.198  0.00  0.00    +0.004 C 
ATOM     13  C   UNL     1      -0.374   0.332   0.090  0.00  0.00    -0.003 C 
ENDBRANCH  11  13
ENDBRANCH   1  11
BRANCH   5  14
ATOM     14  C   UNL     1      -4.240  -4.646   0.271  0.00  0.00    +0.039 C 
BRANCH  14  15
ATOM     15  C   UNL     1      -4.752  -4.374   1.662  0.00  0.00    -0.014 A 
ATOM     16  C   UNL     1      -5.668  -3.360   1.875  0.00  0.00    +0.044 A 
ATOM     17  C   UNL     1      -6.138  -3.110   3.153  0.00  0.00    +0.124 A 
ATOM     18  C   UNL     1      -5.691  -3.877   4.216  0.00  0.00    +0.040 A 
ATOM     19  C   UNL     1      -4.776  -4.889   4.001  0.00  0.00    +0.036 A 
ATOM     20  C   UNL     1      -4.311  -5.141   2.723  0.00  0.00    +0.130 A 
ATOM     21  F   UNL     1      -7.032  -2.120   3.362  0.00  0.00    -0.205 F 
BRANCH  20  22
ATOM     22  N   UNL     1      -3.336  -6.231   2.493  0.00  0.00    +0.057 N 
ATOM     23  O   UNL     1      -3.014  -6.957   3.404  0.00  0.00    -0.126 OA
ATOM     24  O   UNL     1      -2.861  -6.394   1.393  0.00  0.00    -0.126 OA
ENDBRANCH  20  22
ENDBRANCH  14  15
ENDBRANCH   5  14
TORSDOF 6
