REMARK  Name = ZINC33780106
REMARK  10 active torsions:
REMARK  status: ('A' for Active; 'I' for Inactive)
REMARK    1  A    between atoms: C_1  and  C_2
REMARK    2  A    between atoms: C_2  and  C_3
REMARK    3  A    between atoms: C_2  and  C_4
REMARK    4  A    between atoms: C_5  and  O_25
REMARK    5  A    between atoms: C_8  and  O_11
REMARK    6  A    between atoms: C_9  and  O_10
REMARK    7  A    between atoms: C_12  and  C_24
REMARK    8  A    between atoms: C_16  and  C_22
REMARK    9  A    between atoms: C_16  and  C_23
REMARK   10  A    between atoms: C_18  and  O_21
REMARK                            x       y       z     vdW  Elec       q    Type
REMARK                         _______ _______ _______ _____ _____    ______ ____
ROOT
ATOM      1  C   UNL     1       0.002  -0.004   0.002  0.00  0.00    +0.042 A 
ATOM      2  C   UNL     1       1.278  -0.675  -0.069  0.00  0.00    +0.135 A 
ATOM      3  C   UNL     1       2.443   0.091   0.036  0.00  0.00    +0.075 A 
ATOM      4  C   UNL     1       2.378   1.504  -0.013  0.00  0.00    +0.022 A 
ATOM      5  C   UNL     1       1.162   2.063   0.002  0.00  0.00    +0.164 A 
ATOM      6  C   UNL     1      -0.017   1.378   0.010  0.00  0.00    +0.166 A 
ATOM      7  C   UNL     1       3.683   2.300  -0.081  0.00  0.00    +0.023 C 
ATOM      8  C   UNL     1       3.595   3.375  -1.110  0.00  0.00    +0.016 C 
ATOM      9  C   UNL     1       4.837   4.367  -0.871  0.00  0.00    +0.002 C 
ATOM     10  C   UNL     1       6.163   3.606  -0.994  0.00  0.00    +0.011 C 
ATOM     11  C   UNL     1       6.287   2.214  -0.411  0.00  0.00    -0.009 C 
ATOM     12  C   UNL     1       4.976   1.512  -0.157  0.00  0.00    -0.008 C 
ATOM     13  C   UNL     1       4.959   0.207  -0.021  0.00  0.00    +0.165 C 
ATOM     14  C   UNL     1       3.723  -0.562   0.078  0.00  0.00    +0.231 C 
ATOM     15  O   UNL     1       3.808  -1.803   0.203  0.00  0.00    -0.283 OA
ATOM     16  C   UNL     1       6.991   2.359   0.892  0.00  0.00    +0.015 C 
ATOM     17  C   UNL     1       7.106   1.456  -1.394  0.00  0.00    +0.015 C 
ATOM     18  C   UNL     1       3.747   2.947   1.240  0.00  0.00    +0.021 C 
ENDROOT
BRANCH   1  20
ATOM     19  C   UNL     1      -2.095  -0.540   1.137  0.00  0.00    +0.012 C 
ATOM     20  C   UNL     1      -1.199  -0.836  -0.068  0.00  0.00    +0.020 C 
ATOM     21  C   UNL     1      -1.961  -0.525  -1.357  0.00  0.00    +0.012 C 
ENDBRANCH   1  20
BRANCH   6  22
ATOM     22  O   UNL     1      -1.147   1.941  -0.023  0.00  0.00    -0.503 OA
ATOM     23  H   UNL     1      -1.215   3.038  -0.019  0.00  0.00    +0.292 HD
ENDBRANCH   6  22
BRANCH   5  24
ATOM     24  O   UNL     1       1.073   3.410   0.049  0.00  0.00    -0.503 OA
ATOM     25  H   UNL     1       0.086   3.896   0.062  0.00  0.00    +0.292 HD
ENDBRANCH   5  24
BRANCH  13  26
ATOM     26  O   UNL     1       6.125  -0.477   0.199  0.00  0.00    -0.503 OA
ATOM     27  H   UNL     1       6.108  -1.571   0.313  0.00  0.00    +0.292 HD
ENDBRANCH  13  26
BRANCH   2  28
ATOM     28  O   UNL     1       1.323  -2.046  -0.091  0.00  0.00    -0.506 OA
ATOM     29  H   UNL     1       2.292  -2.564  -0.145  0.00  0.00    +0.292 HD
ENDBRANCH   2  28
TORSDOF 5
