REMARK  Name = ZINC01593797
REMARK  3 active torsions:
REMARK  status: ('A' for Active; 'I' for Inactive)
REMARK    1  A    between atoms: C_1  and  O_2
REMARK    2  A    between atoms: O_2  and  C_3
REMARK    3  A    between atoms: C_11  and  N_17
REMARK                            x       y       z     vdW  Elec       q    Type
REMARK                         _______ _______ _______ _____ _____    ______ ____
ROOT
ATOM      1  C   UNL     1       1.481   4.342   0.012  0.00  0.00    +0.206 A 
ATOM      2  C   UNL     1       0.843   5.572   0.025  0.00  0.00    +0.186 A 
ATOM      3  C   UNL     1      -0.567   5.638   0.039  0.00  0.00    +0.043 A 
ATOM      4  C   UNL     1      -1.206   6.904   0.052  0.00  0.00    +0.020 A 
ATOM      5  C   UNL     1      -0.440   8.025   0.052  0.00  0.00    +0.093 A 
ATOM      6  C   UNL     1       0.965   7.916   0.038  0.00  0.00    +0.337 A 
ATOM      7  O   UNL     1       1.644   8.928   0.038  0.00  0.00    -0.245 OA
ATOM      8  O   UNL     1       1.568   6.716   0.025  0.00  0.00    -0.418 OA
ATOM      9  C   UNL     1      -1.324   4.456   0.039  0.00  0.00    +0.046 A 
ATOM     10  C   UNL     1      -0.668   3.224   0.026  0.00  0.00    +0.045 A 
ATOM     11  C   UNL     1       0.737   3.166   0.012  0.00  0.00    +0.182 A 
ATOM     12  O   UNL     1       1.080   1.861   0.002  0.00  0.00    -0.459 OA
ATOM     13  C   UNL     1      -0.013   1.076   0.008  0.00  0.00    +0.196 A 
ATOM     14  C   UNL     1      -1.121   1.827   0.017  0.00  0.00    +0.051 A 
ENDROOT
BRANCH   9  15
ATOM     15  N   UNL     1      -2.713   4.513   0.052  0.00  0.00    -0.357 N 
ATOM     16  H   UNL     1      -3.232   3.693   0.052  0.00  0.00    +0.142 HD
ATOM     17  H   UNL     1      -3.164   5.371   0.061  0.00  0.00    +0.142 HD
ENDBRANCH   9  15
BRANCH   1  19
ATOM     18  C   UNL     1       3.478   4.264  -1.280  0.00  0.00    +0.277 C 
ATOM     19  O   UNL     1       2.841   4.284  -0.001  0.00  0.00    -0.488 OA
ENDBRANCH   1  19
TORSDOF 2
