REMARK  Name = ZINC35664975
REMARK  11 active torsions:
REMARK  status: ('A' for Active; 'I' for Inactive)
REMARK    1  A    between atoms: C_1  and  C_2
REMARK    2  A    between atoms: C_2  and  C_3
REMARK    3  A    between atoms: C_3  and  C_5
REMARK    4  A    between atoms: C_3  and  N_6
REMARK    5  A    between atoms: C_9  and  C_25
REMARK    6  A    between atoms: N_20  and  C_21
REMARK    7  A    between atoms: C_21  and  C_22
REMARK    8  A    between atoms: C_21  and  C_23
REMARK    9  A    between atoms: C_21  and  C_24
REMARK   10  A    between atoms: C_25  and  C_26
REMARK   11  A    between atoms: C_25  and  C_27
REMARK                            x       y       z     vdW  Elec       q    Type
REMARK                         _______ _______ _______ _____ _____    ______ ____
ROOT
ATOM      1  N   UNL     1       0.087  -0.118  -2.452  0.00  0.00    -0.311 N 
ATOM      2  C   UNL     1      -1.163  -0.560  -2.705  0.00  0.00    +0.201 C 
ATOM      3  O   UNL     1      -1.801  -1.319  -2.007  0.00  0.00    -0.277 OA
ATOM      4  C   UNL     1      -1.633   0.051  -4.007  0.00  0.00    +0.022 C 
ATOM      5  N   UNL     1      -0.708   1.185  -4.249  0.00  0.00    +0.401 N 
ATOM      6  C   UNL     1       0.515   0.781  -3.527  0.00  0.00    +0.006 C 
ATOM      7  C   UNL     1       1.456   0.052  -4.484  0.00  0.00    +0.025 C 
ATOM      8  C   UNL     1       2.708  -0.397  -3.721  0.00  0.00    +0.109 C 
ATOM      9  N   UNL     1       3.298   0.770  -3.052  0.00  0.00    -0.286 N 
ATOM     10  C   UNL     1       2.450   1.582  -2.168  0.00  0.00    +0.109 C 
ATOM     11  C   UNL     1       1.201   2.014  -2.943  0.00  0.00    +0.025 C 
ATOM     12  C   UNL     1       4.592   1.091  -3.247  0.00  0.00    +0.303 C 
ATOM     13  O   UNL     1       5.045   2.112  -2.765  0.00  0.00    -0.253 OA
ATOM     14  N   UNL     1       5.386   0.280  -3.975  0.00  0.00    -0.294 N 
ATOM     15  H   UNL     1      -0.524   1.290  -5.236  0.00  0.00    -0.082 HD
ATOM     16  H   UNL     1       5.009  -0.496  -4.418  0.00  0.00    +0.151 HD
ATOM     17  H   UNL     1      -1.081   2.038  -3.862  0.00  0.00    -0.082 HD
ENDROOT
BRANCH  14  18
ATOM     18  C   UNL     1       6.816   0.572  -4.096  0.00  0.00    +0.028 C 
ATOM     19  C   UNL     1       7.458   0.567  -2.708  0.00  0.00    +0.031 C 
ATOM     20  C   UNL     1       7.481  -0.494  -4.969  0.00  0.00    +0.031 C 
ATOM     21  C   UNL     1       7.003   1.947  -4.740  0.00  0.00    +0.031 C 
ENDBRANCH  14  18
BRANCH   4  22
ATOM     22  C   UNL     1      -1.536  -0.971  -5.141  0.00  0.00    -0.023 C 
ATOM     23  C   UNL     1      -2.505  -2.124  -4.873  0.00  0.00    +0.006 C 
ATOM     24  C   UNL     1      -1.899  -0.298  -6.466  0.00  0.00    +0.006 C 
ENDBRANCH   4  22
BRANCH   1  25
ATOM     25  C   UNL     1       0.890  -0.477  -1.281  0.00  0.00    +0.071 C 
ATOM     26  C   UNL     1       0.818  -1.989  -1.057  0.00  0.00    +0.028 C 
BRANCH  25  28
ATOM     27  C   UNL     1       0.532   1.756  -0.219  0.00  0.00    +0.005 C 
ATOM     28  C   UNL     1       0.346   0.247  -0.048  0.00  0.00    +0.019 C 
ENDBRANCH  25  28
ENDBRANCH   1  25
TORSDOF 4
