REMARK  Name = ZINC38050086
REMARK  5 active torsions:
REMARK  status: ('A' for Active; 'I' for Inactive)
REMARK    1  A    between atoms: C_3  and  S_11
REMARK    2  A    between atoms: C_4  and  N_8
REMARK    3  A    between atoms: S_11  and  N_14
REMARK    4  A    between atoms: N_14  and  C_15
REMARK    5  A    between atoms: C_21  and  N_23
REMARK                            x       y       z     vdW  Elec       q    Type
REMARK                         _______ _______ _______ _____ _____    ______ ____
ROOT
ATOM      1  S   UNL     1       3.908   2.560   0.311  0.00  0.00    +0.061 S 
ATOM      2  O   UNL     1       4.848   2.149  -0.671  0.00  0.00    -0.153 OA
ATOM      3  O   UNL     1       3.319   3.853   0.308  0.00  0.00    -0.153 OA
ENDROOT
BRANCH   1   6
ATOM      4  C   UNL     1       1.522  -0.489  -0.764  0.00  0.00    +0.022 A 
ATOM      5  C   UNL     1       2.562   0.420  -0.719  0.00  0.00    +0.032 A 
ATOM      6  C   UNL     1       2.581   1.401   0.254  0.00  0.00    +0.135 A 
ATOM      7  C   UNL     1       1.560   1.475   1.183  0.00  0.00    +0.154 A 
ATOM      8  C   UNL     1       0.519   0.567   1.139  0.00  0.00    +0.054 A 
ATOM      9  C   UNL     1       0.499  -0.416   0.165  0.00  0.00    +0.043 A 
ATOM     10 CL   UNL     1      -0.808  -1.557   0.108  0.00  0.00    -0.083 Cl
BRANCH   7  11
ATOM     11  N   UNL     1       1.581   2.525   2.225  0.00  0.00    +0.058 N 
ATOM     12  O   UNL     1       0.719   2.554   3.073  0.00  0.00    -0.126 OA
ATOM     13  O   UNL     1       2.460   3.355   2.229  0.00  0.00    -0.126 OA
ENDBRANCH   7  11
ENDBRANCH   1   6
BRANCH   1  14
ATOM     14  N   UNL     1       4.651   2.381   1.781  0.00  0.00    -0.188 NA
ATOM     15  H   UNL     1       4.630   3.105   2.426  0.00  0.00    +0.148 HD
BRANCH  14  16
ATOM     16  C   UNL     1       5.339   1.130   2.106  0.00  0.00    +0.062 C 
ATOM     17  C   UNL     1       6.826   1.263   1.771  0.00  0.00    +0.019 C 
ATOM     18  C   UNL     1       7.544  -0.044   2.111  0.00  0.00    +0.001 C 
ATOM     19  C   UNL     1       7.383  -0.342   3.603  0.00  0.00    -0.001 C 
ATOM     20  C   UNL     1       5.896  -0.475   3.939  0.00  0.00    -0.015 C 
ATOM     21  C   UNL     1       5.177   0.832   3.599  0.00  0.00    -0.056 C 
BRANCH  21  22
ATOM     22  N   UNL     1       3.749   0.704   3.920  0.00  0.00    +0.381 N 
ATOM     23  H   UNL     1       3.350  -0.050   3.382  0.00  0.00    -0.090 HD
ATOM     24  H   UNL     1       3.643   0.507   4.904  0.00  0.00    -0.090 HD
ATOM     25  H   UNL     1       3.275   1.566   3.696  0.00  0.00    -0.090 HD
ENDBRANCH  21  22
ENDBRANCH  14  16
ENDBRANCH   1  14
TORSDOF 5
