REMARK  Name = ZINC08283376
REMARK  8 active torsions:
REMARK  status: ('A' for Active; 'I' for Inactive)
REMARK    1  A    between atoms: C_1  and  C_2
REMARK    2  A    between atoms: C_5  and  C_8
REMARK    3  A    between atoms: C_11  and  S_14
REMARK    4  A    between atoms: N_12  and  N_13
REMARK    5  A    between atoms: S_14  and  C_15
REMARK    6  A    between atoms: C_15  and  C_17
REMARK    7  A    between atoms: C_15  and  C_18
REMARK    8  A    between atoms: N_20  and  C_21
REMARK                            x       y       z     vdW  Elec       q    Type
REMARK                         _______ _______ _______ _____ _____    ______ ____
ROOT
ATOM      1  S   UNL     1      -2.453   7.867  -2.624  0.00  0.00    -0.072 S 
ENDROOT
BRANCH   1   5
ATOM      2  C   UNL     1      -2.184  11.765  -2.635  0.00  0.00    +0.182 A 
ATOM      3  N   UNL     1      -1.934  11.463  -1.383  0.00  0.00    -0.127 NA
ATOM      4  N   UNL     1      -1.987  10.189  -1.220  0.00  0.00    -0.121 NA
ATOM      5  C   UNL     1      -2.275   9.600  -2.359  0.00  0.00    +0.209 A 
ATOM      6  N   UNL     1      -2.405  10.581  -3.300  0.00  0.00    -0.224 N 
BRANCH   2  11
ATOM      7  C   UNL     1      -2.312  17.045  -4.921  0.00  0.00    +0.044 C 
ATOM      8  C   UNL     1      -2.279  15.662  -4.322  0.00  0.00    -0.050 A 
ATOM      9  C   UNL     1      -1.706  15.464  -3.079  0.00  0.00    +0.004 A 
ATOM     10  C   UNL     1      -1.672  14.200  -2.525  0.00  0.00    +0.012 A 
ATOM     11  C   UNL     1      -2.218  13.122  -3.222  0.00  0.00    +0.021 A 
ATOM     12  C   UNL     1      -2.790  13.328  -4.479  0.00  0.00    +0.012 A 
ATOM     13  C   UNL     1      -2.822  14.597  -5.018  0.00  0.00    +0.004 A 
ENDBRANCH   2  11
BRANCH   6  14
ATOM     14  N   UNL     1      -2.696  10.420  -4.625  0.00  0.00    -0.295 N 
ATOM     15  H   UNL     1      -3.692  10.442  -4.782  0.00  0.00    +0.163 HD
ATOM     16  H   UNL     1      -2.226  11.115  -5.186  0.00  0.00    +0.163 HD
ENDBRANCH   6  14
ENDBRANCH   1   5
BRANCH   1  17
ATOM     17  C   UNL     1      -2.132   7.259  -0.950  0.00  0.00    +0.137 C 
ATOM     18  C   UNL     1      -3.235   7.749  -0.009  0.00  0.00    +0.029 C 
BRANCH  17  19
ATOM     19  C   UNL     1      -2.112   5.752  -0.958  0.00  0.00    +0.227 C 
ATOM     20  O   UNL     1      -2.637   5.143  -1.866  0.00  0.00    -0.275 OA
ATOM     21  N   UNL     1      -1.510   5.081   0.044  0.00  0.00    -0.309 N 
ATOM     22  H   UNL     1      -1.089   5.567   0.770  0.00  0.00    +0.149 HD
BRANCH  21  23
ATOM     23  C   UNL     1      -1.490   3.616   0.036  0.00  0.00    +0.035 C 
ATOM     24  C   UNL     1      -0.773   3.123  -1.223  0.00  0.00    +0.029 C 
ATOM     25  C   UNL     1      -0.753   1.593  -1.232  0.00  0.00    -0.008 C 
ATOM     26  C   UNL     1      -0.013   1.086   0.008  0.00  0.00    +0.007 C 
ATOM     27  C   UNL     1      -0.729   1.579   1.267  0.00  0.00    -0.008 C 
ATOM     28  C   UNL     1      -0.750   3.109   1.275  0.00  0.00    +0.029 C 
ATOM     29  C   UNL     1      -2.164   1.050   1.278  0.00  0.00    +0.007 C 
ATOM     30  C   UNL     1      -2.904   1.556   0.038  0.00  0.00    -0.008 C 
ATOM     31  C   UNL     1      -2.188   1.063  -1.221  0.00  0.00    +0.007 C 
ATOM     32  C   UNL     1      -2.925   3.086   0.047  0.00  0.00    +0.029 C 
ENDBRANCH  21  23
ENDBRANCH  17  19
ENDBRANCH   1  17
TORSDOF 6
