REMARK  Name = ZINC55678798
REMARK  5 active torsions:
REMARK  status: ('A' for Active; 'I' for Inactive)
REMARK    1  A    between atoms: C_2  and  N_12
REMARK    2  A    between atoms: C_4  and  S_8
REMARK    3  A    between atoms: S_8  and  N_11
REMARK    4  A    between atoms: N_12  and  S_13
REMARK    5  A    between atoms: S_13  and  C_16
REMARK                            x       y       z     vdW  Elec       q    Type
REMARK                         _______ _______ _______ _____ _____    ______ ____
ROOT
ATOM      1  C   UNL     1      -0.017   1.379   0.010  0.00  0.00    +0.065 A 
ATOM      2  C   UNL     1       1.178   2.087   0.002  0.00  0.00    +0.079 A 
ATOM      3  C   UNL     1       2.387   1.405  -0.013  0.00  0.00    +0.055 A 
ATOM      4  C   UNL     1       2.400   0.023  -0.021  0.00  0.00    +0.110 A 
ATOM      5  C   UNL     1       1.211  -0.681  -0.014  0.00  0.00    +0.067 A 
ATOM      6  C   UNL     1       0.002  -0.004   0.002  0.00  0.00    +0.127 A 
ATOM      7  F   UNL     1      -1.159  -0.695   0.009  0.00  0.00    -0.205 F 
ENDROOT
BRANCH   4   8
ATOM      8  S   UNL     1       3.935  -0.842  -0.040  0.00  0.00    +0.056 S 
ATOM      9  O   UNL     1       3.672  -2.123  -0.595  0.00  0.00    -0.153 OA
ATOM     10  O   UNL     1       4.895   0.046  -0.595  0.00  0.00    -0.153 OA
BRANCH   8  11
ATOM     11  N   UNL     1       4.376  -1.091   1.536  0.00  0.00    -0.204 NA
ATOM     12  H   UNL     1       4.903  -1.870   1.776  0.00  0.00    +0.144 HD
ATOM     13  H   UNL     1       4.109  -0.458   2.221  0.00  0.00    +0.144 HD
ENDBRANCH   8  11
ENDBRANCH   4   8
BRANCH   2  14
ATOM     14  N   UNL     1       1.163   3.484   0.009  0.00  0.00    -0.098 NA
BRANCH  14  15
ATOM     15  S   UNL     1      -0.280   4.296   0.027  0.00  0.00    +0.092 S 
ATOM     16  O   UNL     1      -0.916   4.022  -1.214  0.00  0.00    -0.148 OA
ATOM     17  O   UNL     1      -0.893   4.010   1.276  0.00  0.00    -0.148 OA
BRANCH  15  18
ATOM     18  C   UNL     1       0.092   6.019   0.032  0.00  0.00    +0.113 A 
ATOM     19  C   UNL     1       0.254   6.687   1.231  0.00  0.00    +0.049 A 
ATOM     20  C   UNL     1       0.546   8.039   1.236  0.00  0.00    +0.044 A 
ATOM     21  C   UNL     1       0.675   8.723   0.040  0.00  0.00    +0.040 A 
ATOM     22  C   UNL     1       0.513   8.054  -1.159  0.00  0.00    +0.044 A 
ATOM     23  C   UNL     1       0.226   6.700  -1.163  0.00  0.00    +0.049 A 
ATOM     24 CL   UNL     1       0.674   8.911  -2.660  0.00  0.00    -0.083 Cl
ATOM     25 CL   UNL     1       0.749   8.878   2.742  0.00  0.00    -0.083 Cl
ENDBRANCH  15  18
ENDBRANCH  14  15
ENDBRANCH   2  14
TORSDOF 5
