REMARK  Name = ZINC59461410
REMARK  14 active torsions:
REMARK  status: ('A' for Active; 'I' for Inactive)
REMARK    1  A    between atoms: C_1  and  C_2
REMARK    2  A    between atoms: C_2  and  C_19
REMARK    3  A    between atoms: C_4  and  N_11
REMARK    4  A    between atoms: C_7  and  C_9
REMARK    5  A    between atoms: C_7  and  C_10
REMARK    6  A    between atoms: N_14  and  C_15
REMARK    7  A    between atoms: C_15  and  C_16
REMARK    8  A    between atoms: C_15  and  C_17
REMARK    9  A    between atoms: C_15  and  C_18
REMARK   10  A    between atoms: C_19  and  N_20
REMARK   11  A    between atoms: N_23  and  C_24
REMARK   12  A    between atoms: C_24  and  C_25
REMARK   13  A    between atoms: C_24  and  C_26
REMARK   14  A    between atoms: C_24  and  C_27
REMARK                            x       y       z     vdW  Elec       q    Type
REMARK                         _______ _______ _______ _____ _____    ______ ____
ROOT
ATOM      1  C   UNL     1      -0.019   1.526   0.010  0.00  0.00    +0.013 C 
ATOM      2  C   UNL     1       0.002  -0.004   0.002  0.00  0.00    -0.014 C 
ATOM      3  C   UNL     1      -1.402  -0.567  -0.154  0.00  0.00    +0.030 C 
ATOM      4  C   UNL     1      -2.220  -0.514   1.124  0.00  0.00    +0.075 C 
ATOM      5  C   UNL     1      -1.489  -1.152   2.291  0.00  0.00    +0.028 C 
ATOM      6  C   UNL     1      -0.081  -0.618   2.497  0.00  0.00    -0.033 C 
ATOM      7  C   UNL     1       0.728  -0.551   1.216  0.00  0.00    +0.014 C 
ATOM      8  C   UNL     1      -0.113   0.742   3.201  0.00  0.00    +0.011 C 
ATOM      9  C   UNL     1       0.646  -1.597   3.452  0.00  0.00    +0.011 C 
ENDROOT
BRANCH   4  10
ATOM     10  N   UNL     1      -2.675   0.837   1.433  0.00  0.00    -0.297 N 
ATOM     11  C   UNL     1      -3.778   1.022   2.185  0.00  0.00    +0.300 C 
ATOM     12  O   UNL     1      -4.394   0.062   2.607  0.00  0.00    -0.253 OA
ATOM     13  N   UNL     1      -4.198   2.270   2.470  0.00  0.00    -0.295 N 
ATOM     14  H   UNL     1      -2.184   1.603   1.096  0.00  0.00    +0.151 HD
ATOM     15  H   UNL     1      -3.706   3.036   2.134  0.00  0.00    +0.151 HD
BRANCH  13  16
ATOM     16  C   UNL     1      -5.396   2.471   3.288  0.00  0.00    +0.028 C 
ATOM     17  C   UNL     1      -5.191   1.828   4.661  0.00  0.00    +0.031 C 
ATOM     18  C   UNL     1      -5.651   3.970   3.461  0.00  0.00    +0.031 C 
ATOM     19  C   UNL     1      -6.599   1.825   2.598  0.00  0.00    +0.031 C 
ENDBRANCH  13  16
ENDBRANCH   4  10
BRANCH   2  20
ATOM     20  C   UNL     1       0.808  -0.432  -1.250  0.00  0.00    +0.112 C 
BRANCH  20  21
ATOM     21  N   UNL     1       0.152   0.086  -2.453  0.00  0.00    -0.299 N 
ATOM     22  C   UNL     1       0.679  -0.163  -3.668  0.00  0.00    +0.300 C 
ATOM     23  O   UNL     1       1.698  -0.819  -3.766  0.00  0.00    -0.253 OA
ATOM     24  N   UNL     1       0.076   0.314  -4.775  0.00  0.00    -0.295 N 
ATOM     25  H   UNL     1      -0.661   0.609  -2.376  0.00  0.00    +0.150 HD
ATOM     26  H   UNL     1      -0.737   0.837  -4.698  0.00  0.00    +0.151 HD
BRANCH  24  27
ATOM     27  C   UNL     1       0.649   0.042  -6.096  0.00  0.00    +0.028 C 
ATOM     28  C   UNL     1       0.704  -1.469  -6.327  0.00  0.00    +0.031 C 
ATOM     29  C   UNL     1      -0.222   0.692  -7.173  0.00  0.00    +0.031 C 
ATOM     30  C   UNL     1       2.064   0.621  -6.167  0.00  0.00    +0.031 C 
ENDBRANCH  24  27
ENDBRANCH  20  21
ENDBRANCH   2  20
TORSDOF 5
