REMARK  Name = ZINC18200004
REMARK  3 active torsions:
REMARK  status: ('A' for Active; 'I' for Inactive)
REMARK    1  A    between atoms: C_4  and  N_7
REMARK    2  A    between atoms: C_17  and  C_19
REMARK    3  A    between atoms: C_27  and  C_30
REMARK                            x       y       z     vdW  Elec       q    Type
REMARK                         _______ _______ _______ _____ _____    ______ ____
ROOT
ATOM      1  N   UNL     1      -1.117   1.995   0.018  0.00  0.00    -0.218 N 
ATOM      2  C   UNL     1      -0.015   1.215   0.009  0.00  0.00    +0.278 A 
ATOM      3  O   UNL     1       0.002  -0.004   0.002  0.00  0.00    -0.265 OA
ATOM      4  C   UNL     1       1.102   2.051   0.003  0.00  0.00    +0.070 A 
ATOM      5  C   UNL     1       0.660   3.351   0.015  0.00  0.00    +0.125 A 
ATOM      6  N   UNL     1      -0.701   3.337   0.025  0.00  0.00    -0.277 N 
ATOM      7  H   UNL     1      -1.280   4.115   0.033  0.00  0.00    +0.189 HD
ATOM      8  N   UNL     1       1.539   4.407   0.018  0.00  0.00    -0.303 N 
ATOM      9  C   UNL     1       2.860   4.165   0.319  0.00  0.00    +0.017 C 
ATOM     10  C   UNL     1       3.385   2.923   0.317  0.00  0.00    +0.025 C 
ATOM     11  C   UNL     1       2.563   1.697  -0.018  0.00  0.00    +0.099 C 
ATOM     12  C   UNL     1       4.742   2.712   0.628  0.00  0.00    +0.162 C 
ATOM     13  O   UNL     1       5.179   1.578   0.640  0.00  0.00    -0.292 OA
ATOM     14  C   UNL     1       5.663   3.857   0.945  0.00  0.00    +0.091 C 
ATOM     15  C   UNL     1       5.157   5.112   0.227  0.00  0.00    +0.068 C 
ATOM     16  C   UNL     1       3.713   5.365   0.662  0.00  0.00    +0.063 C 
ATOM     17  H   UNL     1       1.235   5.304  -0.187  0.00  0.00    +0.153 HD
ENDROOT
BRANCH   1  21
ATOM     18  C   UNL     1      -5.062   0.658   0.029  0.00  0.00    +0.000 A 
ATOM     19  C   UNL     1      -4.794   2.015   0.034  0.00  0.00    +0.002 A 
ATOM     20  C   UNL     1      -3.487   2.461   0.030  0.00  0.00    +0.028 A 
ATOM     21  C   UNL     1      -2.442   1.546   0.021  0.00  0.00    +0.067 A 
ATOM     22  C   UNL     1      -2.715   0.185   0.010  0.00  0.00    +0.028 A 
ATOM     23  C   UNL     1      -4.024  -0.255   0.021  0.00  0.00    +0.002 A 
ENDBRANCH   1  21
BRANCH  11  24
ATOM     24  C   UNL     1       2.939   1.198  -1.389  0.00  0.00    +0.002 A 
ATOM     25  C   UNL     1       3.451  -0.004  -1.749  0.00  0.00    +0.012 A 
ATOM     26  C   UNL     1       3.719  -0.246  -3.083  0.00  0.00    +0.008 A 
ATOM     27  C   UNL     1       3.473   0.730  -3.991  0.00  0.00    +0.045 A 
ATOM     28  S   UNL     1       2.835   2.041  -2.960  0.00  0.00    -0.101 S 
ENDBRANCH  11  24
BRANCH  15  29
ATOM     29  C   UNL     1       6.016   6.293   0.602  0.00  0.00    +0.109 A 
ATOM     30  C   UNL     1       6.734   7.045  -0.250  0.00  0.00    +0.045 A 
ATOM     31  C   UNL     1       7.382   8.035   0.523  0.00  0.00    +0.041 A 
ATOM     32  C   UNL     1       7.021   7.829   1.803  0.00  0.00    +0.195 A 
ATOM     33  O   UNL     1       6.188   6.775   1.843  0.00  0.00    -0.468 OA
ENDBRANCH  15  29
TORSDOF 3
