REMARK  Name = ZINC63689632
REMARK  12 active torsions:
REMARK  status: ('A' for Active; 'I' for Inactive)
REMARK    1  A    between atoms: C_1  and  C_2
REMARK    2  A    between atoms: C_2  and  C_3
REMARK    3  A    between atoms: C_2  and  C_4
REMARK    4  A    between atoms: C_2  and  O_5
REMARK    5  A    between atoms: O_5  and  C_6
REMARK    6  A    between atoms: N_8  and  C_9
REMARK    7  A    between atoms: C_9  and  C_10
REMARK    8  A    between atoms: C_9  and  C_11
REMARK    9  A    between atoms: C_9  and  C_12
REMARK   10  A    between atoms: C_18  and  C_20
REMARK   11  A    between atoms: N_22  and  C_23
REMARK   12  A    between atoms: N_22  and  C_24
REMARK                            x       y       z     vdW  Elec       q    Type
REMARK                         _______ _______ _______ _____ _____    ______ ____
ROOT
ATOM      1  C   UNL     1       5.073  -0.661  -3.653  0.00  0.00    +0.239 C 
ATOM      2  O   UNL     1       6.031  -0.102  -4.143  0.00  0.00    -0.273 OA
ATOM      3  N   UNL     1       4.457  -1.655  -4.325  0.00  0.00    -0.299 N 
ATOM      4  C   UNL     1       3.322  -2.371  -3.727  0.00  0.00    +0.108 C 
ATOM      5  C   UNL     1       3.613  -3.874  -3.762  0.00  0.00    +0.020 C 
ATOM      6  C   UNL     1       3.936  -4.294  -5.198  0.00  0.00    +0.016 C 
ATOM      7  C   UNL     1       5.182  -3.549  -5.682  0.00  0.00    +0.092 C 
ATOM      8  C   UNL     1       4.904  -2.038  -5.671  0.00  0.00    +0.120 C 
ENDROOT
BRANCH   7   9
ATOM      9  C   UNL     1       5.517  -3.987  -7.084  0.00  0.00    +0.220 C 
ATOM     10  O   UNL     1       4.665  -4.497  -7.780  0.00  0.00    -0.275 OA
ATOM     11  N   UNL     1       6.764  -3.812  -7.565  0.00  0.00    -0.307 N 
ATOM     12  C   UNL     1       7.064  -4.141  -8.960  0.00  0.00    +0.131 C 
ATOM     13  C   UNL     1       7.819  -3.292  -6.692  0.00  0.00    +0.131 C 
ENDBRANCH   7   9
BRANCH   1  14
ATOM     14  C   UNL     1       4.571  -0.247  -2.294  0.00  0.00    +0.108 C 
ATOM     15  C   UNL     1       3.209   0.436  -2.440  0.00  0.00    +0.041 C 
ATOM     16  C   UNL     1       5.565   0.728  -1.659  0.00  0.00    +0.041 C 
BRANCH  14  19
ATOM     17  C   UNL     1       3.919  -1.312  -0.202  0.00  0.00    +0.402 C 
ATOM     18  O   UNL     1       3.567  -0.224   0.208  0.00  0.00    -0.226 OA
ATOM     19  N   UNL     1       4.435  -1.430  -1.442  0.00  0.00    -0.268 N 
ATOM     20  H   UNL     1       4.716  -2.299  -1.770  0.00  0.00    +0.153 HD
BRANCH  17  21
ATOM     21  O   UNL     1       3.793  -2.400   0.581  0.00  0.00    -0.445 OA
BRANCH  21  23
ATOM     22  C   UNL     1       1.828  -1.623   1.754  0.00  0.00    +0.055 C 
ATOM     23  C   UNL     1       3.239  -2.201   1.883  0.00  0.00    +0.107 C 
ATOM     24  C   UNL     1       4.119  -1.228   2.669  0.00  0.00    +0.055 C 
ATOM     25  C   UNL     1       3.176  -3.541   2.620  0.00  0.00    +0.055 C 
ENDBRANCH  21  23
ENDBRANCH  17  21
ENDBRANCH  14  19
ENDBRANCH   1  14
TORSDOF 5
