REMARK  Name = ZINC39453151
REMARK  4 active torsions:
REMARK  status: ('A' for Active; 'I' for Inactive)
REMARK    1  A    between atoms: C_1  and  S_2
REMARK    2  A    between atoms: S_2  and  C_3
REMARK    3  A    between atoms: C_14  and  C_20
REMARK    4  A    between atoms: C_25  and  O_26
REMARK                            x       y       z     vdW  Elec       q    Type
REMARK                         _______ _______ _______ _____ _____    ______ ____
ROOT
ATOM      1  C   UNL     1       0.873  -0.423  -1.533  0.00  0.00    +0.136 C 
ATOM      2  C   UNL     1       1.892  -1.536  -1.262  0.00  0.00    +0.114 C 
ATOM      3  C   UNL     1       1.161  -2.815  -0.949  0.00  0.00    +0.186 C 
ATOM      4  O   UNL     1       1.672  -3.634  -0.211  0.00  0.00    -0.290 OA
ATOM      5  C   UNL     1      -0.113  -3.072  -1.506  0.00  0.00    +0.144 A 
ATOM      6  C   UNL     1      -0.722  -2.118  -2.296  0.00  0.00    +0.084 A 
ATOM      7  C   UNL     1      -2.046  -2.387  -2.880  0.00  0.00    +0.100 A 
ATOM      8  C   UNL     1      -2.659  -3.636  -2.595  0.00  0.00    +0.070 A 
ATOM      9  C   UNL     1      -3.908  -3.926  -3.125  0.00  0.00    +0.026 A 
ATOM     10  C   UNL     1      -4.519  -2.956  -3.932  0.00  0.00    +0.009 A 
ATOM     11  C   UNL     1      -5.794  -3.182  -4.505  0.00  0.00    -0.005 A 
ATOM     12  C   UNL     1      -6.364  -2.200  -5.296  0.00  0.00    +0.009 A 
ATOM     13  C   UNL     1      -5.695  -1.003  -5.529  0.00  0.00    +0.003 A 
ATOM     14  C   UNL     1      -4.469  -0.761  -4.991  0.00  0.00    +0.028 A 
ATOM     15  C   UNL     1      -3.848  -1.729  -4.178  0.00  0.00    +0.072 A 
ATOM     16  N   UNL     1      -2.647  -1.496  -3.646  0.00  0.00    -0.245 NA
ATOM     17  C   UNL     1      -1.948  -4.596  -1.738  0.00  0.00    +0.289 A 
ATOM     18  O   UNL     1      -2.454  -5.672  -1.480  0.00  0.00    -0.265 OA
ATOM     19  N   UNL     1      -0.738  -4.286  -1.239  0.00  0.00    -0.136 N 
ATOM     20  F   UNL     1      -0.131  -5.151  -0.482  0.00  0.00    -0.090 F 
ATOM     21  N   UNL     1      -0.089  -0.912  -2.532  0.00  0.00    -0.328 N 
ATOM     22  H   UNL     1      -0.274  -0.401  -3.336  0.00  0.00    +0.147 HD
ENDROOT
BRANCH  11  23
ATOM     23  C   UNL     1      -6.510  -4.454  -4.259  0.00  0.00    +0.024 A 
ATOM     24  C   UNL     1      -6.758  -5.333  -5.313  0.00  0.00    +0.012 A 
ATOM     25  C   UNL     1      -7.425  -6.518  -5.078  0.00  0.00    +0.001 A 
ATOM     26  C   UNL     1      -7.850  -6.837  -3.800  0.00  0.00    +0.004 A 
ATOM     27  C   UNL     1      -7.611  -5.973  -2.748  0.00  0.00    +0.046 A 
ATOM     28  C   UNL     1      -6.937  -4.782  -2.967  0.00  0.00    +0.125 A 
BRANCH  28  29
ATOM     29  O   UNL     1      -6.696  -3.935  -1.933  0.00  0.00    -0.506 OA
ATOM     30  H   UNL     1      -7.397  -3.286  -1.786  0.00  0.00    +0.292 HD
ENDBRANCH  28  29
ENDBRANCH  11  23
BRANCH   1  32
ATOM     31  C   UNL     1      -0.022   1.810   0.012  0.00  0.00    +0.086 C 
ATOM     32  S   UNL     1       0.002  -0.004   0.002  0.00  0.00    -0.142 S 
ENDBRANCH   1  32
TORSDOF 3
