REMARK  Name = ZINC62172856
REMARK  6 active torsions:
REMARK  status: ('A' for Active; 'I' for Inactive)
REMARK    1  A    between atoms: C_1  and  C_2
REMARK    2  A    between atoms: C_2  and  C_3
REMARK    3  A    between atoms: C_9  and  O_24
REMARK    4  A    between atoms: C_11  and  N_15
REMARK    5  A    between atoms: C_20  and  C_22
REMARK    6  A    between atoms: C_22  and  C_23
REMARK                            x       y       z     vdW  Elec       q    Type
REMARK                         _______ _______ _______ _____ _____    ______ ____
ROOT
ATOM      1  C   UNL     1      -0.247  -0.347   1.274  0.00  0.00    -0.047 A 
ATOM      2  C   UNL     1       1.123  -0.315   1.094  0.00  0.00    +0.007 A 
ATOM      3  C   UNL     1       1.963  -0.679   2.126  0.00  0.00    +0.046 A 
ATOM      4  C   UNL     1       1.435  -1.082   3.349  0.00  0.00    +0.126 A 
ATOM      5  C   UNL     1       0.063  -1.117   3.525  0.00  0.00    +0.021 A 
ATOM      6  C   UNL     1      -0.775  -0.742   2.488  0.00  0.00    +0.013 A 
ATOM      7  C   UNL     1      -0.551  -1.558   4.830  0.00  0.00    +0.138 C 
ATOM      8  C   UNL     1       0.500  -1.494   5.941  0.00  0.00    +0.004 C 
ATOM      9  C   UNL     1       1.775  -2.184   5.439  0.00  0.00    +0.217 C 
ATOM     10  O   UNL     1       2.293  -1.429   4.343  0.00  0.00    -0.493 OA
ENDROOT
BRANCH   8  11
ATOM     11  N   UNL     1      -0.001  -2.187   7.136  0.00  0.00    +0.388 N 
ATOM     12  C   UNL     1      -0.153  -3.617   6.843  0.00  0.00    -0.078 C 
ATOM     13  C   UNL     1      -0.750  -4.330   8.058  0.00  0.00    -0.019 C 
ATOM     14  C   UNL     1       0.183  -4.149   9.259  0.00  0.00    -0.003 C 
ATOM     15  C   UNL     1       0.394  -2.653   9.509  0.00  0.00    -0.015 C 
ATOM     16  C   UNL     1       0.949  -2.003   8.240  0.00  0.00    -0.068 C 
ATOM     17  H   UNL     1      -0.896  -1.802   7.396  0.00  0.00    -0.081 HD
BRANCH  16  18
ATOM     18  C   UNL     1       1.161  -0.507   8.486  0.00  0.00    -0.019 C 
ATOM     19  C   UNL     1       2.205  -0.315   9.588  0.00  0.00    +0.002 C 
ENDBRANCH  16  18
ENDBRANCH   8  11
BRANCH   1  21
ATOM     20  C   UNL     1      -1.442   1.556   0.226  0.00  0.00    +0.009 C 
ATOM     21  C   UNL     1      -1.165   0.053   0.148  0.00  0.00    +0.032 C 
ENDBRANCH   1  21
BRANCH   7  22
ATOM     22  O   UNL     1      -1.641  -0.694   5.158  0.00  0.00    -0.389 OA
ATOM     23  H   UNL     1      -2.318  -0.637   4.470  0.00  0.00    +0.210 HD
ENDBRANCH   7  22
TORSDOF 4
