REMARK  Name = ZINC53865918
REMARK  10 active torsions:
REMARK  status: ('A' for Active; 'I' for Inactive)
REMARK    1  A    between atoms: C_1  and  C_2
REMARK    2  A    between atoms: C_2  and  C_3
REMARK    3  A    between atoms: C_3  and  C_4
REMARK    4  A    between atoms: C_8  and  N_21
REMARK    5  A    between atoms: C_10  and  C_13
REMARK    6  A    between atoms: C_13  and  N_14
REMARK    7  A    between atoms: N_14  and  C_15
REMARK    8  A    between atoms: N_14  and  C_18
REMARK    9  A    between atoms: C_15  and  C_16
REMARK   10  A    between atoms: C_16  and  C_17
REMARK                            x       y       z     vdW  Elec       q    Type
REMARK                         _______ _______ _______ _____ _____    ______ ____
ROOT
ATOM      1  C   UNL     1       1.113  -1.933  -1.087  0.00  0.00    -0.011 C 
ATOM      2  C   UNL     1      -0.378  -2.262  -0.981  0.00  0.00    +0.002 C 
ATOM      3  C   UNL     1      -0.563  -3.780  -0.939  0.00  0.00    -0.016 C 
ATOM      4  C   UNL     1       0.007  -4.399  -2.217  0.00  0.00    -0.074 C 
ATOM      5  C   UNL     1       1.497  -4.070  -2.322  0.00  0.00    -0.042 C 
ATOM      6  C   UNL     1       1.683  -2.552  -2.364  0.00  0.00    +0.003 C 
ENDROOT
BRANCH   4   7
ATOM      7  N   UNL     1      -0.171  -5.857  -2.177  0.00  0.00    +0.380 N 
ATOM      8  H   UNL     1      -1.154  -6.074  -2.108  0.00  0.00    -0.090 HD
ATOM      9  H   UNL     1       0.205  -6.265  -3.020  0.00  0.00    -0.090 HD
ATOM     10  H   UNL     1       0.314  -6.233  -1.376  0.00  0.00    -0.090 HD
ENDBRANCH   4   7
BRANCH   1  11
ATOM     11  C   UNL     1       1.298  -0.415  -1.128  0.00  0.00    +0.003 C 
BRANCH  11  13
ATOM     12  C   UNL     1       1.028   1.710   0.159  0.00  0.00    +0.004 C 
ATOM     13  C   UNL     1       0.843   0.191   0.201  0.00  0.00    -0.003 C 
ENDBRANCH  11  13
ENDBRANCH   1  11
BRANCH   5  14
ATOM     14  C   UNL     1       2.233  -4.640  -1.108  0.00  0.00    -0.077 C 
BRANCH  14  15
ATOM     15  N   UNL     1       3.649  -4.255  -1.168  0.00  0.00    +0.382 N 
ATOM     16  H   UNL     1       3.721  -3.254  -1.274  0.00  0.00    -0.081 HD
BRANCH  15  17
ATOM     17  C   UNL     1       4.288  -4.917  -2.313  0.00  0.00    -0.069 C 
ATOM     18  C   UNL     1       5.256  -4.086  -3.159  0.00  0.00    -0.017 C 
ATOM     19  C   UNL     1       3.879  -4.456  -3.714  0.00  0.00    -0.017 C 
ENDBRANCH  15  17
BRANCH  15  20
ATOM     20  C   UNL     1       4.321  -4.666   0.072  0.00  0.00    -0.079 C 
BRANCH  20  21
ATOM     21  C   UNL     1       5.763  -4.156   0.064  0.00  0.00    -0.022 C 
ATOM     22  C   UNL     1       6.463  -4.584   1.355  0.00  0.00    +0.002 C 
ENDBRANCH  20  21
ENDBRANCH  15  20
ENDBRANCH  14  15
ENDBRANCH   5  14
TORSDOF 8
