REMARK  Name = ZINC38050085
REMARK  5 active torsions:
REMARK  status: ('A' for Active; 'I' for Inactive)
REMARK    1  A    between atoms: C_3  and  S_11
REMARK    2  A    between atoms: C_4  and  N_8
REMARK    3  A    between atoms: S_11  and  N_14
REMARK    4  A    between atoms: N_14  and  C_15
REMARK    5  A    between atoms: C_21  and  N_23
REMARK                            x       y       z     vdW  Elec       q    Type
REMARK                         _______ _______ _______ _____ _____    ______ ____
ROOT
ATOM      1  S   UNL     1       3.644   2.845  -0.094  0.00  0.00    +0.061 S 
ATOM      2  O   UNL     1       4.377   2.585  -1.283  0.00  0.00    -0.153 OA
ATOM      3  O   UNL     1       3.014   4.094   0.155  0.00  0.00    -0.153 OA
ENDROOT
BRANCH   1   6
ATOM      4  C   UNL     1       1.235  -0.252  -0.960  0.00  0.00    +0.022 A 
ATOM      5  C   UNL     1       2.224   0.711  -1.032  0.00  0.00    +0.032 A 
ATOM      6  C   UNL     1       2.383   1.617  -0.001  0.00  0.00    +0.135 A 
ATOM      7  C   UNL     1       1.554   1.561   1.104  0.00  0.00    +0.154 A 
ATOM      8  C   UNL     1       0.565   0.599   1.177  0.00  0.00    +0.054 A 
ATOM      9  C   UNL     1       0.405  -0.309   0.145  0.00  0.00    +0.043 A 
ATOM     10 CL   UNL     1      -0.838  -1.518   0.237  0.00  0.00    -0.083 Cl
BRANCH   7  11
ATOM     11  N   UNL     1       1.725   2.532   2.208  0.00  0.00    +0.058 N 
ATOM     12  O   UNL     1       0.925   2.565   3.114  0.00  0.00    -0.126 OA
ATOM     13  O   UNL     1       2.666   3.292   2.204  0.00  0.00    -0.126 OA
ENDBRANCH   7  11
ENDBRANCH   1   6
BRANCH   1  14
ATOM     14  N   UNL     1       4.681   2.578   1.169  0.00  0.00    -0.188 NA
ATOM     15  H   UNL     1       4.771   3.242   1.871  0.00  0.00    +0.148 HD
BRANCH  14  16
ATOM     16  C   UNL     1       5.462   1.340   1.227  0.00  0.00    +0.062 C 
ATOM     17  C   UNL     1       4.720   0.308   2.078  0.00  0.00    +0.019 C 
ATOM     18  C   UNL     1       4.529   0.857   3.494  0.00  0.00    +0.001 C 
ATOM     19  C   UNL     1       5.896   1.145   4.117  0.00  0.00    -0.001 C 
ATOM     20  C   UNL     1       6.639   2.177   3.266  0.00  0.00    -0.015 C 
ATOM     21  C   UNL     1       6.829   1.628   1.850  0.00  0.00    -0.056 C 
BRANCH  21  22
ATOM     22  N   UNL     1       7.542   2.619   1.033  0.00  0.00    +0.381 N 
ATOM     23  H   UNL     1       7.004   3.471   0.993  0.00  0.00    -0.090 HD
ATOM     24  H   UNL     1       8.443   2.808   1.444  0.00  0.00    -0.090 HD
ATOM     25  H   UNL     1       7.667   2.256   0.099  0.00  0.00    -0.090 HD
ENDBRANCH  21  22
ENDBRANCH  14  16
ENDBRANCH   1  14
TORSDOF 5
