REMARK  Name = ZINC44877589
REMARK  9 active torsions:
REMARK  status: ('A' for Active; 'I' for Inactive)
REMARK    1  A    between atoms: C_1  and  C_2
REMARK    2  A    between atoms: C_2  and  C_3
REMARK    3  A    between atoms: C_2  and  C_4
REMARK    4  A    between atoms: C_4  and  C_6
REMARK    5  A    between atoms: C_4  and  C_10
REMARK    6  A    between atoms: N_7  and  O_8
REMARK    7  A    between atoms: N_12  and  C_13
REMARK    8  A    between atoms: N_12  and  C_14
REMARK    9  A    between atoms: C_14  and  C_15
REMARK                            x       y       z     vdW  Elec       q    Type
REMARK                         _______ _______ _______ _____ _____    ______ ____
ROOT
ATOM      1  C   UNL     1      -1.637  -0.559  -0.221  0.00  0.00    +0.144 C 
ENDROOT
BRANCH   1   2
ATOM      2  C   UNL     1      -2.242  -0.545  -1.601  0.00  0.00    +0.144 C 
ATOM      3  N   UNL     1      -1.480  -0.445  -2.639  0.00  0.00    -0.076 NA
ATOM      4  N   UNL     1      -3.607  -0.638  -1.755  0.00  0.00    -0.343 N 
ATOM      5  H   UNL     1      -4.180  -0.713  -0.976  0.00  0.00    +0.144 HD
ATOM      6  H   UNL     1      -3.997  -0.629  -2.644  0.00  0.00    +0.144 HD
BRANCH   3   7
ATOM      7  O   UNL     1      -2.048  -0.431  -3.936  0.00  0.00    -0.408 OA
ATOM      8  H   UNL     1      -1.400  -0.354  -4.649  0.00  0.00    +0.328 HD
ENDBRANCH   3   7
ENDBRANCH   1   2
BRANCH   1   9
ATOM      9  C   UNL     1      -1.446  -1.984   0.229  0.00  0.00    +0.226 C 
ATOM     10  O   UNL     1      -0.473  -2.610  -0.136  0.00  0.00    -0.275 OA
ATOM     11  N   UNL     1      -2.356  -2.564   1.037  0.00  0.00    -0.300 N 
ATOM     12  C   UNL     1      -3.475  -1.779   1.562  0.00  0.00    +0.132 C 
BRANCH  11  13
ATOM     13  C   UNL     1      -2.225  -3.980   1.389  0.00  0.00    +0.143 C 
BRANCH  13  14
ATOM     14  C   UNL     1      -1.400  -4.112   2.644  0.00  0.00    -0.022 A 
ATOM     15  C   UNL     1      -0.025  -4.240   2.569  0.00  0.00    +0.028 A 
ATOM     16  C   UNL     1       0.687  -4.356   3.717  0.00  0.00    +0.055 A 
ATOM     17  S   UNL     1      -0.596  -4.285   4.957  0.00  0.00    -0.090 S 
ATOM     18  C   UNL     1      -1.994  -4.099   3.862  0.00  0.00    +0.051 A 
ATOM     19 BR   UNL     1       2.555  -4.546   3.946  0.00  0.00    -0.043 Br
ENDBRANCH  13  14
ENDBRANCH  11  13
ENDBRANCH   1   9
BRANCH   1  21
ATOM     20  C   UNL     1      -0.483   1.611  -0.670  0.00  0.00    +0.008 C 
ATOM     21  C   UNL     1      -0.283   0.153  -0.250  0.00  0.00    +0.002 C 
ATOM     22  C   UNL     1       0.348   0.105   1.143  0.00  0.00    +0.008 C 
ENDBRANCH   1  21
TORSDOF 6
