REMARK  Name = ZINC39436029
REMARK  10 active torsions:
REMARK  status: ('A' for Active; 'I' for Inactive)
REMARK    1  A    between atoms: C_1  and  C_2
REMARK    2  A    between atoms: C_6  and  C_12
REMARK    3  A    between atoms: C_10  and  C_11
REMARK    4  A    between atoms: C_12  and  C_26
REMARK    5  A    between atoms: C_13  and  C_14
REMARK    6  A    between atoms: C_17  and  O_22
REMARK    7  A    between atoms: C_18  and  O_20
REMARK    8  A    between atoms: O_20  and  C_21
REMARK    9  A    between atoms: O_22  and  C_23
REMARK   10  A    between atoms: C_23  and  C_24
REMARK                            x       y       z     vdW  Elec       q    Type
REMARK                         _______ _______ _______ _____ _____    ______ ____
ROOT
ATOM      1  C   UNL     1      -1.168  -5.108  -1.967  0.00  0.00    +0.072 C 
ATOM      2  C   UNL     1      -1.043  -6.249  -2.678  0.00  0.00    +0.026 C 
ENDROOT
BRANCH   1   8
ATOM      3  C   UNL     1      -0.409   1.589  -0.121  0.00  0.00    +0.044 C 
ATOM      4  C   UNL     1      -0.216   0.094  -0.157  0.00  0.00    -0.045 A 
ATOM      5  C   UNL     1      -0.376  -0.550  -1.331  0.00  0.00    +0.031 A 
ATOM      6  C   UNL     1      -0.192  -2.007  -1.389  0.00  0.00    +0.061 A 
ATOM      7  N   UNL     1      -0.278  -2.872  -2.357  0.00  0.00    -0.359 N 
ATOM      8  C   UNL     1       0.018  -4.195  -1.794  0.00  0.00    +0.216 C 
ATOM      9  N   UNL     1       0.289  -3.986  -0.366  0.00  0.00    -0.359 N 
ATOM     10  C   UNL     1       0.168  -2.712  -0.128  0.00  0.00    +0.061 A 
ATOM     11  C   UNL     1       0.315  -1.905   1.091  0.00  0.00    +0.031 A 
ATOM     12  C   UNL     1       0.128  -0.571   1.032  0.00  0.00    -0.045 A 
ATOM     13  C   UNL     1       0.288   0.238   2.294  0.00  0.00    +0.044 C 
ATOM     14  H   UNL     1      -0.498  -2.678  -3.282  0.00  0.00    +0.162 HD
ATOM     15  H   UNL     1       0.517  -4.672   0.281  0.00  0.00    +0.162 HD
ENDBRANCH   1   8
BRANCH   2  16
ATOM     16  C   UNL     1      -2.233  -7.058  -2.984  0.00  0.00    -0.020 A 
ATOM     17  C   UNL     1      -3.450  -6.433  -3.278  0.00  0.00    +0.012 A 
ATOM     18  C   UNL     1      -4.562  -7.193  -3.565  0.00  0.00    +0.050 A 
ATOM     19  C   UNL     1      -4.480  -8.579  -3.564  0.00  0.00    +0.162 A 
ATOM     20  C   UNL     1      -3.271  -9.209  -3.272  0.00  0.00    +0.162 A 
ATOM     21  C   UNL     1      -2.149  -8.455  -2.989  0.00  0.00    +0.057 A 
BRANCH  20  22
ATOM     22  O   UNL     1      -3.195 -10.567  -3.272  0.00  0.00    -0.491 OA
ATOM     23  C   UNL     1      -1.925 -11.145  -2.964  0.00  0.00    +0.277 C 
ENDBRANCH  20  22
BRANCH  19  24
ATOM     24  O   UNL     1      -5.580  -9.323  -3.847  0.00  0.00    -0.484 OA
BRANCH  24  25
ATOM     25  C   UNL     1      -6.787  -8.614  -4.136  0.00  0.00    +0.256 C 
BRANCH  25  26
ATOM     26  C   UNL     1      -7.891  -9.598  -4.424  0.00  0.00    +0.006 C 
ATOM     27  C   UNL     1      -9.075  -9.428  -3.888  0.00  0.00    +0.007 C 
ENDBRANCH  25  26
ENDBRANCH  24  25
ENDBRANCH  19  24
ENDBRANCH   2  16
BRANCH   1  28
ATOM     28  C   UNL     1      -2.427  -4.766  -1.378  0.00  0.00    +0.099 C 
ATOM     29  N   UNL     1      -3.426  -4.494  -0.911  0.00  0.00    -0.191 NA
ENDBRANCH   1  28
TORSDOF 7
