REMARK  Name = ZINC21801137
REMARK  5 active torsions:
REMARK  status: ('A' for Active; 'I' for Inactive)
REMARK    1  A    between atoms: C_1  and  C_2
REMARK    2  A    between atoms: C_2  and  C_4
REMARK    3  A    between atoms: C_2  and  N_12
REMARK    4  A    between atoms: N_12  and  C_13
REMARK    5  A    between atoms: C_13  and  C_14
REMARK                            x       y       z     vdW  Elec       q    Type
REMARK                         _______ _______ _______ _____ _____    ______ ____
ROOT
ATOM      1  N   UNL     1      -3.499   3.833   0.944  0.00  0.00    +0.386 N 
ATOM      2  H   UNL     1      -4.001   3.023   0.394  0.00  0.00    -0.085 HD
ATOM      3  H   UNL     1      -2.948   3.411   1.796  0.00  0.00    -0.085 HD
ENDROOT
BRANCH   1   5
ATOM      4  C   UNL     1      -3.142   4.562  -1.367  0.00  0.00    -0.009 C 
ATOM      5  C   UNL     1      -2.562   4.525   0.048  0.00  0.00    -0.044 C 
BRANCH   5   6
ATOM      6  C   UNL     1      -1.247   3.789   0.033  0.00  0.00    -0.060 A 
ATOM      7  C   UNL     1      -0.059   4.498   0.026  0.00  0.00    +0.005 A 
ATOM      8  C   UNL     1       1.148   3.825   0.011  0.00  0.00    +0.040 A 
ATOM      9  C   UNL     1       1.169   2.441   0.004  0.00  0.00    +0.142 A 
ATOM     10  C   UNL     1      -0.021   1.732   0.012  0.00  0.00    +0.076 A 
ATOM     11  C   UNL     1      -1.228   2.408   0.021  0.00  0.00    +0.025 A 
ATOM     12 CL   UNL     1       0.002  -0.004   0.002  0.00  0.00    -0.081 Cl
ATOM     13  F   UNL     1       2.348   1.783  -0.011  0.00  0.00    -0.204 F 
ENDBRANCH   5   6
ENDBRANCH   1   5
BRANCH   1  14
ATOM     14  C   UNL     1      -4.520   4.758   1.454  0.00  0.00    -0.046 C 
BRANCH  14  15
ATOM     15  C   UNL     1      -5.461   4.014   2.367  0.00  0.00    -0.061 A 
ATOM     16  C   UNL     1      -6.597   3.420   1.850  0.00  0.00    +0.005 A 
ATOM     17  C   UNL     1      -7.460   2.732   2.682  0.00  0.00    +0.050 A 
ATOM     18  C   UNL     1      -7.194   2.647   4.039  0.00  0.00    +0.166 A 
ATOM     19  C   UNL     1      -6.053   3.250   4.560  0.00  0.00    +0.166 A 
ATOM     20  C   UNL     1      -5.189   3.933   3.720  0.00  0.00    +0.051 A 
ATOM     21  O   UNL     1      -6.017   3.026   5.906  0.00  0.00    -0.453 OA
ATOM     22  C   UNL     1      -7.354   2.631   6.266  0.00  0.00    +0.466 C 
ATOM     23  O   UNL     1      -7.874   2.045   5.058  0.00  0.00    -0.453 OA
ENDBRANCH  14  15
ENDBRANCH   1  14
TORSDOF 4
