REMARK  Name = ZINC42911162
REMARK  8 active torsions:
REMARK  status: ('A' for Active; 'I' for Inactive)
REMARK    1  A    between atoms: C_1  and  C_2
REMARK    2  A    between atoms: C_5  and  C_8
REMARK    3  A    between atoms: C_8  and  C_10
REMARK    4  A    between atoms: C_8  and  O_14
REMARK    5  A    between atoms: C_10  and  C_12
REMARK    6  A    between atoms: C_10  and  N_13
REMARK    7  A    between atoms: O_14  and  C_15
REMARK    8  A    between atoms: C_20  and  C_21
REMARK                            x       y       z     vdW  Elec       q    Type
REMARK                         _______ _______ _______ _____ _____    ______ ____
ROOT
ATOM      1  C   UNL     1       0.049  -4.268  -0.026  0.00  0.00    +0.189 C 
ENDROOT
BRANCH   1   6
ATOM      2  C   UNL     1      -0.222   1.504  -0.114  0.00  0.00    +0.044 C 
ATOM      3  C   UNL     1      -0.151  -0.002  -0.091  0.00  0.00    -0.050 A 
ATOM      4  C   UNL     1      -0.117  -0.710  -1.277  0.00  0.00    +0.004 A 
ATOM      5  C   UNL     1      -0.052  -2.091  -1.257  0.00  0.00    +0.007 A 
ATOM      6  C   UNL     1      -0.021  -2.763  -0.049  0.00  0.00    -0.009 A 
ATOM      7  C   UNL     1      -0.054  -2.054   1.137  0.00  0.00    +0.007 A 
ATOM      8  C   UNL     1      -0.115  -0.674   1.117  0.00  0.00    +0.004 A 
ENDBRANCH   1   6
BRANCH   1   9
ATOM      9  C   UNL     1       1.492  -4.708   0.232  0.00  0.00    -0.032 C 
ATOM     10  C   UNL     1       2.395  -4.172  -0.881  0.00  0.00    -0.010 C 
BRANCH   9  11
ATOM     11  N   UNL     1       1.560  -6.175   0.254  0.00  0.00    +0.382 N 
ATOM     12  H   UNL     1       1.251  -6.540  -0.635  0.00  0.00    -0.089 HD
ATOM     13  H   UNL     1       2.511  -6.465   0.424  0.00  0.00    -0.089 HD
ATOM     14  H   UNL     1       0.964  -6.528   0.987  0.00  0.00    -0.089 HD
ENDBRANCH   9  11
ENDBRANCH   1   9
BRANCH   1  15
ATOM     15  O   UNL     1      -0.795  -4.768   1.013  0.00  0.00    -0.485 OA
BRANCH  15  16
ATOM     16  C   UNL     1      -1.473  -5.915   0.757  0.00  0.00    +0.133 A 
ATOM     17  C   UNL     1      -1.246  -6.611  -0.421  0.00  0.00    +0.046 A 
ATOM     18  C   UNL     1      -1.938  -7.777  -0.681  0.00  0.00    +0.004 A 
ATOM     19  C   UNL     1      -2.863  -8.261   0.230  0.00  0.00    +0.001 A 
ATOM     20  C   UNL     1      -3.101  -7.582   1.405  0.00  0.00    +0.017 A 
ATOM     21  C   UNL     1      -2.404  -6.404   1.683  0.00  0.00    +0.078 A 
BRANCH  21  22
ATOM     22  C   UNL     1      -2.650  -5.676   2.943  0.00  0.00    +0.245 C 
ATOM     23  O   UNL     1      -2.045  -4.647   3.179  0.00  0.00    -0.270 OA
ATOM     24  N   UNL     1      -3.545  -6.149   3.831  0.00  0.00    -0.325 N 
ATOM     25  H   UNL     1      -4.028  -6.970   3.643  0.00  0.00    +0.145 HD
ATOM     26  H   UNL     1      -3.707  -5.671   4.659  0.00  0.00    +0.145 HD
ENDBRANCH  21  22
ENDBRANCH  15  16
ENDBRANCH   1  15
TORSDOF 6
