REMARK  Name = ZINC35578021
REMARK  8 active torsions:
REMARK  status: ('A' for Active; 'I' for Inactive)
REMARK    1  A    between atoms: C_1  and  N_2
REMARK    2  A    between atoms: C_3  and  N_25
REMARK    3  A    between atoms: C_5  and  C_17
REMARK    4  A    between atoms: N_11  and  C_12
REMARK    5  A    between atoms: C_12  and  C_13
REMARK    6  A    between atoms: C_13  and  N_14
REMARK    7  A    between atoms: N_14  and  C_15
REMARK    8  A    between atoms: N_14  and  C_16
REMARK                            x       y       z     vdW  Elec       q    Type
REMARK                         _______ _______ _______ _____ _____    ______ ____
ROOT
ATOM      1  C   UNL     1      -1.078   1.274  -0.019  0.00  0.00    +0.174 C 
ATOM      2  N   UNL     1      -0.589  -0.107  -0.014  0.00  0.00    -0.251 N 
ATOM      3  C   UNL     1      -0.264  -0.815  -1.110  0.00  0.00    +0.126 A 
ATOM      4  C   UNL     1       0.153  -2.071  -0.688  0.00  0.00    +0.086 A 
ATOM      5  C   UNL     1       0.614  -3.250  -1.318  0.00  0.00    +0.091 A 
ATOM      6  N   UNL     1       0.931  -4.288  -0.555  0.00  0.00    -0.214 NA
ATOM      7  C   UNL     1       0.828  -4.249   0.770  0.00  0.00    +0.218 A 
ATOM      8  N   UNL     1       0.409  -3.194   1.438  0.00  0.00    -0.193 NA
ATOM      9  C   UNL     1       0.055  -2.071   0.782  0.00  0.00    +0.188 A 
ATOM     10  N   UNL     1      -0.384  -0.882   1.133  0.00  0.00    -0.149 NA
ATOM     11  N   UNL     1       1.181  -5.378   1.487  0.00  0.00    -0.315 N 
ATOM     12  H   UNL     1       1.493  -6.170   1.022  0.00  0.00    +0.149 HD
ENDROOT
BRANCH   5  13
ATOM     13  C   UNL     1       0.738  -3.324  -2.790  0.00  0.00    +0.037 A 
ATOM     14  C   UNL     1       1.525  -2.396  -3.475  0.00  0.00    +0.016 A 
ATOM     15  C   UNL     1       1.638  -2.470  -4.846  0.00  0.00    +0.039 A 
ATOM     16  C   UNL     1       0.972  -3.463  -5.548  0.00  0.00    +0.126 A 
ATOM     17  C   UNL     1       0.190  -4.388  -4.877  0.00  0.00    +0.077 A 
ATOM     18  C   UNL     1       0.074  -4.328  -3.501  0.00  0.00    +0.135 A 
ATOM     19  F   UNL     1      -0.684  -5.234  -2.845  0.00  0.00    -0.205 F 
ATOM     20  F   UNL     1       1.087  -3.530  -6.893  0.00  0.00    -0.205 F 
ENDBRANCH   5  13
BRANCH   3  21
ATOM     21  N   UNL     1      -0.333  -0.373  -2.418  0.00  0.00    -0.343 N 
ATOM     22  H   UNL     1      -0.523   0.559  -2.606  0.00  0.00    +0.144 HD
ATOM     23  H   UNL     1      -0.192  -0.996  -3.148  0.00  0.00    +0.144 HD
ENDBRANCH   3  21
BRANCH  11  24
ATOM     24  C   UNL     1       1.083  -5.379   2.949  0.00  0.00    +0.086 C 
BRANCH  24  25
ATOM     25  C   UNL     1       1.529  -6.738   3.490  0.00  0.00    -0.061 C 
BRANCH  25  26
ATOM     26  N   UNL     1       1.431  -6.739   4.955  0.00  0.00    +0.377 N 
ATOM     27  C   UNL     1       0.023  -6.606   5.352  0.00  0.00    -0.097 C 
ATOM     28  C   UNL     1       1.971  -7.999   5.482  0.00  0.00    -0.097 C 
ATOM     29  H   UNL     1       1.960  -5.964   5.328  0.00  0.00    -0.083 HD
ENDBRANCH  25  26
ENDBRANCH  24  25
ENDBRANCH  11  24
TORSDOF 5
