REMARK  Name = ZINC42295690
REMARK  8 active torsions:
REMARK  status: ('A' for Active; 'I' for Inactive)
REMARK    1  A    between atoms: C_1  and  C_2
REMARK    2  A    between atoms: C_5  and  O_20
REMARK    3  A    between atoms: C_6  and  C_8
REMARK    4  A    between atoms: C_8  and  N_9
REMARK    5  A    between atoms: N_9  and  C_10
REMARK    6  A    between atoms: C_10  and  C_12
REMARK    7  A    between atoms: C_10  and  C_13
REMARK    8  A    between atoms: O_20  and  C_21
REMARK                            x       y       z     vdW  Elec       q    Type
REMARK                         _______ _______ _______ _____ _____    ______ ____
ROOT
ATOM      1  N   UNL     1       1.424  -3.277   2.788  0.00  0.00    +0.386 N 
ATOM      2  H   UNL     1       1.753  -3.876   2.046  0.00  0.00    -0.085 HD
ATOM      3  H   UNL     1       2.025  -2.470   2.862  0.00  0.00    -0.085 HD
ENDROOT
BRANCH   1   4
ATOM      4  C   UNL     1       1.440  -4.016   4.058  0.00  0.00    -0.044 C 
ATOM      5  C   UNL     1       1.059  -3.074   5.202  0.00  0.00    -0.009 C 
BRANCH   4   6
ATOM      6  C   UNL     1       2.821  -4.569   4.300  0.00  0.00    -0.062 A 
ATOM      7  C   UNL     1       3.933  -3.804   4.001  0.00  0.00    +0.003 A 
ATOM      8  C   UNL     1       5.200  -4.310   4.223  0.00  0.00    +0.015 A 
ATOM      9  C   UNL     1       5.354  -5.582   4.745  0.00  0.00    +0.018 A 
ATOM     10  C   UNL     1       4.241  -6.347   5.044  0.00  0.00    +0.015 A 
ATOM     11  C   UNL     1       2.975  -5.838   4.826  0.00  0.00    +0.003 A 
ATOM     12 BR   UNL     1       7.087  -6.275   5.049  0.00  0.00    -0.050 Br
ENDBRANCH   4   6
ENDBRANCH   1   4
BRANCH   1  13
ATOM     13  C   UNL     1       0.052  -2.841   2.493  0.00  0.00    -0.042 C 
BRANCH  13  19
ATOM     14  C   UNL     1      -0.018   1.503   0.010  0.00  0.00    +0.044 C 
ATOM     15  C   UNL     1       0.002  -0.004   0.002  0.00  0.00    -0.050 A 
ATOM     16  C   UNL     1       0.006  -0.688  -1.200  0.00  0.00    +0.007 A 
ATOM     17  C   UNL     1       0.024  -2.069  -1.210  0.00  0.00    +0.046 A 
ATOM     18  C   UNL     1       0.039  -2.770  -0.013  0.00  0.00    +0.121 A 
ATOM     19  C   UNL     1       0.036  -2.082   1.191  0.00  0.00    -0.022 A 
ATOM     20  C   UNL     1       0.023  -0.701   1.196  0.00  0.00    +0.008 A 
BRANCH  18  21
ATOM     21  O   UNL     1       0.057  -4.129  -0.021  0.00  0.00    -0.495 OA
ATOM     22  C   UNL     1       0.058  -4.771  -1.298  0.00  0.00    +0.277 C 
ENDBRANCH  18  21
ENDBRANCH  13  19
ENDBRANCH   1  13
TORSDOF 5
