REMARK  Name = ZINC61629325
REMARK  4 active torsions:
REMARK  status: ('A' for Active; 'I' for Inactive)
REMARK    1  A    between atoms: C_6  and  N_7
REMARK    2  A    between atoms: C_8  and  S_15
REMARK    3  A    between atoms: C_10  and  C_12
REMARK    4  A    between atoms: S_15  and  N_18
REMARK                            x       y       z     vdW  Elec       q    Type
REMARK                         _______ _______ _______ _____ _____    ______ ____
ROOT
ATOM      1  N   UNL     1      -1.217  -0.700  -0.022  0.00  0.00    -0.213 N 
ATOM      2  C   UNL     1      -1.462  -1.849  -0.692  0.00  0.00    +0.197 A 
ATOM      3  C   UNL     1      -2.715  -2.250  -0.377  0.00  0.00    +0.079 A 
ATOM      4  C   UNL     1      -3.255  -1.316   0.514  0.00  0.00    +0.130 A 
ATOM      5  N   UNL     1      -2.356  -0.390   0.732  0.00  0.00    -0.164 NA
ENDROOT
BRANCH   1  11
ATOM      6  C   UNL     1       0.604   0.266  -1.285  0.00  0.00    +0.030 A 
ATOM      7  C   UNL     1       1.772   1.001  -1.330  0.00  0.00    +0.040 A 
ATOM      8  C   UNL     1       2.310   1.520  -0.164  0.00  0.00    +0.124 A 
ATOM      9  C   UNL     1       1.678   1.302   1.049  0.00  0.00    +0.040 A 
ATOM     10  C   UNL     1       0.510   0.567   1.098  0.00  0.00    +0.030 A 
ATOM     11  C   UNL     1      -0.031   0.047  -0.070  0.00  0.00    +0.068 A 
ATOM     12  F   UNL     1       3.453   2.239  -0.210  0.00  0.00    -0.205 F 
ENDBRANCH   1  11
BRANCH   4  13
ATOM     13  C   UNL     1      -4.632  -1.371   1.124  0.00  0.00    +0.391 C 
ATOM     14  F   UNL     1      -5.086  -0.070   1.369  0.00  0.00    -0.202 F 
ATOM     15  F   UNL     1      -5.508  -2.012   0.241  0.00  0.00    -0.202 F 
ENDBRANCH   4  13
BRANCH   2  16
ATOM     16  S   UNL     1      -0.349  -2.675  -1.780  0.00  0.00    +0.073 S 
ATOM     17  O   UNL     1      -0.568  -2.131  -3.075  0.00  0.00    -0.152 OA
ATOM     18  O   UNL     1       0.925  -2.654  -1.151  0.00  0.00    -0.152 OA
BRANCH  16  19
ATOM     19  N   UNL     1      -0.818  -4.261  -1.848  0.00  0.00    -0.202 NA
ATOM     20  H   UNL     1      -1.584  -4.563  -1.335  0.00  0.00    +0.144 HD
ATOM     21  H   UNL     1      -0.326  -4.889  -2.400  0.00  0.00    +0.144 HD
ENDBRANCH  16  19
ENDBRANCH   2  16
TORSDOF 4
