REMARK  Name = ZINC42910024
REMARK  8 active torsions:
REMARK  status: ('A' for Active; 'I' for Inactive)
REMARK    1  A    between atoms: C_1  and  C_2
REMARK    2  A    between atoms: C_2  and  C_3
REMARK    3  A    between atoms: C_2  and  C_4
REMARK    4  A    between atoms: C_2  and  C_5
REMARK    5  A    between atoms: C_7  and  C_13
REMARK    6  A    between atoms: C_8  and  O_12
REMARK    7  A    between atoms: C_9  and  O_11
REMARK    8  A    between atoms: C_13  and  N_14
REMARK                            x       y       z     vdW  Elec       q    Type
REMARK                         _______ _______ _______ _____ _____    ______ ____
ROOT
ATOM      1  C   UNL     1       2.280  -0.087  -2.891  0.00  0.00    -0.038 A 
ATOM      2  C   UNL     1       2.404  -1.445  -3.122  0.00  0.00    +0.013 A 
ATOM      3  C   UNL     1       1.494  -2.328  -2.572  0.00  0.00    +0.012 A 
ATOM      4  C   UNL     1       0.456  -1.854  -1.787  0.00  0.00    +0.163 A 
ATOM      5  C   UNL     1       0.331  -0.488  -1.554  0.00  0.00    +0.159 A 
ATOM      6  C   UNL     1       1.249   0.392  -2.104  0.00  0.00    +0.053 A 
ENDROOT
BRANCH   1   8
ATOM      7  C   UNL     1       2.918   2.301  -3.081  0.00  0.00    +0.015 C 
ATOM      8  C   UNL     1       3.275   0.872  -3.493  0.00  0.00    -0.013 C 
ATOM      9  C   UNL     1       3.237   0.755  -5.018  0.00  0.00    +0.015 C 
ATOM     10  C   UNL     1       4.680   0.531  -2.990  0.00  0.00    +0.015 C 
ENDBRANCH   1   8
BRANCH   5  11
ATOM     11  O   UNL     1      -0.687  -0.018  -0.785  0.00  0.00    -0.503 OA
ATOM     12  H   UNL     1      -0.473   0.042   0.157  0.00  0.00    +0.292 HD
ENDBRANCH   5  11
BRANCH   4  13
ATOM     13  O   UNL     1      -0.441  -2.722  -1.246  0.00  0.00    -0.503 OA
ATOM     14  H   UNL     1      -0.231  -2.990  -0.341  0.00  0.00    +0.292 HD
ENDBRANCH   4  13
BRANCH   3  15
ATOM     15  C   UNL     1       1.632  -3.807  -2.827  0.00  0.00    +0.123 C 
BRANCH  15  16
ATOM     16  N   UNL     1       0.613  -4.234  -3.795  0.00  0.00    -0.295 NA
ATOM     17  C   UNL     1       0.922  -3.732  -5.140  0.00  0.00    +0.103 C 
ATOM     18  C   UNL     1      -0.249  -4.042  -6.079  0.00  0.00    +0.122 C 
ATOM     19  N   UNL     1      -0.539  -5.482  -6.004  0.00  0.00    -0.314 N 
ATOM     20  C   UNL     1      -0.725  -6.086  -4.676  0.00  0.00    +0.122 C 
ATOM     21  C   UNL     1       0.465  -5.696  -3.793  0.00  0.00    +0.103 C 
ATOM     22  C   UNL     1      -0.635  -6.251  -7.158  0.00  0.00    +0.099 A 
ATOM     23  C   UNL     1      -0.788  -7.630  -7.056  0.00  0.00    +0.042 A 
ATOM     24  C   UNL     1      -0.882  -8.383  -8.213  0.00  0.00    +0.005 A 
ATOM     25  C   UNL     1      -0.819  -7.730  -9.436  0.00  0.00    +0.018 A 
ATOM     26  C   UNL     1      -0.665  -6.359  -9.463  0.00  0.00    +0.084 A 
ATOM     27  N   UNL     1      -0.584  -5.664  -8.344  0.00  0.00    -0.350 N 
ATOM     28  H   UNL     1      -0.480  -4.701  -8.391  0.00  0.00    +0.166 HD
ENDBRANCH  15  16
ENDBRANCH   3  15
TORSDOF 5
