REMARK  Name = ZINC53865854
REMARK  12 active torsions:
REMARK  status: ('A' for Active; 'I' for Inactive)
REMARK    1  A    between atoms: C_1  and  C_2
REMARK    2  A    between atoms: C_2  and  C_3
REMARK    3  A    between atoms: C_3  and  C_4
REMARK    4  A    between atoms: C_8  and  N_22
REMARK    5  A    between atoms: C_10  and  C_13
REMARK    6  A    between atoms: C_13  and  N_14
REMARK    7  A    between atoms: N_14  and  C_15
REMARK    8  A    between atoms: N_14  and  C_17
REMARK    9  A    between atoms: C_15  and  C_16
REMARK   10  A    between atoms: C_17  and  C_19
REMARK   11  A    between atoms: C_17  and  C_20
REMARK   12  A    between atoms: C_20  and  C_21
REMARK                            x       y       z     vdW  Elec       q    Type
REMARK                         _______ _______ _______ _____ _____    ______ ____
ROOT
ATOM      1  C   UNL     1       0.565  -2.983   1.008  0.00  0.00    -0.011 C 
ATOM      2  C   UNL     1       1.383  -2.609  -0.229  0.00  0.00    +0.002 C 
ATOM      3  C   UNL     1       2.199  -1.348   0.062  0.00  0.00    -0.016 C 
ATOM      4  C   UNL     1       3.143  -1.611   1.237  0.00  0.00    -0.074 C 
ATOM      5  C   UNL     1       2.324  -1.984   2.474  0.00  0.00    -0.042 C 
ATOM      6  C   UNL     1       1.508  -3.246   2.184  0.00  0.00    +0.003 C 
ENDROOT
BRANCH   4   7
ATOM      7  N   UNL     1       3.926  -0.400   1.516  0.00  0.00    +0.380 N 
ATOM      8  H   UNL     1       3.302   0.358   1.748  0.00  0.00    -0.090 HD
ATOM      9  H   UNL     1       4.548  -0.573   2.291  0.00  0.00    -0.090 HD
ATOM     10  H   UNL     1       4.466  -0.153   0.700  0.00  0.00    -0.090 HD
ENDBRANCH   4   7
BRANCH   1  11
ATOM     11  C   UNL     1      -0.381  -1.834   1.361  0.00  0.00    +0.003 C 
BRANCH  11  13
ATOM     12  C   UNL     1      -2.351  -0.503   0.590  0.00  0.00    +0.004 C 
ATOM     13  C   UNL     1      -1.405  -1.653   0.238  0.00  0.00    -0.003 C 
ENDBRANCH  11  13
ENDBRANCH   1  11
BRANCH   5  14
ATOM     14  C   UNL     1       3.268  -2.247   3.650  0.00  0.00    -0.077 C 
BRANCH  14  15
ATOM     15  N   UNL     1       2.687  -1.688   4.878  0.00  0.00    +0.381 N 
ATOM     16  H   UNL     1       2.440  -0.722   4.724  0.00  0.00    -0.081 HD
BRANCH  15  17
ATOM     17  C   UNL     1       3.668  -1.775   5.968  0.00  0.00    -0.082 C 
ATOM     18  C   UNL     1       4.868  -0.882   5.645  0.00  0.00    -0.017 C 
ENDBRANCH  15  17
BRANCH  15  19
ATOM     19  C   UNL     1       1.484  -2.449   5.241  0.00  0.00    -0.072 C 
ATOM     20  C   UNL     1       1.856  -3.917   5.461  0.00  0.00    -0.013 C 
BRANCH  19  21
ATOM     21  C   UNL     1       0.887  -1.876   6.528  0.00  0.00    -0.019 C 
ATOM     22  C   UNL     1       0.531  -0.403   6.314  0.00  0.00    +0.002 C 
ENDBRANCH  19  21
ENDBRANCH  15  19
ENDBRANCH  14  15
ENDBRANCH   5  14
TORSDOF 8
