REMARK  Name = ZINC40453646
REMARK  5 active torsions:
REMARK  status: ('A' for Active; 'I' for Inactive)
REMARK    1  A    between atoms: C_1  and  C_2
REMARK    2  A    between atoms: C_11  and  N_13
REMARK    3  A    between atoms: N_13  and  C_14
REMARK    4  A    between atoms: C_14  and  C_16
REMARK    5  A    between atoms: C_14  and  C_17
REMARK                            x       y       z     vdW  Elec       q    Type
REMARK                         _______ _______ _______ _____ _____    ______ ____
ROOT
ATOM      1  C   UNL     1      -0.018   1.503   0.010  0.00  0.00    +0.045 C 
ATOM      2  C   UNL     1       0.002  -0.004   0.002  0.00  0.00    -0.029 A 
ATOM      3  C   UNL     1       0.006  -0.686  -1.198  0.00  0.00    +0.005 A 
ATOM      4  C   UNL     1       0.024  -2.068  -1.216  0.00  0.00    +0.001 A 
ATOM      5  C   UNL     1       0.039  -2.773  -0.024  0.00  0.00    +0.004 A 
ATOM      6  C   UNL     1       0.036  -2.095   1.174  0.00  0.00    -0.031 A 
ATOM      7  C   UNL     1       0.023  -0.706   1.206  0.00  0.00    +0.038 A 
ATOM      8  N   UNL     1       0.029  -0.253   2.525  0.00  0.00    -0.286 N 
ATOM      9  C   UNL     1       0.052  -1.264   3.410  0.00  0.00    +0.208 C 
ATOM     10  O   UNL     1       0.062  -1.164   4.619  0.00  0.00    -0.277 OA
ATOM     11  C   UNL     1       0.049  -2.553   2.614  0.00  0.00    +0.050 C 
ATOM     12  H   UNL     1       0.019   0.684   2.776  0.00  0.00    +0.155 HD
ENDROOT
BRANCH  11  13
ATOM     13  N   UNL     1      -1.147  -3.353   2.910  0.00  0.00    +0.394 N 
ATOM     14  H   UNL     1      -1.968  -2.773   2.831  0.00  0.00    -0.083 HD
ATOM     15  H   UNL     1      -1.210  -4.118   2.255  0.00  0.00    -0.083 HD
BRANCH  13  16
ATOM     16  C   UNL     1      -1.054  -3.885   4.277  0.00  0.00    -0.036 C 
ATOM     17  C   UNL     1       0.120  -4.863   4.364  0.00  0.00    -0.008 C 
BRANCH  16  18
ATOM     18  C   UNL     1      -2.333  -4.603   4.624  0.00  0.00    -0.023 A 
ATOM     19  C   UNL     1      -3.022  -4.602   5.791  0.00  0.00    +0.011 A 
ATOM     20  C   UNL     1      -4.185  -5.343   5.884  0.00  0.00    +0.028 A 
ATOM     21  C   UNL     1      -4.602  -6.049   4.803  0.00  0.00    +0.078 A 
ATOM     22  S   UNL     1      -3.337  -5.668   3.603  0.00  0.00    -0.083 S 
ATOM     23 CL   UNL     1      -6.005  -7.057   4.631  0.00  0.00    -0.076 Cl
ENDBRANCH  16  18
ENDBRANCH  13  16
ENDBRANCH  11  13
TORSDOF 3
