REMARK  Name = ZINC13693282
REMARK  5 active torsions:
REMARK  status: ('A' for Active; 'I' for Inactive)
REMARK    1  A    between atoms: C_1  and  C_2
REMARK    2  A    between atoms: C_9  and  C_25
REMARK    3  A    between atoms: C_10  and  C_24
REMARK    4  A    between atoms: N_15  and  C_17
REMARK    5  A    between atoms: C_17  and  C_18
REMARK                            x       y       z     vdW  Elec       q    Type
REMARK                         _______ _______ _______ _____ _____    ______ ____
ROOT
ATOM      1  C   UNL     1       1.066   3.398   0.003  0.00  0.00    +0.044 C 
ATOM      2  C   UNL     1      -0.417   3.664   0.018  0.00  0.00    -0.046 A 
ATOM      3  C   UNL     1      -0.905   4.964   0.027  0.00  0.00    +0.023 A 
ATOM      4  C   UNL     1      -2.270   5.174   0.041  0.00  0.00    +0.113 A 
ATOM      5  N   UNL     1      -3.110   4.157   0.045  0.00  0.00    -0.237 NA
ATOM      6  C   UNL     1      -2.684   2.904   0.030  0.00  0.00    +0.139 A 
ATOM      7  C   UNL     1      -1.324   2.619   0.022  0.00  0.00    +0.050 A 
ATOM      8  N   UNL     1      -3.610   1.858   0.030  0.00  0.00    -0.282 N 
ATOM      9  C   UNL     1      -4.973   2.014   0.043  0.00  0.00    +0.028 A 
ATOM     10  C   UNL     1      -5.564   0.805   0.035  0.00  0.00    -0.017 A 
ATOM     11  C   UNL     1      -4.493  -0.184   0.025  0.00  0.00    +0.062 A 
ATOM     12  C   UNL     1      -3.291   0.528   0.022  0.00  0.00    +0.152 A 
ATOM     13  N   UNL     1      -2.128  -0.147   0.012  0.00  0.00    -0.219 NA
ATOM     14  C   UNL     1      -2.075  -1.445   0.006  0.00  0.00    +0.203 A 
ATOM     15  N   UNL     1      -3.183  -2.234   0.008  0.00  0.00    -0.312 N 
ATOM     16  C   UNL     1      -4.438  -1.650   0.017  0.00  0.00    +0.117 A 
ATOM     17  C   UNL     1      -7.045   0.527   0.041  0.00  0.00    +0.046 C 
ATOM     18  C   UNL     1      -5.697   3.335   0.060  0.00  0.00    +0.064 C 
ATOM     19  H   UNL     1      -5.573  -3.350   0.015  0.00  0.00    +0.157 HD
ATOM     20  N   UNL     1      -5.585  -2.330   0.020  0.00  0.00    -0.384 N 
ATOM     21  H   UNL     1      -6.480  -1.827   0.027  0.00  0.00    +0.157 HD
ENDROOT
BRANCH  15  22
ATOM     22  C   UNL     1      -3.050  -3.692   0.001  0.00  0.00    +0.179 C 
BRANCH  22  23
ATOM     23  C   UNL     1      -3.135  -4.198  -1.416  0.00  0.00    +0.061 A 
ATOM     24  C   UNL     1      -2.116  -4.983  -1.924  0.00  0.00    +0.025 A 
ATOM     25  C   UNL     1      -2.204  -5.443  -3.228  0.00  0.00    +0.003 A 
ATOM     26  C   UNL     1      -3.318  -5.095  -3.978  0.00  0.00    +0.020 A 
ATOM     27  C   UNL     1      -4.296  -4.306  -3.403  0.00  0.00    +0.111 A 
ATOM     28  N   UNL     1      -4.181  -3.890  -2.156  0.00  0.00    -0.258 NA
ENDBRANCH  22  23
ENDBRANCH  15  22
TORSDOF 2
