REMARK  Name = ZINC32697363
REMARK  7 active torsions:
REMARK  status: ('A' for Active; 'I' for Inactive)
REMARK    1  A    between atoms: C_1  and  C_2
REMARK    2  A    between atoms: C_3  and  C_19
REMARK    3  A    between atoms: C_5  and  N_9
REMARK    4  A    between atoms: C_6  and  C_7
REMARK    5  A    between atoms: C_10  and  C_12
REMARK    6  A    between atoms: C_12  and  S_13
REMARK    7  A    between atoms: S_13  and  C_14
REMARK                            x       y       z     vdW  Elec       q    Type
REMARK                         _______ _______ _______ _____ _____    ______ ____
ROOT
ATOM      1  N   UNL     1       1.783   3.154   0.002  0.00  0.00    -0.255 N 
ATOM      2  C   UNL     1       3.110   3.392  -0.009  0.00  0.00    +0.230 C 
ATOM      3  O   UNL     1       3.892   2.464  -0.022  0.00  0.00    -0.274 OA
ATOM      4  H   UNL     1       1.074   3.995   0.013  0.00  0.00    +0.158 HD
ENDROOT
BRANCH   1   9
ATOM      5  C   UNL     1      -1.190  -0.926   0.009  0.00  0.00    +0.049 C 
ATOM      6  C   UNL     1       0.002  -0.004   0.002  0.00  0.00    +0.010 A 
ATOM      7  C   UNL     1       1.294  -0.359  -0.012  0.00  0.00    +0.109 A 
ATOM      8  O   UNL     1       2.064   0.743  -0.014  0.00  0.00    -0.445 OA
ATOM      9  C   UNL     1       1.313   1.853  -0.001  0.00  0.00    +0.210 A 
ATOM     10  C   UNL     1      -0.018   1.467   0.010  0.00  0.00    +0.115 A 
ATOM     11  C   UNL     1       1.806  -1.776  -0.024  0.00  0.00    +0.086 C 
BRANCH  10  12
ATOM     12  C   UNL     1      -1.168   2.320   0.021  0.00  0.00    +0.105 C 
ATOM     13  N   UNL     1      -2.081   2.996   0.029  0.00  0.00    -0.191 NA
ENDBRANCH  10  12
ENDBRANCH   1   9
BRANCH   2  14
ATOM     14  C   UNL     1       3.622   4.809  -0.007  0.00  0.00    +0.173 C 
BRANCH  14  15
ATOM     15  S   UNL     1       5.432   4.796  -0.024  0.00  0.00    -0.077 S 
BRANCH  15  16
ATOM     16  C   UNL     1       5.750   6.529  -0.018  0.00  0.00    +0.184 A 
ATOM     17  N   UNL     1       6.976   7.130  -0.026  0.00  0.00    -0.209 NA
ATOM     18  C   UNL     1       6.730   8.475  -0.018  0.00  0.00    +0.245 A 
ATOM     19  N   UNL     1       5.437   8.632   0.004  0.00  0.00    -0.160 NA
ATOM     20  N   UNL     1       4.853   7.488  -0.004  0.00  0.00    -0.254 N 
ATOM     21  H   UNL     1       3.754   7.431   0.001  0.00  0.00    +0.191 HD
ENDBRANCH  15  16
ENDBRANCH  14  15
ENDBRANCH   2  14
TORSDOF 5
