REMARK  Name = ZINC66925330
REMARK  8 active torsions:
REMARK  status: ('A' for Active; 'I' for Inactive)
REMARK    1  A    between atoms: C_1  and  O_2
REMARK    2  A    between atoms: O_2  and  C_3
REMARK    3  A    between atoms: C_3  and  C_5
REMARK    4  A    between atoms: C_3  and  C_22
REMARK    5  A    between atoms: C_5  and  N_6
REMARK    6  A    between atoms: N_9  and  C_10
REMARK    7  A    between atoms: C_10  and  C_11
REMARK    8  A    between atoms: C_11  and  O_21
REMARK                            x       y       z     vdW  Elec       q    Type
REMARK                         _______ _______ _______ _____ _____    ______ ____
ROOT
ATOM      1  N   UNL     1       1.994  -1.752   0.611  0.00  0.00    -0.297 N 
ATOM      2  C   UNL     1       2.790  -2.775   0.980  0.00  0.00    +0.300 C 
ATOM      3  O   UNL     1       2.674  -3.861   0.444  0.00  0.00    -0.253 OA
ATOM      4  N   UNL     1       3.716  -2.595   1.943  0.00  0.00    -0.296 N 
ATOM      5  H   UNL     1       2.087  -0.887   1.038  0.00  0.00    +0.150 HD
ATOM      6  H   UNL     1       3.809  -1.730   2.371  0.00  0.00    +0.150 HD
ENDROOT
BRANCH   1   7
ATOM      7  C   UNL     1       0.988  -1.948  -0.436  0.00  0.00    +0.142 C 
BRANCH   7   8
ATOM      8  C   UNL     1       0.226  -0.641  -0.662  0.00  0.00    +0.165 C 
BRANCH   8   9
ATOM      9  C   UNL     1      -0.809  -0.842  -1.739  0.00  0.00    -0.017 A 
ATOM     10  C   UNL     1      -2.053  -1.351  -1.415  0.00  0.00    +0.006 A 
ATOM     11  C   UNL     1      -3.002  -1.535  -2.403  0.00  0.00    +0.000 A 
ATOM     12  C   UNL     1      -2.707  -1.210  -3.714  0.00  0.00    +0.000 A 
ATOM     13  C   UNL     1      -1.463  -0.701  -4.037  0.00  0.00    +0.000 A 
ATOM     14  C   UNL     1      -0.516  -0.512  -3.049  0.00  0.00    +0.006 A 
ENDBRANCH   8   9
BRANCH   8  16
ATOM     15  C   UNL     1      -0.568   1.163   0.702  0.00  0.00    +0.194 C 
ATOM     16  O   UNL     1      -0.419  -0.250   0.552  0.00  0.00    -0.374 OA
ENDBRANCH   8  16
ENDBRANCH   7   8
ENDBRANCH   1   7
BRANCH   4  17
ATOM     17  C   UNL     1       4.581  -3.707   2.344  0.00  0.00    +0.145 C 
BRANCH  17  18
ATOM     18  C   UNL     1       5.620  -3.208   3.350  0.00  0.00    +0.107 C 
ATOM     19  C   UNL     1       6.412  -2.059   2.728  0.00  0.00    +0.041 C 
ATOM     20  C   UNL     1       7.583  -1.719   3.657  0.00  0.00    +0.008 C 
ATOM     21  C   UNL     1       8.589  -2.867   3.604  0.00  0.00    +0.035 C 
ATOM     22  C   UNL     1       7.901  -4.186   3.842  0.00  0.00    -0.041 A 
ATOM     23  C   UNL     1       6.538  -4.343   3.722  0.00  0.00    -0.011 A 
ATOM     24  C   UNL     1       5.966  -5.588   3.949  0.00  0.00    +0.007 A 
ATOM     25  C   UNL     1       6.753  -6.667   4.298  0.00  0.00    +0.000 A 
ATOM     26  C   UNL     1       8.120  -6.509   4.422  0.00  0.00    +0.000 A 
ATOM     27  C   UNL     1       8.690  -5.273   4.195  0.00  0.00    +0.004 A 
BRANCH  18  28
ATOM     28  O   UNL     1       4.953  -2.738   4.523  0.00  0.00    -0.382 OA
ATOM     29  H   UNL     1       4.421  -3.411   4.970  0.00  0.00    +0.211 HD
ENDBRANCH  18  28
ENDBRANCH  17  18
ENDBRANCH   4  17
TORSDOF 7
