REMARK  Name = ZINC38107863
REMARK  3 active torsions:
REMARK  status: ('A' for Active; 'I' for Inactive)
REMARK    1  A    between atoms: C_6  and  N_7
REMARK    2  A    between atoms: N_7  and  S_8
REMARK    3  A    between atoms: S_8  and  C_11
REMARK                            x       y       z     vdW  Elec       q    Type
REMARK                         _______ _______ _______ _____ _____    ______ ____
ROOT
ATOM      1  C   UNL     1      -0.020   1.383  -0.053  0.00  0.00    +0.055 A 
ATOM      2  C   UNL     1       1.173   2.090  -0.077  0.00  0.00    +0.069 A 
ATOM      3  C   UNL     1       2.389   1.405  -0.062  0.00  0.00    +0.068 A 
ATOM      4  C   UNL     1       2.404   0.019  -0.024  0.00  0.00    +0.045 A 
ATOM      5  C   UNL     1       1.215  -0.683  -0.001  0.00  0.00    +0.044 A 
ATOM      6  C   UNL     1       0.001  -0.003  -0.014  0.00  0.00    +0.090 A 
ATOM      7 BR   UNL     1       1.236  -2.573   0.051  0.00  0.00    -0.048 Br
ATOM      8  N   UNL     1       3.396   2.371  -0.092  0.00  0.00    -0.306 N 
ATOM      9  H   UNL     1       4.350   2.197  -0.090  0.00  0.00    +0.170 HD
ATOM     10  C   UNL     1       2.816   3.586  -0.124  0.00  0.00    +0.325 A 
ATOM     11  O   UNL     1       3.412   4.646  -0.155  0.00  0.00    -0.247 OA
ATOM     12  N   UNL     1       1.476   3.449  -0.116  0.00  0.00    -0.306 N 
ATOM     13  H   UNL     1       0.832   4.174  -0.135  0.00  0.00    +0.170 HD
ENDROOT
BRANCH   6  14
ATOM     14  N   UNL     1      -1.201  -0.719   0.010  0.00  0.00    -0.096 NA
BRANCH  14  15
ATOM     15  S   UNL     1      -2.641   0.086   0.154  0.00  0.00    +0.099 S 
ATOM     16  O   UNL     1      -2.607   0.759   1.405  0.00  0.00    -0.148 OA
ATOM     17  O   UNL     1      -2.849   0.769  -1.075  0.00  0.00    -0.148 OA
BRANCH  15  18
ATOM     18  C   UNL     1      -3.909  -1.133   0.272  0.00  0.00    +0.168 A 
ATOM     19  C   UNL     1      -4.435  -1.732   1.370  0.00  0.00    +0.149 A 
ATOM     20  N   UNL     1      -5.388  -2.620   1.168  0.00  0.00    -0.234 NA
ATOM     21  C   UNL     1      -5.805  -2.909  -0.041  0.00  0.00    +0.169 A 
ATOM     22  S   UNL     1      -4.863  -1.915  -1.019  0.00  0.00    -0.036 S 
ATOM     23 CL   UNL     1      -7.036  -4.037  -0.517  0.00  0.00    -0.054 Cl
ENDBRANCH  15  18
ENDBRANCH  14  15
ENDBRANCH   6  14
TORSDOF 3
