REMARK  Name = ZINC14478022
REMARK  3 active torsions:
REMARK  status: ('A' for Active; 'I' for Inactive)
REMARK    1  A    between atoms: C_4  and  N_24
REMARK    2  A    between atoms: C_5  and  C_7
REMARK    3  A    between atoms: C_20  and  O_23
REMARK                            x       y       z     vdW  Elec       q    Type
REMARK                         _______ _______ _______ _____ _____    ______ ____
ROOT
ATOM      1  C   UNL     1      -2.553   3.869   0.047  0.00  0.00    +0.107 C 
ATOM      2  C   UNL     1      -2.852   4.335   1.463  0.00  0.00    +0.029 C 
ATOM      3  C   UNL     1      -3.233   3.131   2.357  0.00  0.00    +0.033 C 
ATOM      4  C   UNL     1      -4.198   3.736   3.360  0.00  0.00    -0.030 C 
ATOM      5  C   UNL     1      -4.715   4.842   2.889  0.00  0.00    -0.023 C 
ATOM      6  C   UNL     1      -4.168   5.138   1.502  0.00  0.00    +0.049 C 
ATOM      7  C   UNL     1      -5.157   4.620   0.491  0.00  0.00    -0.016 A 
ATOM      8  C   UNL     1      -6.418   5.205   0.466  0.00  0.00    +0.006 A 
ATOM      9  C   UNL     1      -7.372   4.782  -0.436  0.00  0.00    +0.004 A 
ATOM     10  C   UNL     1      -7.081   3.767  -1.329  0.00  0.00    +0.047 A 
ATOM     11  C   UNL     1      -5.830   3.178  -1.312  0.00  0.00    +0.138 A 
ATOM     12  C   UNL     1      -4.863   3.606  -0.396  0.00  0.00    +0.073 A 
ATOM     13  N   UNL     1      -3.615   2.976  -0.420  0.00  0.00    -0.334 N 
ATOM     14  H   UNL     1      -3.408   2.617  -1.340  0.00  0.00    +0.147 HD
ENDROOT
BRANCH   1  19
ATOM     15  C   UNL     1      -0.013   1.076   0.008  0.00  0.00    +0.000 A 
ATOM     16  C   UNL     1       1.175   1.783   0.000  0.00  0.00    +0.002 A 
ATOM     17  C   UNL     1       1.157   3.165   0.008  0.00  0.00    +0.033 A 
ATOM     18  C   UNL     1      -0.050   3.840   0.022  0.00  0.00    +0.131 A 
ATOM     19  C   UNL     1      -1.238   3.133   0.030  0.00  0.00    +0.003 A 
ATOM     20  C   UNL     1      -1.219   1.750   0.017  0.00  0.00    +0.008 A 
BRANCH  18  21
ATOM     21  N   UNL     1      -0.070   5.320   0.030  0.00  0.00    +0.057 N 
ATOM     22  O   UNL     1       0.976   5.944   0.023  0.00  0.00    -0.126 OA
ATOM     23  O   UNL     1      -1.133   5.915   0.043  0.00  0.00    -0.126 OA
ENDBRANCH  18  21
ENDBRANCH   1  19
BRANCH  11  24
ATOM     24  O   UNL     1      -5.540   2.179  -2.188  0.00  0.00    -0.505 OA
ATOM     25  H   UNL     1      -5.745   1.294  -1.857  0.00  0.00    +0.292 HD
ENDBRANCH  11  24
TORSDOF 3
