REMARK  Name = ZINC27537178
REMARK  11 active torsions:
REMARK  status: ('A' for Active; 'I' for Inactive)
REMARK    1  A    between atoms: C_1  and  C_2
REMARK    2  A    between atoms: C_4  and  C_29
REMARK    3  A    between atoms: C_5  and  N_9
REMARK    4  A    between atoms: C_6  and  C_8
REMARK    5  A    between atoms: C_10  and  C_12
REMARK    6  A    between atoms: C_12  and  N_13
REMARK    7  A    between atoms: N_13  and  C_14
REMARK    8  A    between atoms: N_13  and  C_15
REMARK    9  A    between atoms: C_15  and  C_17
REMARK   10  A    between atoms: C_15  and  C_18
REMARK   11  A    between atoms: N_23  and  C_24
REMARK                            x       y       z     vdW  Elec       q    Type
REMARK                         _______ _______ _______ _____ _____    ______ ____
ROOT
ATOM      1  N   UNL     1      -0.179  -6.052   1.653  0.00  0.00    +0.391 N 
ATOM      2  C   UNL     1      -1.306  -5.536   2.442  0.00  0.00    -0.094 C 
ATOM      3  H   UNL     1       0.687  -5.704   2.037  0.00  0.00    -0.080 HD
ENDROOT
BRANCH   1   4
ATOM      4  C   UNL     1      -0.180  -7.520   1.700  0.00  0.00    +0.017 C 
ATOM      5  C   UNL     1      -0.200  -7.984   3.158  0.00  0.00    -0.004 C 
BRANCH   4   6
ATOM      6  C   UNL     1       1.059  -8.045   1.023  0.00  0.00    +0.207 C 
ATOM      7  O   UNL     1       1.973  -7.292   0.763  0.00  0.00    -0.277 OA
ATOM      8  N   UNL     1       1.152  -9.352   0.706  0.00  0.00    -0.242 N 
ATOM      9  C   UNL     1       2.260  -9.822   0.100  0.00  0.00    +0.306 C 
ATOM     10  O   UNL     1       3.176  -9.067  -0.161  0.00  0.00    -0.252 OA
ATOM     11  N   UNL     1       2.353 -11.128  -0.217  0.00  0.00    -0.296 N 
ATOM     12  H   UNL     1       0.420  -9.954   0.914  0.00  0.00    +0.159 HD
ATOM     13  H   UNL     1       1.621 -11.731  -0.009  0.00  0.00    +0.151 HD
BRANCH  11  14
ATOM     14  C   UNL     1       3.558 -11.639  -0.876  0.00  0.00    +0.074 C 
ATOM     15  C   UNL     1       3.422 -11.501  -2.406  0.00  0.00    +0.022 C 
ATOM     16  C   UNL     1       4.103 -12.775  -2.965  0.00  0.00    +0.002 C 
ATOM     17  C   UNL     1       3.681 -13.862  -1.945  0.00  0.00    +0.002 C 
ATOM     18  C   UNL     1       3.723 -13.140  -0.583  0.00  0.00    +0.022 C 
ENDBRANCH  11  14
ENDBRANCH   4   6
ENDBRANCH   1   4
BRANCH   1  19
ATOM     19  C   UNL     1      -0.312  -5.606   0.260  0.00  0.00    +0.020 C 
BRANCH  19  21
ATOM     20  N   UNL     1      -0.210  -3.477  -0.995  0.00  0.00    -0.287 N 
ATOM     21  C   UNL     1      -0.130  -4.112   0.191  0.00  0.00    +0.201 C 
ATOM     22  O   UNL     1       0.089  -3.480   1.203  0.00  0.00    -0.278 OA
ATOM     23  H   UNL     1      -0.305  -3.989  -1.814  0.00  0.00    +0.155 HD
BRANCH  20  28
ATOM     24  C   UNL     1       0.004   2.188  -1.204  0.00  0.00    +0.044 C 
ATOM     25  C   UNL     1      -0.053   0.683  -1.148  0.00  0.00    -0.050 A 
ATOM     26  C   UNL     1       0.983  -0.026  -0.567  0.00  0.00    +0.008 A 
ATOM     27  C   UNL     1       0.933  -1.405  -0.515  0.00  0.00    -0.029 A 
ATOM     28  C   UNL     1      -0.158  -2.080  -1.046  0.00  0.00    +0.039 A 
ATOM     29  C   UNL     1      -1.196  -1.365  -1.629  0.00  0.00    -0.029 A 
ATOM     30  C   UNL     1      -1.143   0.014  -1.674  0.00  0.00    +0.008 A 
ATOM     31  C   UNL     1      -2.382  -2.094  -2.207  0.00  0.00    +0.045 C 
ATOM     32  C   UNL     1       2.063  -2.177   0.118  0.00  0.00    +0.045 C 
ENDBRANCH  20  28
ENDBRANCH  19  21
ENDBRANCH   1  19
TORSDOF 6
