REMARK  Name = ZINC39380781
REMARK  8 active torsions:
REMARK  status: ('A' for Active; 'I' for Inactive)
REMARK    1  A    between atoms: C_1  and  C_2
REMARK    2  A    between atoms: C_5  and  S_8
REMARK    3  A    between atoms: S_8  and  C_9
REMARK    4  A    between atoms: C_9  and  C_10
REMARK    5  A    between atoms: C_10  and  N_11
REMARK    6  A    between atoms: N_11  and  C_12
REMARK    7  A    between atoms: C_12  and  C_13
REMARK    8  A    between atoms: C_17  and  C_19
REMARK                            x       y       z     vdW  Elec       q    Type
REMARK                         _______ _______ _______ _____ _____    ______ ____
ROOT
ATOM      1  C   UNL     1      -9.611   2.667   0.039  0.00  0.00    -0.039 C 
ATOM      2  C   UNL     1     -10.008   3.561   0.947  0.00  0.00    +0.132 C 
ATOM      3  N   UNL     1     -10.799   2.982   1.877  0.00  0.00    -0.186 NA
ATOM      4  N   UNL     1     -10.992   1.775   1.706  0.00  0.00    -0.298 N 
ATOM      5  C   UNL     1     -10.264   1.372   0.491  0.00  0.00    +0.155 C 
ATOM      6  H   UNL     1     -11.529   1.196   2.270  0.00  0.00    +0.183 HD
ENDROOT
BRANCH   5   7
ATOM      7  C   UNL     1      -9.221   0.335   0.816  0.00  0.00    -0.012 A 
ATOM      8  C   UNL     1      -8.873   0.097   2.111  0.00  0.00    +0.006 A 
ATOM      9  C   UNL     1      -7.911  -0.859   2.431  0.00  0.00    +0.001 A 
ATOM     10  C   UNL     1      -7.291  -1.582   1.459  0.00  0.00    +0.008 A 
ATOM     11  C   UNL     1      -7.623  -1.364   0.112  0.00  0.00    -0.018 A 
ATOM     12  C   UNL     1      -8.606  -0.397  -0.214  0.00  0.00    -0.012 A 
ATOM     13  C   UNL     1      -8.943  -0.183  -1.562  0.00  0.00    +0.009 A 
ATOM     14  C   UNL     1      -8.327  -0.910  -2.533  0.00  0.00    +0.001 A 
ATOM     15  C   UNL     1      -7.365  -1.866  -2.213  0.00  0.00    +0.001 A 
ATOM     16  C   UNL     1      -7.003  -2.091  -0.920  0.00  0.00    +0.008 A 
ENDBRANCH   5   7
BRANCH   1  17
ATOM     17  C   UNL     1      -8.726   2.891  -1.159  0.00  0.00    -0.047 C 
BRANCH  17  18
ATOM     18  N   UNL     1      -7.338   2.554  -0.813  0.00  0.00    +0.382 N 
ATOM     19  H   UNL     1      -7.287   1.586  -0.534  0.00  0.00    -0.085 HD
ATOM     20  H   UNL     1      -7.029   3.141  -0.053  0.00  0.00    -0.085 HD
BRANCH  18  21
ATOM     21  C   UNL     1      -6.475   2.773  -1.982  0.00  0.00    -0.071 C 
BRANCH  21  22
ATOM     22  C   UNL     1      -5.030   2.422  -1.621  0.00  0.00    +0.058 C 
BRANCH  22  23
ATOM     23  S   UNL     1      -3.964   2.692  -3.064  0.00  0.00    -0.088 S 
BRANCH  23  28
ATOM     24  C   UNL     1      -0.013   1.086   0.008  0.00  0.00    +0.090 C 
ATOM     25  C   UNL     1      -0.742   1.585  -1.213  0.00  0.00    +0.149 A 
ATOM     26  N   UNL     1      -2.051   1.825  -1.287  0.00  0.00    -0.206 NA
ATOM     27  H   UNL     1      -1.127   2.558  -4.147  0.00  0.00    +0.191 HD
ATOM     28  C   UNL     1      -2.356   2.250  -2.495  0.00  0.00    +0.184 A 
ATOM     29  N   UNL     1      -1.218   2.286  -3.221  0.00  0.00    -0.254 N 
ATOM     30  N   UNL     1      -0.191   1.857  -2.365  0.00  0.00    -0.157 NA
ENDBRANCH  23  28
ENDBRANCH  22  23
ENDBRANCH  21  22
ENDBRANCH  18  21
ENDBRANCH  17  18
ENDBRANCH   1  17
TORSDOF 7
