REMARK  Name = ZINC14018159
REMARK  5 active torsions:
REMARK  status: ('A' for Active; 'I' for Inactive)
REMARK    1  A    between atoms: C_4  and  C_7
REMARK    2  A    between atoms: N_9  and  C_10
REMARK    3  A    between atoms: C_10  and  N_12
REMARK    4  A    between atoms: N_12  and  N_13
REMARK    5  A    between atoms: C_14  and  C_16
REMARK                            x       y       z     vdW  Elec       q    Type
REMARK                         _______ _______ _______ _____ _____    ______ ____
ROOT
ATOM      1  N   UNL     1       1.142   2.033   0.002  0.00  0.00    -0.245 N 
ATOM      2  H   UNL     1       1.129   3.003   0.007  0.00  0.00    +0.172 HD
ENDROOT
BRANCH   1   3
ATOM      3  N   UNL     1       2.364   1.349  -0.013  0.00  0.00    -0.231 N 
ATOM      4  C   UNL     1       3.522   2.039  -0.021  0.00  0.00    +0.261 C 
ATOM      5  O   UNL     1       3.506   3.255  -0.014  0.00  0.00    -0.269 OA
ATOM      6  H   UNL     1       2.377   0.379  -0.019  0.00  0.00    +0.173 HD
BRANCH   4   7
ATOM      7  C   UNL     1       4.812   1.318  -0.037  0.00  0.00    +0.052 A 
ATOM      8  C   UNL     1       4.835  -0.078  -0.039  0.00  0.00    +0.014 A 
ATOM      9  C   UNL     1       6.042  -0.746  -0.059  0.00  0.00    +0.001 A 
ATOM     10  C   UNL     1       7.229  -0.035  -0.066  0.00  0.00    +0.001 A 
ATOM     11  C   UNL     1       7.215   1.348  -0.059  0.00  0.00    +0.016 A 
ATOM     12  C   UNL     1       6.014   2.029  -0.044  0.00  0.00    +0.030 A 
ATOM     13 BR   UNL     1       5.996   3.920  -0.034  0.00  0.00    -0.050 Br
ENDBRANCH   4   7
ENDBRANCH   1   3
BRANCH   1  14
ATOM     14  C   UNL     1      -0.016   1.344   0.009  0.00  0.00    +0.153 C 
ATOM     15  S   UNL     1      -1.510   2.179   0.021  0.00  0.00    -0.017 S 
BRANCH  14  18
ATOM     16  C   UNL     1      -1.156  -0.694   0.009  0.00  0.00    +0.250 C 
ATOM     17  O   UNL     1      -2.216  -0.101   0.023  0.00  0.00    -0.270 OA
ATOM     18  N   UNL     1       0.002  -0.004   0.002  0.00  0.00    -0.263 N 
ATOM     19  H   UNL     1       0.849  -0.478  -0.009  0.00  0.00    +0.157 HD
BRANCH  16  23
ATOM     20  C   UNL     1      -1.098  -4.940  -0.014  0.00  0.00    +0.000 A 
ATOM     21  C   UNL     1      -2.308  -4.268   0.001  0.00  0.00    +0.001 A 
ATOM     22  C   UNL     1      -2.333  -2.889   0.009  0.00  0.00    +0.013 A 
ATOM     23  C   UNL     1      -1.136  -2.171   0.001  0.00  0.00    +0.037 A 
ATOM     24  C   UNL     1       0.081  -2.856  -0.020  0.00  0.00    +0.013 A 
ATOM     25  C   UNL     1       0.092  -4.235  -0.021  0.00  0.00    +0.001 A 
ENDBRANCH  16  23
ENDBRANCH  14  18
ENDBRANCH   1  14
TORSDOF 5
