REMARK  Name = ZINC45550746
REMARK  6 active torsions:
REMARK  status: ('A' for Active; 'I' for Inactive)
REMARK    1  A    between atoms: C_1  and  C_2
REMARK    2  A    between atoms: C_7  and  S_24
REMARK    3  A    between atoms: C_12  and  C_14
REMARK    4  A    between atoms: C_14  and  O_15
REMARK    5  A    between atoms: O_15  and  C_16
REMARK    6  A    between atoms: S_24  and  N_27
REMARK                            x       y       z     vdW  Elec       q    Type
REMARK                         _______ _______ _______ _____ _____    ______ ____
ROOT
ATOM      1  C   UNL     1      -0.019   1.526   0.010  0.00  0.00    +0.029 C 
ATOM      2  C   UNL     1       0.002  -0.004   0.002  0.00  0.00    +0.083 C 
ATOM      3  C   UNL     1      -1.430  -0.557   0.082  0.00  0.00    +0.059 C 
ATOM      4  C   UNL     1      -1.457  -1.361   1.363  0.00  0.00    -0.022 A 
ATOM      5  C   UNL     1      -2.472  -2.086   1.957  0.00  0.00    +0.034 A 
ATOM      6  C   UNL     1      -2.247  -2.747   3.150  0.00  0.00    +0.105 A 
ATOM      7  C   UNL     1      -1.003  -2.681   3.749  0.00  0.00    +0.030 A 
ATOM      8  C   UNL     1       0.013  -1.959   3.160  0.00  0.00    +0.026 A 
ATOM      9  C   UNL     1      -0.206  -1.288   1.955  0.00  0.00    +0.040 A 
ATOM     10  N   UNL     1       0.679  -0.510   1.199  0.00  0.00    -0.265 N 
ATOM     11  C   UNL     1       1.964  -0.262   1.523  0.00  0.00    +0.258 C 
ATOM     12  O   UNL     1       2.650   0.428   0.799  0.00  0.00    -0.272 OA
ENDROOT
BRANCH   6  13
ATOM     13  S   UNL     1      -3.543  -3.672   3.905  0.00  0.00    +0.056 S 
ATOM     14  O   UNL     1      -3.235  -3.746   5.290  0.00  0.00    -0.153 OA
ATOM     15  O   UNL     1      -4.764  -3.127   3.424  0.00  0.00    -0.153 OA
BRANCH  13  16
ATOM     16  N   UNL     1      -3.450  -5.216   3.316  0.00  0.00    -0.204 NA
ATOM     17  H   UNL     1      -2.761  -5.450   2.674  0.00  0.00    +0.144 HD
ATOM     18  H   UNL     1      -4.084  -5.888   3.613  0.00  0.00    +0.144 HD
ENDBRANCH  13  16
ENDBRANCH   6  13
BRANCH  11  19
ATOM     19  C   UNL     1       2.547  -0.841   2.786  0.00  0.00    +0.325 C 
BRANCH  19  20
ATOM     20  O   UNL     1       3.913  -0.439   2.908  0.00  0.00    -0.481 OA
BRANCH  20  21
ATOM     21  C   UNL     1       4.591  -0.879   4.000  0.00  0.00    +0.141 A 
ATOM     22  C   UNL     1       3.957  -1.687   4.933  0.00  0.00    +0.047 A 
ATOM     23  C   UNL     1       4.647  -2.134   6.043  0.00  0.00    +0.005 A 
ATOM     24  C   UNL     1       5.971  -1.777   6.226  0.00  0.00    +0.022 A 
ATOM     25  C   UNL     1       6.607  -0.971   5.298  0.00  0.00    +0.063 A 
ATOM     26  C   UNL     1       5.921  -0.526   4.182  0.00  0.00    +0.101 A 
ATOM     27 CL   UNL     1       6.721   0.478   3.013  0.00  0.00    -0.078 Cl
ATOM     28 CL   UNL     1       8.268  -0.525   5.531  0.00  0.00    -0.082 Cl
ENDBRANCH  20  21
ENDBRANCH  19  20
ENDBRANCH  11  19
TORSDOF 5
