REMARK  Name = ZINC26304509
REMARK  14 active torsions:
REMARK  status: ('A' for Active; 'I' for Inactive)
REMARK    1  A    between atoms: C_1  and  C_2
REMARK    2  A    between atoms: C_5  and  O_25
REMARK    3  A    between atoms: C_6  and  N_8
REMARK    4  A    between atoms: C_9  and  C_11
REMARK    5  A    between atoms: C_11  and  N_12
REMARK    6  A    between atoms: N_15  and  C_16
REMARK    7  A    between atoms: C_16  and  C_17
REMARK    8  A    between atoms: C_17  and  C_19
REMARK    9  A    between atoms: C_17  and  N_22
REMARK   10  A    between atoms: C_19  and  C_20
REMARK   11  A    between atoms: C_19  and  C_21
REMARK   12  A    between atoms: N_22  and  C_23
REMARK   13  A    between atoms: N_22  and  C_24
REMARK   14  A    between atoms: O_25  and  C_26
REMARK                            x       y       z     vdW  Elec       q    Type
REMARK                         _______ _______ _______ _____ _____    ______ ____
ROOT
ATOM      1  N   UNL     1       1.478  -2.057   6.120  0.00  0.00    -0.291 N 
ATOM      2  C   UNL     1       1.176  -2.457   7.371  0.00  0.00    +0.300 C 
ATOM      3  O   UNL     1       0.902  -3.622   7.587  0.00  0.00    -0.253 OA
ATOM      4  N   UNL     1       1.176  -1.566   8.383  0.00  0.00    -0.301 N 
ATOM      5  H   UNL     1       1.696  -1.128   5.948  0.00  0.00    +0.151 HD
ATOM      6  H   UNL     1       1.395  -0.637   8.210  0.00  0.00    +0.150 HD
ENDROOT
BRANCH   1   7
ATOM      7  C   UNL     1       1.477  -3.025   5.021  0.00  0.00    +0.202 C 
BRANCH   7   9
ATOM      8  N   UNL     1       1.909  -3.025   2.585  0.00  0.00    -0.281 N 
ATOM      9  C   UNL     1       1.846  -2.328   3.737  0.00  0.00    +0.235 C 
ATOM     10  O   UNL     1       2.086  -1.139   3.740  0.00  0.00    -0.274 OA
ATOM     11  H   UNL     1       1.650  -3.960   2.570  0.00  0.00    +0.155 HD
BRANCH   8  17
ATOM     12  C   UNL     1       4.486   0.549   0.403  0.00  0.00    +0.044 C 
ATOM     13  C   UNL     1       3.598  -0.666   0.323  0.00  0.00    -0.048 A 
ATOM     14  C   UNL     1       3.218  -1.163  -0.910  0.00  0.00    +0.007 A 
ATOM     15  C   UNL     1       2.404  -2.277  -0.990  0.00  0.00    +0.048 A 
ATOM     16  C   UNL     1       1.966  -2.900   0.168  0.00  0.00    +0.141 A 
ATOM     17  C   UNL     1       2.349  -2.400   1.411  0.00  0.00    +0.076 A 
ATOM     18  C   UNL     1       3.171  -1.285   1.482  0.00  0.00    +0.030 A 
BRANCH  16  19
ATOM     19  O   UNL     1       1.164  -3.995   0.092  0.00  0.00    -0.493 OA
ATOM     20  C   UNL     1       0.811  -4.451  -1.216  0.00  0.00    +0.277 C 
ENDBRANCH  16  19
ENDBRANCH   8  17
ENDBRANCH   7   9
ENDBRANCH   1   7
BRANCH   4  21
ATOM     21  C   UNL     1       0.848  -2.002   9.742  0.00  0.00    +0.091 C 
BRANCH  21  22
ATOM     22  C   UNL     1       0.712  -0.778  10.651  0.00  0.00    -0.049 C 
BRANCH  22  23
ATOM     23  N   UNL     1      -0.508  -0.039  10.299  0.00  0.00    +0.379 N 
ATOM     24  C   UNL     1      -0.443   0.369   8.889  0.00  0.00    -0.096 C 
ATOM     25  C   UNL     1      -1.679  -0.901  10.506  0.00  0.00    -0.096 C 
ATOM     26  H   UNL     1      -0.586   0.780  10.883  0.00  0.00    -0.082 HD
ENDBRANCH  22  23
BRANCH  22  27
ATOM     27  C   UNL     1       0.631  -1.232  12.110  0.00  0.00    -0.029 C 
ATOM     28  C   UNL     1       1.949  -1.897  12.511  0.00  0.00    +0.005 C 
ATOM     29  C   UNL     1       0.377  -0.020  13.008  0.00  0.00    +0.005 C 
ENDBRANCH  22  27
ENDBRANCH  21  22
ENDBRANCH   4  21
TORSDOF 8
