REMARK  Name = ZINC00501931
REMARK  3 active torsions:
REMARK  status: ('A' for Active; 'I' for Inactive)
REMARK    1  A    between atoms: C_1  and  C_2
REMARK    2  A    between atoms: C_5  and  N_8
REMARK    3  A    between atoms: N_18  and  N_19
REMARK                            x       y       z     vdW  Elec       q    Type
REMARK                         _______ _______ _______ _____ _____    ______ ____
ROOT
ATOM      1  N   UNL     1       1.874   1.703   4.060  0.00  0.00    -0.248 N 
ATOM      2  C   UNL     1       1.523   2.005   2.796  0.00  0.00    +0.268 A 
ATOM      3  O   UNL     1       2.365   2.055   1.916  0.00  0.00    -0.266 OA
ATOM      4  C   UNL     1       0.147   2.265   2.501  0.00  0.00    +0.076 A 
ATOM      5  C   UNL     1      -0.452   2.609   1.203  0.00  0.00    -0.023 A 
ATOM      6  C   UNL     1      -1.780   2.823   1.189  0.00  0.00    -0.004 A 
ATOM      7  S   UNL     1      -2.313   2.561   2.861  0.00  0.00    -0.073 S 
ATOM      8  C   UNL     1      -0.739   2.181   3.586  0.00  0.00    +0.118 A 
ATOM      9  N   UNL     1      -0.328   1.876   4.812  0.00  0.00    -0.207 NA
ATOM     10  C   UNL     1       0.944   1.641   5.058  0.00  0.00    +0.218 A 
ATOM     11  N   UNL     1       1.340   1.330   6.335  0.00  0.00    -0.253 N 
ATOM     12  C   UNL     1      -2.634   3.204   0.019  0.00  0.00    +0.043 C 
ATOM     13  C   UNL     1      -2.325   2.273  -1.161  0.00  0.00    +0.005 C 
ATOM     14  C   UNL     1      -1.194   2.893  -1.976  0.00  0.00    +0.001 C 
ATOM     15  C   UNL     1      -0.244   3.657  -1.055  0.00  0.00    +0.005 C 
ATOM     16  C   UNL     1       0.406   2.708  -0.055  0.00  0.00    +0.037 C 
ATOM     17  H   UNL     1       2.283   1.230   6.539  0.00  0.00    +0.169 HD
ENDROOT
BRANCH   1  22
ATOM     18  C   UNL     1       7.324   0.673   5.263  0.00  0.00    +0.044 C 
ATOM     19  C   UNL     1       5.876   0.946   4.944  0.00  0.00    -0.050 A 
ATOM     20  C   UNL     1       5.043  -0.093   4.572  0.00  0.00    +0.005 A 
ATOM     21  C   UNL     1       3.717   0.155   4.279  0.00  0.00    +0.026 A 
ATOM     22  C   UNL     1       3.220   1.449   4.358  0.00  0.00    +0.053 A 
ATOM     23  C   UNL     1       4.060   2.491   4.727  0.00  0.00    +0.026 A 
ATOM     24  C   UNL     1       5.384   2.236   5.024  0.00  0.00    +0.005 A 
ENDBRANCH   1  22
BRANCH  11  25
ATOM     25  N   UNL     1       0.407   1.163   7.318  0.00  0.00    -0.254 NA
ATOM     26  H   UNL     1      -0.267   0.458   7.061  0.00  0.00    +0.140 HD
ATOM     27  H   UNL     1       0.846   0.939   8.199  0.00  0.00    +0.140 HD
ENDBRANCH  11  25
TORSDOF 2
