REMARK  Name = ZINC38582507
REMARK  6 active torsions:
REMARK  status: ('A' for Active; 'I' for Inactive)
REMARK    1  A    between atoms: C_1  and  C_2
REMARK    2  A    between atoms: C_2  and  O_3
REMARK    3  A    between atoms: O_3  and  C_4
REMARK    4  A    between atoms: C_7  and  C_11
REMARK    5  A    between atoms: C_8  and  O_10
REMARK    6  A    between atoms: N_12  and  N_13
REMARK                            x       y       z     vdW  Elec       q    Type
REMARK                         _______ _______ _______ _____ _____    ______ ____
ROOT
ATOM      1  N   UNL     1       1.857  -7.921   2.931  0.00  0.00    -0.206 N 
ATOM      2  C   UNL     1       2.507  -8.450   4.027  0.00  0.00    +0.227 C 
ATOM      3  N   UNL     1       3.004  -7.618   4.912  0.00  0.00    -0.220 NA
ATOM      4  C   UNL     1       3.620  -8.186   6.108  0.00  0.00    +0.253 C 
ATOM      5  C   UNL     1       4.149  -9.556   5.708  0.00  0.00    +0.115 C 
ATOM      6  C   UNL     1       5.433  -9.599   6.161  0.00  0.00    +0.025 A 
ATOM      7  C   UNL     1       6.398 -10.635   6.188  0.00  0.00    +0.012 A 
ATOM      8  C   UNL     1       7.620 -10.339   6.707  0.00  0.00    +0.001 A 
ATOM      9  C   UNL     1       7.977  -9.085   7.210  0.00  0.00    +0.002 A 
ATOM     10  C   UNL     1       7.131  -8.021   7.241  0.00  0.00    +0.026 A 
ATOM     11  C   UNL     1       5.779  -8.250   6.705  0.00  0.00    +0.046 A 
ATOM     12  N   UNL     1       4.764  -7.445   6.620  0.00  0.00    -0.358 N 
ATOM     13  N   UNL     1       3.431 -10.377   4.936  0.00  0.00    -0.171 NA
ATOM     14  N   UNL     1       2.591  -9.798   4.131  0.00  0.00    -0.247 N 
ATOM     15  H   UNL     1       1.476  -8.511   2.262  0.00  0.00    +0.177 HD
ATOM     16  H   UNL     1       2.007 -10.348   3.585  0.00  0.00    +0.192 HD
ATOM     17  H   UNL     1       4.767  -6.505   6.858  0.00  0.00    +0.162 HD
ENDROOT
BRANCH   1  19
ATOM     18  C   UNL     1       1.136  -6.035   1.752  0.00  0.00    +0.142 C 
ATOM     19  N   UNL     1       1.748  -6.532   2.784  0.00  0.00    -0.187 NA
BRANCH  18  23
ATOM     20  C   UNL     1       0.802  -1.824   1.306  0.00  0.00    +0.124 A 
ATOM     21  C   UNL     1       0.257  -2.670   0.347  0.00  0.00    +0.046 A 
ATOM     22  C   UNL     1       0.363  -4.036   0.487  0.00  0.00    +0.016 A 
ATOM     23  C   UNL     1       1.021  -4.575   1.597  0.00  0.00    +0.036 A 
ATOM     24  C   UNL     1       1.570  -3.719   2.563  0.00  0.00    +0.129 A 
ATOM     25  C   UNL     1       1.461  -2.348   2.408  0.00  0.00    +0.091 A 
BRANCH  24  26
ATOM     26  O   UNL     1       2.211  -4.234   3.644  0.00  0.00    -0.506 OA
ATOM     27  H   UNL     1       3.159  -4.370   3.511  0.00  0.00    +0.292 HD
ENDBRANCH  24  26
BRANCH  20  28
ATOM     28  O   UNL     1       0.693  -0.477   1.160  0.00  0.00    -0.492 OA
BRANCH  28  30
ATOM     29  C   UNL     1      -0.019   1.526   0.010  0.00  0.00    +0.048 C 
ATOM     30  C   UNL     1       0.002  -0.004   0.002  0.00  0.00    +0.225 C 
ENDBRANCH  28  30
ENDBRANCH  20  28
ENDBRANCH  18  23
ENDBRANCH   1  19
TORSDOF 5
