REMARK  Name = ZINC54557198
REMARK  9 active torsions:
REMARK  status: ('A' for Active; 'I' for Inactive)
REMARK    1  A    between atoms: C_1  and  C_2
REMARK    2  A    between atoms: N_5  and  C_11
REMARK    3  A    between atoms: C_7  and  C_9
REMARK    4  A    between atoms: C_7  and  C_10
REMARK    5  A    between atoms: C_11  and  C_20
REMARK    6  A    between atoms: C_14  and  C_17
REMARK    7  A    between atoms: C_17  and  C_18
REMARK    8  A    between atoms: C_17  and  C_19
REMARK    9  A    between atoms: C_20  and  N_21
REMARK                            x       y       z     vdW  Elec       q    Type
REMARK                         _______ _______ _______ _____ _____    ______ ____
ROOT
ATOM      1  C   UNL     1      -2.754  -2.526   0.042  0.00  0.00    +0.007 C 
ATOM      2  C   UNL     1      -2.551  -4.038  -0.071  0.00  0.00    +0.021 C 
ATOM      3  C   UNL     1      -3.913  -4.736  -0.082  0.00  0.00    +0.005 C 
ATOM      4  C   UNL     1      -4.730  -4.241  -1.277  0.00  0.00    -0.008 C 
ATOM      5  C   UNL     1      -4.933  -2.729  -1.164  0.00  0.00    +0.005 C 
ATOM      6  C   UNL     1      -3.571  -2.031  -1.153  0.00  0.00    +0.021 C 
ENDROOT
BRANCH   1  10
ATOM      7  C   UNL     1       1.464  -1.766  -2.378  0.00  0.00    +0.039 C 
ATOM      8  C   UNL     1       0.693  -1.506  -1.082  0.00  0.00    +0.130 C 
ATOM      9  C   UNL     1      -0.682  -2.174  -1.162  0.00  0.00    +0.116 C 
ATOM     10  N   UNL     1      -1.447  -1.856   0.053  0.00  0.00    -0.293 NA
ATOM     11  C   UNL     1      -1.601  -0.402   0.205  0.00  0.00    +0.119 C 
ATOM     12  C   UNL     1      -0.217   0.249   0.271  0.00  0.00    +0.077 C 
ATOM     13  O   UNL     1       0.524  -0.097  -0.902  0.00  0.00    -0.368 OA
ATOM     14  C   UNL     1      -0.371   1.769   0.348  0.00  0.00    +0.042 C 
ATOM     15  C   UNL     1       0.525  -0.255   1.510  0.00  0.00    +0.042 C 
ENDBRANCH   1  10
BRANCH   4  16
ATOM     16  C   UNL     1      -6.091  -4.939  -1.288  0.00  0.00    -0.014 C 
ATOM     17  C   UNL     1      -6.909  -4.444  -2.482  0.00  0.00    +0.007 C 
ATOM     18  C   UNL     1      -5.888  -6.451  -1.401  0.00  0.00    +0.007 C 
ENDBRANCH   4  16
BRANCH   1  19
ATOM     19  C   UNL     1      -3.501  -2.207   1.339  0.00  0.00    -0.064 C 
BRANCH  19  20
ATOM     20  N   UNL     1      -2.661  -2.566   2.489  0.00  0.00    +0.379 N 
ATOM     21  H   UNL     1      -2.400  -3.538   2.424  0.00  0.00    -0.090 HD
ATOM     22  H   UNL     1      -1.830  -1.994   2.490  0.00  0.00    -0.090 HD
ATOM     23  H   UNL     1      -3.176  -2.412   3.343  0.00  0.00    -0.090 HD
ENDBRANCH  19  20
ENDBRANCH   1  19
TORSDOF 4
