REMARK  Name = ZINC63270432
REMARK  7 active torsions:
REMARK  status: ('A' for Active; 'I' for Inactive)
REMARK    1  A    between atoms: N_9  and  C_12
REMARK    2  A    between atoms: C_12  and  C_13
REMARK    3  A    between atoms: N_15  and  C_16
REMARK    4  A    between atoms: C_16  and  C_17
REMARK    5  A    between atoms: N_19  and  C_20
REMARK    6  A    between atoms: C_20  and  C_21
REMARK    7  A    between atoms: C_21  and  C_22
REMARK                            x       y       z     vdW  Elec       q    Type
REMARK                         _______ _______ _______ _____ _____    ______ ____
ROOT
ATOM      1  C   UNL     1       2.930  -4.521  -1.410  0.00  0.00    +0.231 C 
ATOM      2  O   UNL     1       3.067  -3.626  -2.216  0.00  0.00    -0.274 OA
ATOM      3  N   UNL     1       3.077  -5.804  -1.796  0.00  0.00    -0.305 N 
ATOM      4  H   UNL     1       2.967  -6.521  -1.152  0.00  0.00    +0.149 HD
ENDROOT
BRANCH   1   5
ATOM      5  C   UNL     1       2.594  -4.200   0.023  0.00  0.00    +0.205 C 
BRANCH   5  14
ATOM      6  C   UNL     1      -0.017   1.375   0.010  0.00  0.00    +0.001 A 
ATOM      7  C   UNL     1       1.168   2.095   0.002  0.00  0.00    +0.002 A 
ATOM      8  C   UNL     1       2.386   1.443  -0.018  0.00  0.00    +0.024 A 
ATOM      9  C   UNL     1       2.422   0.059  -0.028  0.00  0.00    +0.040 A 
ATOM     10  C   UNL     1       1.223  -0.674  -0.012  0.00  0.00    +0.058 A 
ATOM     11  C   UNL     1       0.002  -0.004   0.002  0.00  0.00    +0.015 A 
ATOM     12  C   UNL     1       1.296  -2.146   0.004  0.00  0.00    +0.250 C 
ATOM     13  O   UNL     1       0.290  -2.812  -0.146  0.00  0.00    -0.270 OA
ATOM     14  N   UNL     1       2.489  -2.748   0.187  0.00  0.00    -0.273 N 
ATOM     15  C   UNL     1       3.679  -1.977   0.545  0.00  0.00    +0.214 C 
ATOM     16  N   UNL     1       3.623  -0.642  -0.062  0.00  0.00    -0.328 N 
ATOM     17  H   UNL     1       4.408  -0.255  -0.480  0.00  0.00    +0.148 HD
ENDBRANCH   5  14
ENDBRANCH   1   5
BRANCH   3  18
ATOM     18  C   UNL     1       3.404  -6.117  -3.190  0.00  0.00    +0.200 C 
BRANCH  18  19
ATOM     19  C   UNL     1       3.512  -7.610  -3.358  0.00  0.00    +0.230 C 
ATOM     20  O   UNL     1       3.334  -8.342  -2.407  0.00  0.00    -0.274 OA
ATOM     21  N   UNL     1       3.807  -8.133  -4.565  0.00  0.00    -0.314 N 
ATOM     22  H   UNL     1       3.949  -7.548  -5.325  0.00  0.00    +0.149 HD
BRANCH  21  23
ATOM     23  C   UNL     1       3.913  -9.585  -4.728  0.00  0.00    +0.110 C 
BRANCH  23  24
ATOM     24  C   UNL     1       4.253  -9.911  -6.183  0.00  0.00    +0.073 C 
BRANCH  24  25
ATOM     25  C   UNL     1       4.362 -11.405  -6.351  0.00  0.00    +0.035 A 
ATOM     26  H   UNL     1       3.394 -14.332  -6.831  0.00  0.00    +0.166 HD
ATOM     27  C   UNL     1       3.341 -12.252  -6.584  0.00  0.00    +0.105 A 
ATOM     28  N   UNL     1       3.879 -13.507  -6.669  0.00  0.00    -0.352 N 
ATOM     29  C   UNL     1       5.211 -13.384  -6.485  0.00  0.00    +0.171 A 
ATOM     30  N   UNL     1       5.494 -12.124  -6.301  0.00  0.00    -0.350 N 
ATOM     31  H   UNL     1       6.381 -11.763  -6.149  0.00  0.00    +0.166 HD
ENDBRANCH  24  25
ENDBRANCH  23  24
ENDBRANCH  21  23
ENDBRANCH  18  19
ENDBRANCH   3  18
TORSDOF 7
