REMARK  Name = ZINC42625975
REMARK  12 active torsions:
REMARK  status: ('A' for Active; 'I' for Inactive)
REMARK    1  A    between atoms: C_1  and  N_2
REMARK    2  A    between atoms: N_2  and  C_3
REMARK    3  A    between atoms: N_2  and  C_4
REMARK    4  A    between atoms: C_4  and  C_6
REMARK    5  A    between atoms: C_4  and  C_22
REMARK    6  A    between atoms: C_6  and  N_7
REMARK    7  A    between atoms: N_7  and  C_8
REMARK    8  A    between atoms: C_11  and  S_18
REMARK    9  A    between atoms: C_13  and  C_14
REMARK   10  A    between atoms: C_14  and  O_16
REMARK   11  A    between atoms: O_16  and  C_17
REMARK   12  A    between atoms: S_18  and  N_21
REMARK                            x       y       z     vdW  Elec       q    Type
REMARK                         _______ _______ _______ _____ _____    ______ ____
ROOT
ATOM      1  C   UNL     1       0.481  -3.989   0.106  0.00  0.00    +0.041 A 
ATOM      2  C   UNL     1      -0.008  -4.745  -0.953  0.00  0.00    +0.025 A 
ATOM      3  C   UNL     1       0.330  -6.078  -1.065  0.00  0.00    +0.030 A 
ATOM      4  C   UNL     1       1.157  -6.674  -0.126  0.00  0.00    +0.106 A 
ATOM      5  C   UNL     1       1.652  -5.942   0.931  0.00  0.00    +0.045 A 
ATOM      6  C   UNL     1       1.324  -4.589   1.056  0.00  0.00    +0.082 A 
ENDROOT
BRANCH   4   7
ATOM      7  S   UNL     1       1.577  -8.378  -0.284  0.00  0.00    +0.056 S 
ATOM      8  O   UNL     1       1.920  -8.834   1.018  0.00  0.00    -0.153 OA
ATOM      9  O   UNL     1       0.547  -8.980  -1.056  0.00  0.00    -0.153 OA
BRANCH   7  10
ATOM     10  N   UNL     1       2.959  -8.459  -1.193  0.00  0.00    -0.204 NA
ATOM     11  H   UNL     1       3.589  -9.184  -1.054  0.00  0.00    +0.144 HD
ATOM     12  H   UNL     1       3.139  -7.782  -1.864  0.00  0.00    +0.144 HD
ENDBRANCH   7  10
ENDBRANCH   4   7
BRANCH   1  13
ATOM     13  N   UNL     1       0.143  -2.648   0.221  0.00  0.00    -0.344 N 
ATOM     14  H   UNL     1       0.567  -2.097   0.898  0.00  0.00    +0.146 HD
BRANCH  13  15
ATOM     15  C   UNL     1      -0.854  -2.064  -0.680  0.00  0.00    +0.091 C 
BRANCH  15  16
ATOM     16  C   UNL     1      -1.137  -0.620  -0.261  0.00  0.00    -0.014 C 
BRANCH  16  17
ATOM     17  C   UNL     1      -1.762  -0.608   1.110  0.00  0.00    -0.022 A 
ATOM     18  C   UNL     1      -1.185  -0.353   2.309  0.00  0.00    +0.009 A 
ATOM     19  C   UNL     1      -1.963  -0.398   3.451  0.00  0.00    +0.008 A 
ATOM     20  C   UNL     1      -3.280  -0.695   3.337  0.00  0.00    +0.045 A 
ATOM     21  S   UNL     1      -3.458  -0.917   1.575  0.00  0.00    -0.103 S 
ENDBRANCH  16  17
BRANCH  16  23
ATOM     22  C   UNL     1      -2.297   1.397  -0.844  0.00  0.00    -0.096 C 
ATOM     23  N   UNL     1      -2.057  -0.002  -1.225  0.00  0.00    +0.382 N 
ATOM     24  C   UNL     1      -1.464  -0.049  -2.568  0.00  0.00    -0.096 C 
ATOM     25  H   UNL     1      -2.931  -0.505  -1.225  0.00  0.00    -0.082 HD
ENDBRANCH  16  23
ENDBRANCH  15  16
ENDBRANCH  13  15
ENDBRANCH   1  13
BRANCH   6  26
ATOM     26  C   UNL     1       1.854  -3.798   2.180  0.00  0.00    +0.341 C 
ATOM     27  O   UNL     1       1.491  -2.650   2.340  0.00  0.00    -0.245 OA
BRANCH  26  28
ATOM     28  O   UNL     1       2.741  -4.349   3.032  0.00  0.00    -0.464 OA
ATOM     29  C   UNL     1       3.213  -3.525   4.100  0.00  0.00    +0.280 C 
ENDBRANCH  26  28
ENDBRANCH   6  26
TORSDOF 9
