REMARK  Name = ZINC37581369
REMARK  7 active torsions:
REMARK  status: ('A' for Active; 'I' for Inactive)
REMARK    1  A    between atoms: C_1  and  O_2
REMARK    2  A    between atoms: O_2  and  C_3
REMARK    3  A    between atoms: C_6  and  S_13
REMARK    4  A    between atoms: C_8  and  C_9
REMARK    5  A    between atoms: C_10  and  C_11
REMARK    6  A    between atoms: C_11  and  N_12
REMARK    7  A    between atoms: S_13  and  N_16
REMARK                            x       y       z     vdW  Elec       q    Type
REMARK                         _______ _______ _______ _____ _____    ______ ____
ROOT
ATOM      1  C   UNL     1       0.606  -0.607  -1.055  0.00  0.00    +0.136 A 
ATOM      2  C   UNL     1       1.173   0.159  -2.061  0.00  0.00    +0.049 A 
ATOM      3  C   UNL     1       1.786  -0.456  -3.136  0.00  0.00    +0.032 A 
ATOM      4  C   UNL     1       1.839  -1.837  -3.216  0.00  0.00    +0.107 A 
ATOM      5  C   UNL     1       1.280  -2.612  -2.222  0.00  0.00    +0.049 A 
ATOM      6  C   UNL     1       0.662  -2.004  -1.129  0.00  0.00    +0.068 A 
ENDROOT
BRANCH   4   7
ATOM      7  S   UNL     1       2.624  -2.607  -4.593  0.00  0.00    +0.061 S 
ATOM      8  O   UNL     1       2.062  -3.907  -4.706  0.00  0.00    -0.153 OA
ATOM      9  O   UNL     1       2.589  -1.667  -5.659  0.00  0.00    -0.153 OA
BRANCH   7  10
ATOM     10  N   UNL     1       4.218  -2.813  -4.196  0.00  0.00    -0.175 NA
ATOM     11  C   UNL     1       5.182  -1.756  -4.504  0.00  0.00    +0.120 C 
ATOM     12  C   UNL     1       5.730  -1.168  -3.198  0.00  0.00    +0.086 C 
ATOM     13  S   UNL     1       6.469  -2.510  -2.221  0.00  0.00    -0.158 S 
ATOM     14  C   UNL     1       5.129  -3.735  -2.121  0.00  0.00    +0.086 C 
ATOM     15  C   UNL     1       4.645  -4.048  -3.536  0.00  0.00    +0.120 C 
ENDBRANCH   7  10
ENDBRANCH   4   7
BRANCH   1  17
ATOM     16  C   UNL     1      -0.017   1.425   0.010  0.00  0.00    +0.277 C 
ATOM     17  O   UNL     1       0.002  -0.004   0.002  0.00  0.00    -0.494 OA
ENDBRANCH   1  17
BRANCH   6  18
ATOM     18  C   UNL     1       0.084  -2.804  -0.092  0.00  0.00    -0.065 C 
ATOM     19  C   UNL     1      -0.389  -3.459   0.759  0.00  0.00    -0.116 C 
BRANCH  19  20
ATOM     20  C   UNL     1      -0.983  -4.281   1.826  0.00  0.00    +0.005 C 
BRANCH  20  21
ATOM     21  N   UNL     1      -0.791  -5.704   1.512  0.00  0.00    +0.385 N 
ATOM     22  H   UNL     1      -1.239  -5.918   0.634  0.00  0.00    -0.089 HD
ATOM     23  H   UNL     1       0.196  -5.903   1.444  0.00  0.00    -0.089 HD
ATOM     24  H   UNL     1      -1.198  -6.267   2.244  0.00  0.00    -0.089 HD
ENDBRANCH  20  21
ENDBRANCH  19  20
ENDBRANCH   6  18
TORSDOF 6
