REMARK  Name = ZINC54131780
REMARK  10 active torsions:
REMARK  status: ('A' for Active; 'I' for Inactive)
REMARK    1  A    between atoms: C_1  and  C_2
REMARK    2  A    between atoms: C_2  and  N_3
REMARK    3  A    between atoms: N_3  and  C_4
REMARK    4  A    between atoms: N_3  and  C_5
REMARK    5  A    between atoms: C_5  and  C_6
REMARK    6  A    between atoms: C_6  and  N_7
REMARK    7  A    between atoms: N_7  and  S_8
REMARK    8  A    between atoms: S_8  and  C_11
REMARK    9  A    between atoms: C_13  and  N_18
REMARK   10  A    between atoms: C_16  and  N_17
REMARK                            x       y       z     vdW  Elec       q    Type
REMARK                         _______ _______ _______ _____ _____    ______ ____
ROOT
ATOM      1  S   UNL     1       2.209  -4.815   3.628  0.00  0.00    +0.060 S 
ATOM      2  O   UNL     1       2.066  -6.217   3.451  0.00  0.00    -0.153 OA
ATOM      3  O   UNL     1       3.451  -4.147   3.449  0.00  0.00    -0.153 OA
ENDROOT
BRANCH   1   4
ATOM      4  C   UNL     1       1.678  -4.458   5.269  0.00  0.00    +0.128 A 
ATOM      5  C   UNL     1       2.472  -3.693   6.102  0.00  0.00    +0.063 A 
ATOM      6  C   UNL     1       2.055  -3.412   7.390  0.00  0.00    +0.128 A 
ATOM      7  C   UNL     1       0.844  -3.895   7.850  0.00  0.00    +0.034 A 
ATOM      8  C   UNL     1       0.045  -4.660   7.023  0.00  0.00    +0.027 A 
ATOM      9  C   UNL     1       0.458  -4.940   5.726  0.00  0.00    +0.051 A 
BRANCH   9  10
ATOM     10  N   UNL     1      -0.350  -5.708   4.885  0.00  0.00    -0.356 N 
ATOM     11  H   UNL     1      -0.103  -5.830   3.954  0.00  0.00    +0.142 HD
ATOM     12  H   UNL     1      -1.157  -6.120   5.231  0.00  0.00    +0.142 HD
ENDBRANCH   9  10
BRANCH   6  13
ATOM     13  N   UNL     1       2.909  -2.593   8.280  0.00  0.00    +0.056 N 
ATOM     14  O   UNL     1       3.968  -2.170   7.880  0.00  0.00    -0.126 OA
ATOM     15  O   UNL     1       2.546  -2.346   9.406  0.00  0.00    -0.126 OA
ENDBRANCH   6  13
ENDBRANCH   1   4
BRANCH   1  16
ATOM     16  N   UNL     1       1.132  -4.095   2.597  0.00  0.00    -0.192 NA
ATOM     17  H   UNL     1       0.579  -4.640   2.015  0.00  0.00    +0.148 HD
BRANCH  16  18
ATOM     18  C   UNL     1       1.014  -2.635   2.563  0.00  0.00    +0.087 C 
BRANCH  18  19
ATOM     19  C   UNL     1       0.261  -2.213   1.300  0.00  0.00    -0.062 C 
BRANCH  19  20
ATOM     20  N   UNL     1       0.142  -0.749   1.266  0.00  0.00    +0.379 N 
ATOM     21  C   UNL     1       1.479  -0.153   1.140  0.00  0.00    -0.096 C 
ATOM     22  H   UNL     1      -0.291  -0.427   2.119  0.00  0.00    -0.082 HD
BRANCH  20  24
ATOM     23  C   UNL     1      -0.909   1.161   0.152  0.00  0.00    -0.017 C 
ATOM     24  C   UNL     1      -0.682  -0.351   0.117  0.00  0.00    -0.083 C 
ENDBRANCH  20  24
ENDBRANCH  19  20
ENDBRANCH  18  19
ENDBRANCH  16  18
ENDBRANCH   1  16
TORSDOF 8
