REMARK  Name = ZINC49934997
REMARK  5 active torsions:
REMARK  status: ('A' for Active; 'I' for Inactive)
REMARK    1  A    between atoms: C_1  and  C_2
REMARK    2  A    between atoms: C_2  and  C_3
REMARK    3  A    between atoms: C_2  and  C_4
REMARK    4  A    between atoms: C_4  and  C_6
REMARK    5  A    between atoms: C_4  and  N_20
REMARK                            x       y       z     vdW  Elec       q    Type
REMARK                         _______ _______ _______ _____ _____    ______ ____
ROOT
ATOM      1  C   UNL     1      -2.166  -0.087  -1.181  0.00  0.00    +0.236 C 
ATOM      2  O   UNL     1      -3.095   0.680  -1.051  0.00  0.00    -0.274 OA
ATOM      3  N   UNL     1      -1.793  -0.492  -2.411  0.00  0.00    -0.297 N 
ATOM      4  C   UNL     1      -0.753  -1.516  -2.579  0.00  0.00    +0.127 C 
ATOM      5  C   UNL     1      -1.322  -2.658  -3.430  0.00  0.00    +0.125 C 
ATOM      6  N   UNL     1      -1.949  -2.083  -4.628  0.00  0.00    -0.314 N 
ATOM      7  C   UNL     1      -2.989  -1.059  -4.461  0.00  0.00    +0.125 C 
ATOM      8  C   UNL     1      -2.424   0.079  -3.610  0.00  0.00    +0.127 C 
ATOM      9  C   UNL     1      -1.565  -2.500  -5.897  0.00  0.00    +0.099 A 
ATOM     10  C   UNL     1      -0.483  -3.363  -6.041  0.00  0.00    +0.042 A 
ATOM     11  C   UNL     1      -0.111  -3.770  -7.310  0.00  0.00    +0.005 A 
ATOM     12  C   UNL     1      -0.837  -3.299  -8.396  0.00  0.00    +0.018 A 
ATOM     13  C   UNL     1      -1.899  -2.445  -8.180  0.00  0.00    +0.084 A 
ATOM     14  N   UNL     1      -2.235  -2.077  -6.958  0.00  0.00    -0.350 N 
ATOM     15  H   UNL     1      -2.988  -1.479  -6.834  0.00  0.00    +0.166 HD
ENDROOT
BRANCH   1  16
ATOM     16  C   UNL     1      -1.427  -0.590   0.033  0.00  0.00    +0.163 C 
BRANCH  16  17
ATOM     17  N   UNL     1      -2.262  -0.405   1.223  0.00  0.00    -0.288 N 
ATOM     18  C   UNL     1      -2.077  -1.189   2.304  0.00  0.00    +0.298 C 
ATOM     19  O   UNL     1      -1.219  -2.050   2.291  0.00  0.00    -0.253 OA
ATOM     20  N   UNL     1      -2.845  -1.019   3.398  0.00  0.00    -0.313 N 
ATOM     21  H   UNL     1      -2.946   0.282   1.233  0.00  0.00    +0.151 HD
ATOM     22  H   UNL     1      -3.530  -0.332   3.409  0.00  0.00    +0.146 HD
ATOM     23  H   UNL     1      -2.712  -1.583   4.176  0.00  0.00    +0.146 HD
ENDBRANCH  16  17
BRANCH  16  25
ATOM     24  C   UNL     1      -0.444   1.655   0.519  0.00  0.00    +0.009 C 
ATOM     25  C   UNL     1      -0.124   0.194   0.197  0.00  0.00    +0.012 C 
ATOM     26  C   UNL     1       0.695  -0.412   1.339  0.00  0.00    +0.009 C 
ENDBRANCH  16  25
ENDBRANCH   1  16
TORSDOF 3
