REMARK  Name = ZINC40347556
REMARK  8 active torsions:
REMARK  status: ('A' for Active; 'I' for Inactive)
REMARK    1  A    between atoms: C_1  and  C_2
REMARK    2  A    between atoms: C_2  and  C_3
REMARK    3  A    between atoms: C_6  and  N_9
REMARK    4  A    between atoms: N_9  and  C_10
REMARK    5  A    between atoms: N_9  and  S_11
REMARK    6  A    between atoms: S_11  and  C_14
REMARK    7  A    between atoms: C_17  and  C_21
REMARK    8  A    between atoms: C_19  and  N_20
REMARK                            x       y       z     vdW  Elec       q    Type
REMARK                         _______ _______ _______ _____ _____    ______ ____
ROOT
ATOM      1  S   UNL     1      -5.481  -3.611  -2.255  0.00  0.00    +0.063 S 
ATOM      2  O   UNL     1      -6.874  -3.420  -2.462  0.00  0.00    -0.153 OA
ATOM      3  O   UNL     1      -4.514  -3.315  -3.253  0.00  0.00    -0.153 OA
ENDROOT
BRANCH   1   4
ATOM      4  C   UNL     1      -5.263  -5.307  -1.830  0.00  0.00    +0.126 A 
ATOM      5  C   UNL     1      -6.358  -6.145  -1.745  0.00  0.00    +0.030 A 
ATOM      6  C   UNL     1      -6.188  -7.476  -1.411  0.00  0.00    +0.005 A 
ATOM      7  C   UNL     1      -4.922  -7.973  -1.161  0.00  0.00    -0.049 A 
ATOM      8  C   UNL     1      -3.823  -7.141  -1.245  0.00  0.00    +0.028 A 
ATOM      9  C   UNL     1      -3.990  -5.804  -1.585  0.00  0.00    +0.051 A 
ATOM     10  C   UNL     1      -4.741  -9.424  -0.797  0.00  0.00    +0.044 C 
BRANCH   9  11
ATOM     11  N   UNL     1      -2.880  -4.961  -1.676  0.00  0.00    -0.356 N 
ATOM     12  H   UNL     1      -2.982  -4.060  -2.020  0.00  0.00    +0.142 HD
ATOM     13  H   UNL     1      -2.007  -5.277  -1.394  0.00  0.00    +0.142 HD
ENDBRANCH   9  11
ENDBRANCH   1   4
BRANCH   1  14
ATOM     14  N   UNL     1      -5.074  -2.716  -0.922  0.00  0.00    -0.177 NA
ATOM     15  C   UNL     1      -6.055  -2.503   0.144  0.00  0.00    +0.132 C 
BRANCH  14  19
ATOM     16  C   UNL     1      -1.745  -0.576   0.671  0.00  0.00    -0.011 C 
ATOM     17  C   UNL     1      -2.442  -0.012  -0.569  0.00  0.00    +0.005 C 
ATOM     18  C   UNL     1      -3.843  -0.616  -0.686  0.00  0.00    +0.021 C 
ATOM     19  C   UNL     1      -3.733  -2.137  -0.810  0.00  0.00    +0.080 C 
ATOM     20  C   UNL     1      -3.036  -2.701   0.429  0.00  0.00    +0.021 C 
ATOM     21  C   UNL     1      -1.635  -2.097   0.547  0.00  0.00    +0.005 C 
BRANCH  16  23
ATOM     22  C   UNL     1      -0.458   1.534   1.037  0.00  0.00    +0.004 C 
ATOM     23  C   UNL     1      -0.344   0.029   0.788  0.00  0.00    -0.000 C 
ENDBRANCH  16  23
ENDBRANCH  14  19
ENDBRANCH   1  14
TORSDOF 5
