REMARK  Name = ZINC42862827
REMARK  2 active torsions:
REMARK  status: ('A' for Active; 'I' for Inactive)
REMARK    1  A    between atoms: C_4  and  N_7
REMARK    2  A    between atoms: N_10  and  C_11
REMARK                            x       y       z     vdW  Elec       q    Type
REMARK                         _______ _______ _______ _____ _____    ______ ____
ROOT
ATOM      1  N   UNL     1       2.886  -0.467   2.418  0.00  0.00    -0.297 N 
ATOM      2  C   UNL     1       3.471  -1.681   2.404  0.00  0.00    +0.300 C 
ATOM      3  O   UNL     1       3.411  -2.373   1.406  0.00  0.00    -0.253 OA
ATOM      4  N   UNL     1       4.123  -2.127   3.495  0.00  0.00    -0.297 N 
ATOM      5  H   UNL     1       2.934   0.086   3.213  0.00  0.00    +0.151 HD
ATOM      6  H   UNL     1       4.171  -1.575   4.291  0.00  0.00    +0.151 HD
ENDROOT
BRANCH   4   7
ATOM      7  C   UNL     1       4.759  -3.447   3.480  0.00  0.00    +0.075 C 
ATOM      8  C   UNL     1       3.724  -4.515   3.840  0.00  0.00    +0.027 C 
ATOM      9  C   UNL     1       4.388  -5.894   3.820  0.00  0.00    +0.067 C 
ATOM     10  C   UNL     1       5.531  -5.923   4.836  0.00  0.00    +0.170 C 
ATOM     11  C   UNL     1       6.565  -4.852   4.482  0.00  0.00    +0.067 C 
ATOM     12  C   UNL     1       5.899  -3.475   4.500  0.00  0.00    +0.027 C 
ATOM     13  O   UNL     1       5.010  -5.667   6.150  0.00  0.00    -0.346 OA
ATOM     14  C   UNL     1       4.799  -6.979   6.726  0.00  0.00    +0.191 C 
ATOM     15  C   UNL     1       5.998  -7.772   6.148  0.00  0.00    +0.191 C 
ATOM     16  O   UNL     1       6.152  -7.215   4.827  0.00  0.00    -0.346 OA
ENDBRANCH   4   7
BRANCH   1  20
ATOM     17  C   UNL     1      -0.019   1.526   0.010  0.00  0.00    +0.000 C 
ATOM     18  C   UNL     1       1.417   2.055  -0.000  0.00  0.00    +0.002 C 
ATOM     19  C   UNL     1       2.157   1.548   1.239  0.00  0.00    +0.022 C 
ATOM     20  C   UNL     1       2.178   0.019   1.231  0.00  0.00    +0.074 C 
ATOM     21  C   UNL     1       0.742  -0.511   1.242  0.00  0.00    +0.022 C 
ATOM     22  C   UNL     1       0.002  -0.004   0.002  0.00  0.00    +0.002 C 
ENDBRANCH   1  20
TORSDOF 2
