REMARK  Name = ZINC09882695
REMARK  3 active torsions:
REMARK  status: ('A' for Active; 'I' for Inactive)
REMARK    1  A    between atoms: C_4  and  O_9
REMARK    2  A    between atoms: O_9  and  C_10
REMARK    3  A    between atoms: C_10  and  C_11
REMARK                            x       y       z     vdW  Elec       q    Type
REMARK                         _______ _______ _______ _____ _____    ______ ____
ROOT
ATOM      1  O   UNL     1      -0.704   1.559  -1.150  0.00  0.00    -0.477 OA
ENDROOT
BRANCH   1   5
ATOM      2  C   UNL     1       0.846   0.490  -4.828  0.00  0.00    +0.082 A 
ATOM      3  C   UNL     1      -0.093  -0.319  -4.211  0.00  0.00    +0.165 A 
ATOM      4  C   UNL     1      -0.613   0.037  -2.978  0.00  0.00    +0.203 A 
ATOM      5  C   UNL     1      -0.194   1.207  -2.360  0.00  0.00    +0.197 A 
ATOM      6  C   UNL     1       0.743   2.021  -2.983  0.00  0.00    +0.203 A 
ATOM      7  C   UNL     1       1.266   1.658  -4.213  0.00  0.00    +0.165 A 
ATOM      8  F   UNL     1       2.182   2.446  -4.817  0.00  0.00    -0.202 F 
ATOM      9  F   UNL     1       1.149   3.163  -2.386  0.00  0.00    -0.199 F 
ATOM     10  F   UNL     1      -1.528  -0.754  -2.376  0.00  0.00    -0.199 F 
ATOM     11  F   UNL     1      -0.501  -1.458  -4.812  0.00  0.00    -0.202 F 
ENDBRANCH   1   5
BRANCH   1  12
ATOM     12  C   UNL     1      -0.013   1.086   0.008  0.00  0.00    +0.325 C 
BRANCH  12  13
ATOM     13  C   UNL     1      -0.718   1.572   1.248  0.00  0.00    +0.261 C 
ATOM     14  O   UNL     1      -1.714   2.256   1.150  0.00  0.00    -0.271 OA
ATOM     15  N   UNL     1      -0.242   1.246   2.466  0.00  0.00    -0.222 N 
ATOM     16  C   UNL     1      -0.833   1.654   3.749  0.00  0.00    +0.137 C 
ATOM     17  C   UNL     1       0.095   1.017   4.802  0.00  0.00    +0.125 C 
ATOM     18  N   UNL     1       1.111   0.319   4.000  0.00  0.00    -0.297 N 
ATOM     19  C   UNL     1       0.842   0.495   2.700  0.00  0.00    +0.309 C 
ATOM     20  O   UNL     1       1.523   0.019   1.812  0.00  0.00    -0.252 OA
ATOM     21  H   UNL     1       1.855  -0.192   4.356  0.00  0.00    +0.150 HD
ENDBRANCH  12  13
ENDBRANCH   1  12
TORSDOF 3
