REMARK  Name = ZINC62235720
REMARK  7 active torsions:
REMARK  status: ('A' for Active; 'I' for Inactive)
REMARK    1  A    between atoms: C_1  and  C_2
REMARK    2  A    between atoms: C_2  and  O_3
REMARK    3  A    between atoms: O_3  and  C_4
REMARK    4  A    between atoms: C_7  and  N_10
REMARK    5  A    between atoms: C_11  and  C_17
REMARK    6  A    between atoms: C_12  and  C_15
REMARK    7  A    between atoms: C_15  and  N_16
REMARK                            x       y       z     vdW  Elec       q    Type
REMARK                         _______ _______ _______ _____ _____    ______ ____
ROOT
ATOM      1  N   UNL     1       1.102  -5.939  -1.835  0.00  0.00    -0.212 N 
ATOM      2  C   UNL     1       1.065  -6.631  -3.018  0.00  0.00    +0.102 A 
ATOM      3  C   UNL     1       1.210  -7.951  -2.696  0.00  0.00    +0.074 A 
ATOM      4  N   UNL     1       1.330  -8.060  -1.376  0.00  0.00    -0.135 NA
ATOM      5  N   UNL     1       1.277  -6.898  -0.826  0.00  0.00    -0.060 NA
ENDROOT
BRANCH   1   9
ATOM      6  C   UNL     1       0.777  -1.810  -1.336  0.00  0.00    +0.121 A 
ATOM      7  C   UNL     1       0.242  -2.668  -0.385  0.00  0.00    +0.048 A 
ATOM      8  C   UNL     1       0.349  -4.035  -0.550  0.00  0.00    +0.031 A 
ATOM      9  C   UNL     1       0.992  -4.551  -1.667  0.00  0.00    +0.068 A 
ATOM     10  C   UNL     1       1.527  -3.692  -2.618  0.00  0.00    +0.031 A 
ATOM     11  C   UNL     1       1.414  -2.326  -2.456  0.00  0.00    +0.048 A 
BRANCH   6  12
ATOM     12  O   UNL     1       0.671  -0.465  -1.174  0.00  0.00    -0.492 OA
BRANCH  12  14
ATOM     13  C   UNL     1      -0.019   1.526   0.010  0.00  0.00    +0.048 C 
ATOM     14  C   UNL     1       0.002  -0.004   0.002  0.00  0.00    +0.225 C 
ENDBRANCH  12  14
ENDBRANCH   6  12
ENDBRANCH   1   9
BRANCH   2  15
ATOM     15  C   UNL     1       0.902  -6.064  -4.368  0.00  0.00    +0.039 A 
ATOM     16  C   UNL     1       0.025  -5.103  -4.801  0.00  0.00    +0.018 A 
ATOM     17  C   UNL     1       0.056  -4.728  -6.126  0.00  0.00    +0.008 A 
ATOM     18  C   UNL     1       0.950  -5.319  -6.960  0.00  0.00    +0.046 A 
ATOM     19  S   UNL     1       1.798  -6.444  -5.864  0.00  0.00    -0.095 S 
ENDBRANCH   2  15
BRANCH   3  20
ATOM     20  C   UNL     1       1.231  -9.096  -3.676  0.00  0.00    -0.026 C 
BRANCH  20  21
ATOM     21  N   UNL     1       2.612  -9.345  -4.109  0.00  0.00    +0.382 N 
ATOM     22  H   UNL     1       3.179  -9.578  -3.308  0.00  0.00    -0.090 HD
ATOM     23  H   UNL     1       2.626 -10.111  -4.765  0.00  0.00    -0.090 HD
ATOM     24  H   UNL     1       2.980  -8.516  -4.552  0.00  0.00    -0.090 HD
ENDBRANCH  20  21
ENDBRANCH   3  20
TORSDOF 6
