REMARK  Name = ZINC41153955
REMARK  4 active torsions:
REMARK  status: ('A' for Active; 'I' for Inactive)
REMARK    1  A    between atoms: C_1  and  C_2
REMARK    2  A    between atoms: C_5  and  C_8
REMARK    3  A    between atoms: C_5  and  N_21
REMARK    4  A    between atoms: C_10  and  C_13
REMARK                            x       y       z     vdW  Elec       q    Type
REMARK                         _______ _______ _______ _____ _____    ______ ____
ROOT
ATOM      1  C   UNL     1       1.499  -4.041  -0.034  0.00  0.00    +0.161 A 
ATOM      2  N   UNL     1       2.597  -4.800  -0.043  0.00  0.00    -0.193 NA
ATOM      3  C   UNL     1       2.264  -6.072  -0.049  0.00  0.00    +0.264 A 
ATOM      4  O   UNL     1       0.921  -6.149  -0.043  0.00  0.00    -0.333 OA
ATOM      5  N   UNL     1       0.448  -4.811  -0.028  0.00  0.00    -0.062 NA
ENDROOT
BRANCH   3   6
ATOM      6  C   UNL     1       3.199  -7.214  -0.060  0.00  0.00    +0.110 A 
ATOM      7  C   UNL     1       4.580  -6.992  -0.060  0.00  0.00    +0.138 A 
ATOM      8  C   UNL     1       5.448  -8.068  -0.071  0.00  0.00    +0.039 A 
ATOM      9  C   UNL     1       4.955  -9.360  -0.082  0.00  0.00    +0.006 A 
ATOM     10  C   UNL     1       3.591  -9.588  -0.082  0.00  0.00    +0.039 A 
ATOM     11  C   UNL     1       2.709  -8.524  -0.065  0.00  0.00    +0.138 A 
ATOM     12  F   UNL     1       1.377  -8.749  -0.058  0.00  0.00    -0.205 F 
ATOM     13  F   UNL     1       5.063  -5.731  -0.050  0.00  0.00    -0.205 F 
ENDBRANCH   3   6
BRANCH   1  18
ATOM     14  C   UNL     1      -0.019   1.526   0.010  0.00  0.00    +0.007 C 
ATOM     15  C   UNL     1       0.002  -0.004   0.002  0.00  0.00    -0.014 C 
ATOM     16  C   UNL     1       0.718  -0.497  -1.257  0.00  0.00    +0.002 C 
ATOM     17  C   UNL     1       0.739  -2.027  -1.265  0.00  0.00    -0.005 C 
ATOM     18  C   UNL     1       1.479  -2.534  -0.026  0.00  0.00    -0.006 C 
ATOM     19  C   UNL     1       0.763  -2.041   1.233  0.00  0.00    -0.005 C 
ATOM     20  C   UNL     1       0.742  -0.511   1.242  0.00  0.00    +0.002 C 
BRANCH  18  21
ATOM     21  N   UNL     1       2.857  -2.026  -0.036  0.00  0.00    +0.387 N 
ATOM     22  H   UNL     1       2.843  -1.017  -0.031  0.00  0.00    -0.089 HD
ATOM     23  H   UNL     1       3.345  -2.360   0.781  0.00  0.00    -0.089 HD
ATOM     24  H   UNL     1       3.329  -2.351  -0.866  0.00  0.00    -0.089 HD
ENDBRANCH  18  21
ENDBRANCH   1  18
TORSDOF 3
