REMARK  Name = ZINC00208901
REMARK  6 active torsions:
REMARK  status: ('A' for Active; 'I' for Inactive)
REMARK    1  A    between atoms: C_1  and  C_2
REMARK    2  A    between atoms: C_2  and  C_4
REMARK    3  A    between atoms: C_2  and  O_7
REMARK    4  A    between atoms: O_7  and  C_8
REMARK    5  A    between atoms: C_8  and  C_10
REMARK    6  A    between atoms: C_13  and  N_16
REMARK                            x       y       z     vdW  Elec       q    Type
REMARK                         _______ _______ _______ _____ _____    ______ ____
ROOT
ATOM      1  C   UNL     1       1.930   4.288   0.744  0.00  0.00    +0.340 C 
ATOM      2  O   UNL     1       2.950   3.775   1.159  0.00  0.00    -0.245 OA
ENDROOT
BRANCH   1   3
ATOM      3  C   UNL     1       1.712   5.739   0.912  0.00  0.00    +0.059 A 
ATOM      4  C   UNL     1       0.544   6.333   0.431  0.00  0.00    +0.017 A 
ATOM      5  C   UNL     1       0.344   7.688   0.596  0.00  0.00    +0.033 A 
ATOM      6  C   UNL     1       1.304   8.460   1.226  0.00  0.00    +0.126 A 
ATOM      7  C   UNL     1       2.467   7.879   1.700  0.00  0.00    +0.033 A 
ATOM      8  C   UNL     1       2.677   6.524   1.547  0.00  0.00    +0.017 A 
BRANCH   6   9
ATOM      9  N   UNL     1       1.086   9.915   1.395  0.00  0.00    +0.056 N 
ATOM     10  O   UNL     1       1.929  10.597   1.949  0.00  0.00    -0.126 OA
ATOM     11  O   UNL     1       0.064  10.429   0.978  0.00  0.00    -0.126 OA
ENDBRANCH   6   9
ENDBRANCH   1   3
BRANCH   1  12
ATOM     12  O   UNL     1       0.998   3.533   0.131  0.00  0.00    -0.449 OA
BRANCH  12  14
ATOM     13  C   UNL     1       2.016   1.859  -1.315  0.00  0.00    +0.062 C 
ATOM     14  C   UNL     1       1.278   2.115   0.001  0.00  0.00    +0.259 C 
BRANCH  14  15
ATOM     15  C   UNL     1      -0.016   1.344   0.009  0.00  0.00    +0.251 C 
ATOM     16  O   UNL     1      -1.075   1.936   0.018  0.00  0.00    -0.272 OA
ATOM     17  N   UNL     1       0.002  -0.004   0.002  0.00  0.00    -0.326 N 
ATOM     18  H   UNL     1       0.849  -0.478  -0.009  0.00  0.00    +0.145 HD
ATOM     19  H   UNL     1      -0.831  -0.500   0.007  0.00  0.00    +0.145 HD
ENDBRANCH  14  15
ENDBRANCH  12  14
ENDBRANCH   1  12
TORSDOF 5
