REMARK  Name = ZINC62385264
REMARK  7 active torsions:
REMARK  status: ('A' for Active; 'I' for Inactive)
REMARK    1  A    between atoms: C_1  and  C_2
REMARK    2  A    between atoms: C_2  and  N_3
REMARK    3  A    between atoms: N_6  and  C_9
REMARK    4  A    between atoms: C_9  and  C_10
REMARK    5  A    between atoms: C_11  and  O_23
REMARK    6  A    between atoms: C_15  and  C_22
REMARK    7  A    between atoms: N_16  and  C_17
REMARK                            x       y       z     vdW  Elec       q    Type
REMARK                         _______ _______ _______ _____ _____    ______ ____
ROOT
ATOM      1  C   UNL     1      -5.074  -4.178   1.223  0.00  0.00    +0.079 A 
ATOM      2  C   UNL     1      -5.638  -4.711   2.333  0.00  0.00    +0.185 A 
ATOM      3  C   UNL     1      -5.455  -6.091   2.606  0.00  0.00    +0.223 A 
ATOM      4  O   UNL     1      -5.953  -6.601   3.600  0.00  0.00    -0.284 OA
ATOM      5  C   UNL     1      -4.688  -6.864   1.706  0.00  0.00    +0.075 A 
ATOM      6  C   UNL     1      -4.151  -6.271   0.616  0.00  0.00    +0.020 A 
ATOM      7  N   UNL     1      -4.346  -4.952   0.376  0.00  0.00    -0.341 N 
ATOM      8  C   UNL     1      -3.331  -7.090  -0.348  0.00  0.00    +0.063 C 
ENDROOT
BRANCH   7   9
ATOM      9  C   UNL     1      -3.754  -4.346  -0.819  0.00  0.00    +0.087 C 
ATOM     10  C   UNL     1      -4.365  -4.974  -2.088  0.00  0.00    +0.025 C 
ATOM     11  C   UNL     1      -3.179  -5.056  -3.081  0.00  0.00    +0.002 C 
ATOM     12  C   UNL     1      -1.991  -5.437  -2.163  0.00  0.00    +0.002 C 
ATOM     13  C   UNL     1      -2.244  -4.641  -0.866  0.00  0.00    +0.025 C 
ENDBRANCH   7   9
BRANCH   2  14
ATOM     14  O   UNL     1      -6.370  -3.933   3.175  0.00  0.00    -0.502 OA
ATOM     15  H   UNL     1      -6.729  -4.408   3.937  0.00  0.00    +0.292 HD
ENDBRANCH   2  14
BRANCH   1  16
ATOM     16  C   UNL     1      -5.260  -2.713   0.921  0.00  0.00    +0.141 C 
BRANCH  16  20
ATOM     17  N   UNL     1      -8.259  -1.590  -1.839  0.00  0.00    +0.381 N 
ATOM     18  C   UNL     1      -6.907  -1.049  -2.030  0.00  0.00    -0.063 C 
ATOM     19  C   UNL     1      -6.125  -1.155  -0.719  0.00  0.00    +0.066 C 
ATOM     20  N   UNL     1      -6.053  -2.564  -0.307  0.00  0.00    -0.300 NA
ATOM     21  C   UNL     1      -7.400  -3.126  -0.135  0.00  0.00    +0.066 C 
ATOM     22  C   UNL     1      -8.172  -3.005  -1.451  0.00  0.00    -0.063 C 
ATOM     23  H   UNL     1      -8.729  -1.071  -1.113  0.00  0.00    -0.082 HD
BRANCH  17  25
ATOM     24  C   UNL     1      -9.213   0.006  -3.431  0.00  0.00    -0.017 C 
ATOM     25  C   UNL     1      -9.015  -1.472  -3.093  0.00  0.00    -0.082 C 
ENDBRANCH  17  25
ENDBRANCH  16  20
ENDBRANCH   1  16
TORSDOF 5
