REMARK  Name = ZINC43022129
REMARK  5 active torsions:
REMARK  status: ('A' for Active; 'I' for Inactive)
REMARK    1  A    between atoms: C_4  and  C_7
REMARK    2  A    between atoms: N_10  and  C_12
REMARK    3  A    between atoms: C_12  and  C_14
REMARK    4  A    between atoms: C_12  and  C_16
REMARK    5  A    between atoms: C_14  and  N_15
REMARK                            x       y       z     vdW  Elec       q    Type
REMARK                         _______ _______ _______ _____ _____    ______ ____
ROOT
ATOM      1  C   UNL     1       5.762  -3.552  -0.084  0.00  0.00    +0.143 C 
ENDROOT
BRANCH   1   2
ATOM      2  C   UNL     1       6.609  -3.693  -1.322  0.00  0.00    -0.022 A 
ATOM      3  C   UNL     1       7.668  -2.830  -1.537  0.00  0.00    +0.006 A 
ATOM      4  C   UNL     1       8.445  -2.958  -2.673  0.00  0.00    +0.001 A 
ATOM      5  C   UNL     1       8.164  -3.950  -3.595  0.00  0.00    +0.015 A 
ATOM      6  C   UNL     1       7.105  -4.813  -3.380  0.00  0.00    +0.018 A 
ATOM      7  C   UNL     1       6.331  -4.687  -2.240  0.00  0.00    +0.021 A 
ATOM      8 BR   UNL     1       6.719  -6.169  -4.641  0.00  0.00    -0.050 Br
ENDBRANCH   1   2
BRANCH   1  12
ATOM      9  C   UNL     1       3.699  -0.690  -0.038  0.00  0.00    +0.205 A 
ATOM     10  N   UNL     1       4.921  -0.140  -0.042  0.00  0.00    -0.108 NA
ATOM     11  N   UNL     1       5.776  -1.106  -0.059  0.00  0.00    -0.045 NA
ATOM     12  N   UNL     1       5.141  -2.225  -0.065  0.00  0.00    -0.157 N 
ATOM     13  N   UNL     1       3.873  -1.996  -0.047  0.00  0.00    -0.130 NA
BRANCH   9  17
ATOM     14  C   UNL     1      -0.017   1.379   0.010  0.00  0.00    +0.000 A 
ATOM     15  C   UNL     1       1.169   2.092   0.002  0.00  0.00    +0.001 A 
ATOM     16  C   UNL     1       2.377   1.425  -0.013  0.00  0.00    +0.012 A 
ATOM     17  C   UNL     1       2.402   0.033  -0.021  0.00  0.00    +0.023 A 
ATOM     18  C   UNL     1       1.205  -0.680  -0.013  0.00  0.00    +0.012 A 
ATOM     19  C   UNL     1       0.002  -0.004   0.002  0.00  0.00    +0.001 A 
ENDBRANCH   9  17
ENDBRANCH   1  12
BRANCH   1  20
ATOM     20  C   UNL     1       6.641  -3.721   1.157  0.00  0.00    -0.053 C 
BRANCH  20  21
ATOM     21  N   UNL     1       5.798  -3.704   2.360  0.00  0.00    +0.380 N 
ATOM     22  H   UNL     1       6.378  -3.815   3.179  0.00  0.00    -0.090 HD
ATOM     23  H   UNL     1       5.307  -2.824   2.414  0.00  0.00    -0.090 HD
ATOM     24  H   UNL     1       5.131  -4.459   2.315  0.00  0.00    -0.090 HD
ENDBRANCH  20  21
ENDBRANCH   1  20
TORSDOF 5
