REMARK  Name = ZINC61918113
REMARK  5 active torsions:
REMARK  status: ('A' for Active; 'I' for Inactive)
REMARK    1  A    between atoms: C_1  and  C_2
REMARK    2  A    between atoms: C_2  and  C_3
REMARK    3  A    between atoms: C_3  and  N_4
REMARK    4  A    between atoms: N_4  and  C_5
REMARK    5  A    between atoms: C_11  and  N_13
REMARK                            x       y       z     vdW  Elec       q    Type
REMARK                         _______ _______ _______ _____ _____    ______ ____
ROOT
ATOM      1  C   UNL     1       1.483  -2.471   2.603  0.00  0.00    -0.054 C 
ATOM      2  C   UNL     1       2.951  -2.046   2.530  0.00  0.00    -0.009 C 
ATOM      3  C   UNL     1       3.543  -2.485   1.190  0.00  0.00    +0.063 C 
ATOM      4  C   UNL     1       3.441  -4.006   1.062  0.00  0.00    +0.171 C 
ATOM      5  C   UNL     1       1.975  -4.436   1.140  0.00  0.00    +0.082 C 
ATOM      6  C   UNL     1       1.385  -3.993   2.481  0.00  0.00    +0.048 C 
ATOM      7  O   UNL     1       3.994  -4.418  -0.199  0.00  0.00    -0.346 OA
ATOM      8  C   UNL     1       5.362  -4.786   0.100  0.00  0.00    +0.191 C 
ATOM      9  C   UNL     1       5.217  -5.423   1.505  0.00  0.00    +0.191 C 
ATOM     10  O   UNL     1       4.182  -4.629   2.119  0.00  0.00    -0.346 OA
ENDROOT
BRANCH   6  11
ATOM     11  N   UNL     1      -0.024  -4.400   2.554  0.00  0.00    -0.299 NA
ATOM     12  C   UNL     1      -0.154  -5.831   2.447  0.00  0.00    +0.087 C 
ATOM     13  C   UNL     1      -1.403  -6.252   1.638  0.00  0.00    +0.043 C 
ATOM     14  C   UNL     1      -2.614  -5.357   1.988  0.00  0.00    +0.161 C 
ATOM     15  O   UNL     1      -2.712  -5.070   3.354  0.00  0.00    -0.378 OA
ATOM     16  C   UNL     1      -2.095  -3.812   3.708  0.00  0.00    +0.175 C 
ATOM     17  C   UNL     1      -0.642  -3.944   3.817  0.00  0.00    +0.112 C 
ENDBRANCH   6  11
BRANCH   1  18
ATOM     18  N   UNL     1       0.736  -1.843   1.505  0.00  0.00    +0.382 N 
ATOM     19  H   UNL     1      -0.212  -2.186   1.504  0.00  0.00    -0.085 HD
ATOM     20  H   UNL     1       1.177  -2.068   0.626  0.00  0.00    -0.085 HD
BRANCH  18  21
ATOM     21  C   UNL     1       0.729  -0.385   1.689  0.00  0.00    -0.082 C 
BRANCH  21  23
ATOM     22  C   UNL     1      -0.056   1.787   0.737  0.00  0.00    +0.002 C 
ATOM     23  C   UNL     1      -0.049   0.269   0.546  0.00  0.00    -0.022 C 
ENDBRANCH  21  23
ENDBRANCH  18  21
ENDBRANCH   1  18
TORSDOF 4
