REMARK  Name = ZINC63854697
REMARK  5 active torsions:
REMARK  status: ('A' for Active; 'I' for Inactive)
REMARK    1  A    between atoms: C_1  and  C_2
REMARK    2  A    between atoms: C_4  and  S_20
REMARK    3  A    between atoms: C_6  and  C_7
REMARK    4  A    between atoms: C_7  and  N_9
REMARK    5  A    between atoms: S_20  and  N_23
REMARK                            x       y       z     vdW  Elec       q    Type
REMARK                         _______ _______ _______ _____ _____    ______ ____
ROOT
ATOM      1  C   UNL     1       0.044  -0.281   2.564  0.00  0.00    +0.277 C 
ATOM      2  O   UNL     1       0.038   0.915   2.806  0.00  0.00    -0.267 OA
ENDROOT
BRANCH   1   3
ATOM      3  N   UNL     1       0.051  -1.168   3.569  0.00  0.00    -0.142 NA
ATOM      4  C   UNL     1       0.157  -0.749   4.823  0.00  0.00    +0.199 A 
ATOM      5  N   UNL     1       0.148   0.552   5.224  0.00  0.00    -0.326 N 
ATOM      6  H   UNL     1       0.064   1.325   4.644  0.00  0.00    +0.169 HD
ATOM      7  C   UNL     1       0.281   0.582   6.609  0.00  0.00    +0.065 A 
ATOM      8  C   UNL     1       0.331   1.617   7.532  0.00  0.00    +0.028 A 
ATOM      9  C   UNL     1       0.471   1.333   8.876  0.00  0.00    +0.002 A 
ATOM     10  C   UNL     1       0.561   0.021   9.307  0.00  0.00    +0.002 A 
ATOM     11  C   UNL     1       0.512  -1.016   8.396  0.00  0.00    +0.028 A 
ATOM     12  C   UNL     1       0.371  -0.742   7.043  0.00  0.00    +0.065 A 
ATOM     13  N   UNL     1       0.286  -1.552   5.915  0.00  0.00    -0.326 N 
ATOM     14  H   UNL     1       0.317  -2.521   5.907  0.00  0.00    +0.169 HD
ENDBRANCH   1   3
BRANCH   1  20
ATOM     15  C   UNL     1       0.028   1.500   0.007  0.00  0.00    +0.045 C 
ATOM     16  C   UNL     1       0.036  -0.007   0.001  0.00  0.00    -0.029 A 
ATOM     17  C   UNL     1       0.042  -0.733  -1.168  0.00  0.00    +0.040 A 
ATOM     18  C   UNL     1       0.050  -2.087  -1.101  0.00  0.00    +0.143 A 
ATOM     19  S   UNL     1       0.048  -2.418   0.545  0.00  0.00    -0.064 S 
ATOM     20  C   UNL     1       0.043  -0.749   1.170  0.00  0.00    +0.081 A 
BRANCH  18  21
ATOM     21  S   UNL     1       0.058  -3.236  -2.437  0.00  0.00    +0.062 S 
ATOM     22  O   UNL     1      -0.487  -4.448  -1.934  0.00  0.00    -0.153 OA
ATOM     23  O   UNL     1      -0.495  -2.560  -3.558  0.00  0.00    -0.153 OA
BRANCH  21  24
ATOM     24  N   UNL     1       1.642  -3.546  -2.806  0.00  0.00    -0.203 NA
ATOM     25  H   UNL     1       1.895  -4.410  -3.167  0.00  0.00    +0.144 HD
ATOM     26  H   UNL     1       2.316  -2.864  -2.661  0.00  0.00    +0.144 HD
ENDBRANCH  21  24
ENDBRANCH  18  21
ENDBRANCH   1  20
TORSDOF 4
