REMARK  Name = ZINC00481592
REMARK  4 active torsions:
REMARK  status: ('A' for Active; 'I' for Inactive)
REMARK    1  A    between atoms: C_1  and  C_2
REMARK    2  A    between atoms: C_5  and  C_8
REMARK    3  A    between atoms: C_12  and  N_21
REMARK    4  A    between atoms: N_13  and  C_15
REMARK                            x       y       z     vdW  Elec       q    Type
REMARK                         _______ _______ _______ _____ _____    ______ ____
ROOT
ATOM      1  C   UNL     1       0.059  -4.250  -0.021  0.00  0.00    +0.141 A 
ATOM      2  C   UNL     1       0.068  -4.906   1.161  0.00  0.00    +0.075 A 
ATOM      3  C   UNL     1       0.088  -6.373   1.150  0.00  0.00    +0.076 A 
ATOM      4  C   UNL     1       0.096  -7.042  -0.166  0.00  0.00    +0.123 A 
ATOM      5  C   UNL     1       0.115  -8.403   0.090  0.00  0.00    +0.132 A 
ATOM      6  N   UNL     1       0.117  -8.566   1.431  0.00  0.00    -0.240 N 
ATOM      7  N   UNL     1       0.101  -7.315   2.060  0.00  0.00    -0.291 N 
ATOM      8  C   UNL     1       0.085  -6.230  -1.324  0.00  0.00    +0.350 A 
ATOM      9  O   UNL     1       0.091  -6.743  -2.428  0.00  0.00    -0.244 OA
ATOM     10  O   UNL     1       0.062  -4.891  -1.206  0.00  0.00    -0.422 OA
ATOM     11  H   UNL     1       0.099  -7.168   3.019  0.00  0.00    +0.187 HD
ENDROOT
BRANCH   1  16
ATOM     12  C   UNL     1      -0.018   1.503   0.010  0.00  0.00    +0.044 C 
ATOM     13  C   UNL     1       0.002  -0.004   0.002  0.00  0.00    -0.050 A 
ATOM     14  C   UNL     1       0.006  -0.686  -1.202  0.00  0.00    +0.004 A 
ATOM     15  C   UNL     1       0.024  -2.065  -1.217  0.00  0.00    +0.012 A 
ATOM     16  C   UNL     1       0.040  -2.773  -0.013  0.00  0.00    +0.017 A 
ATOM     17  C   UNL     1       0.036  -2.079   1.198  0.00  0.00    +0.012 A 
ATOM     18  C   UNL     1       0.023  -0.699   1.198  0.00  0.00    +0.004 A 
ENDBRANCH   1  16
BRANCH   6  19
ATOM     19  C   UNL     1       0.134  -9.799   2.093  0.00  0.00    +0.065 A 
ATOM     20  C   UNL     1      -0.699 -10.827   1.670  0.00  0.00    +0.028 A 
ATOM     21  C   UNL     1      -0.680 -12.043   2.325  0.00  0.00    +0.002 A 
ATOM     22  C   UNL     1       0.167 -12.238   3.401  0.00  0.00    +0.000 A 
ATOM     23  C   UNL     1       0.997 -11.216   3.825  0.00  0.00    +0.002 A 
ATOM     24  C   UNL     1       0.987 -10.000   3.171  0.00  0.00    +0.028 A 
ENDBRANCH   6  19
BRANCH   5  25
ATOM     25  N   UNL     1       0.127  -9.411  -0.854  0.00  0.00    -0.342 N 
ATOM     26  H   UNL     1       0.124  -9.190  -1.798  0.00  0.00    +0.144 HD
ATOM     27  H   UNL     1       0.140 -10.339  -0.572  0.00  0.00    +0.144 HD
ENDBRANCH   5  25
TORSDOF 3
