REMARK  Name = ZINC37117857
REMARK  5 active torsions:
REMARK  status: ('A' for Active; 'I' for Inactive)
REMARK    1  A    between atoms: C_1  and  C_2
REMARK    2  A    between atoms: C_7  and  N_10
REMARK    3  A    between atoms: N_10  and  C_11
REMARK    4  A    between atoms: C_11  and  C_13
REMARK    5  A    between atoms: C_11  and  C_14
REMARK                            x       y       z     vdW  Elec       q    Type
REMARK                         _______ _______ _______ _____ _____    ______ ____
ROOT
ATOM      1  C   UNL     1       4.226   0.136   2.473  0.00  0.00    -0.044 C 
ATOM      2  C   UNL     1       4.096   1.647   2.669  0.00  0.00    -0.009 C 
ENDROOT
BRANCH   1   3
ATOM      3  C   UNL     1       4.999  -0.456   3.624  0.00  0.00    -0.060 A 
ATOM      4  C   UNL     1       4.361  -0.705   4.827  0.00  0.00    +0.004 A 
ATOM      5  C   UNL     1       5.061  -1.247   5.887  0.00  0.00    +0.028 A 
ATOM      6  C   UNL     1       6.409  -1.542   5.746  0.00  0.00    +0.067 A 
ATOM      7  C   UNL     1       7.052  -1.290   4.532  0.00  0.00    +0.067 A 
ATOM      8  C   UNL     1       6.340  -0.751   3.472  0.00  0.00    +0.029 A 
ATOM      9  N   UNL     1       8.379  -1.683   4.691  0.00  0.00    -0.306 N 
ATOM     10  H   UNL     1       9.072  -1.628   4.015  0.00  0.00    +0.170 HD
ATOM     11  C   UNL     1       8.536  -2.152   5.943  0.00  0.00    +0.325 A 
ATOM     12  O   UNL     1       9.577  -2.577   6.407  0.00  0.00    -0.247 OA
ATOM     13  N   UNL     1       7.365  -2.080   6.604  0.00  0.00    -0.306 N 
ATOM     14  H   UNL     1       7.213  -2.356   7.521  0.00  0.00    +0.170 HD
ENDBRANCH   1   3
BRANCH   1  15
ATOM     15  N   UNL     1       2.888  -0.468   2.421  0.00  0.00    +0.385 N 
ATOM     16  H   UNL     1       2.371  -0.213   3.249  0.00  0.00    -0.085 HD
ATOM     17  H   UNL     1       2.974  -1.472   2.374  0.00  0.00    -0.085 HD
BRANCH  15  23
ATOM     18  C   UNL     1      -0.019   1.526   0.010  0.00  0.00    +0.007 C 
ATOM     19  C   UNL     1       0.002  -0.004   0.002  0.00  0.00    -0.016 C 
ATOM     20  C   UNL     1       0.718  -0.497  -1.257  0.00  0.00    +0.003 C 
ATOM     21  C   UNL     1       2.154   0.032  -1.268  0.00  0.00    -0.001 C 
ATOM     22  C   UNL     1       2.894  -0.475  -0.028  0.00  0.00    -0.016 C 
ATOM     23  C   UNL     1       2.178   0.019   1.231  0.00  0.00    -0.071 C 
ATOM     24  C   UNL     1       0.742  -0.511   1.242  0.00  0.00    -0.013 C 
ENDBRANCH  15  23
ENDBRANCH   1  15
TORSDOF 3
