REMARK  Name = ZINC61378076
REMARK  10 active torsions:
REMARK  status: ('A' for Active; 'I' for Inactive)
REMARK    1  A    between atoms: C_1  and  N_2
REMARK    2  A    between atoms: N_2  and  C_3
REMARK    3  A    between atoms: N_2  and  C_18
REMARK    4  A    between atoms: C_3  and  C_4
REMARK    5  A    between atoms: C_4  and  N_5
REMARK    6  A    between atoms: N_5  and  C_6
REMARK    7  A    between atoms: C_11  and  N_12
REMARK    8  A    between atoms: C_18  and  C_19
REMARK    9  A    between atoms: C_19  and  O_20
REMARK   10  A    between atoms: O_20  and  C_21
REMARK                            x       y       z     vdW  Elec       q    Type
REMARK                         _______ _______ _______ _____ _____    ______ ____
ROOT
ATOM      1  C   UNL     1       4.254  -0.283   2.464  0.00  0.00    +0.050 A 
ATOM      2  C   UNL     1       4.935   0.445   1.502  0.00  0.00    +0.048 A 
ATOM      3  C   UNL     1       6.288   0.710   1.662  0.00  0.00    +0.038 A 
ATOM      4  C   UNL     1       6.960   0.244   2.785  0.00  0.00    -0.024 A 
ATOM      5  C   UNL     1       6.283  -0.483   3.746  0.00  0.00    +0.030 A 
ATOM      6  C   UNL     1       4.930  -0.745   3.594  0.00  0.00    +0.046 A 
ATOM      7  C   UNL     1       8.428   0.535   2.954  0.00  0.00    +0.046 C 
ATOM      8  C   UNL     1       9.109   0.545   1.585  0.00  0.00    +0.101 C 
ATOM      9  C   UNL     1       8.323   1.400   0.628  0.00  0.00    +0.218 C 
ATOM     10  O   UNL     1       8.906   2.054  -0.210  0.00  0.00    -0.275 OA
ATOM     11  N   UNL     1       6.979   1.446   0.691  0.00  0.00    -0.285 N 
ATOM     12  H   UNL     1       6.486   1.993   0.060  0.00  0.00    +0.155 HD
ENDROOT
BRANCH   6  13
ATOM     13  N   UNL     1       4.243  -1.478   4.572  0.00  0.00    -0.357 N 
ATOM     14  H   UNL     1       3.297  -1.664   4.463  0.00  0.00    +0.142 HD
ATOM     15  H   UNL     1       4.713  -1.798   5.357  0.00  0.00    +0.142 HD
ENDBRANCH   6  13
BRANCH   1  16
ATOM     16  N   UNL     1       2.889  -0.551   2.306  0.00  0.00    -0.344 N 
ATOM     17  H   UNL     1       2.412  -1.058   2.982  0.00  0.00    +0.146 HD
BRANCH  16  18
ATOM     18  C   UNL     1       2.180  -0.066   1.119  0.00  0.00    +0.083 C 
BRANCH  18  19
ATOM     19  C   UNL     1       0.713  -0.491   1.192  0.00  0.00    -0.060 C 
BRANCH  19  21
ATOM     20  C   UNL     1      -0.018   1.465   0.010  0.00  0.00    -0.096 C 
ATOM     21  N   UNL     1       0.002  -0.004   0.002  0.00  0.00    +0.380 N 
ATOM     22  H   UNL     1       0.474  -0.330  -0.828  0.00  0.00    -0.082 HD
BRANCH  21  23
ATOM     23  C   UNL     1      -1.376  -0.512   0.012  0.00  0.00    -0.051 C 
BRANCH  23  24
ATOM     24  C   UNL     1      -2.078  -0.110  -1.286  0.00  0.00    +0.141 C 
BRANCH  24  25
ATOM     25  O   UNL     1      -1.444  -0.758  -2.391  0.00  0.00    -0.385 OA
ATOM     26  C   UNL     1      -2.026  -0.448  -3.659  0.00  0.00    +0.193 C 
ENDBRANCH  24  25
ENDBRANCH  23  24
ENDBRANCH  21  23
ENDBRANCH  19  21
ENDBRANCH  18  19
ENDBRANCH  16  18
ENDBRANCH   1  16
TORSDOF 8
