REMARK  Name = ZINC20789991
REMARK  10 active torsions:
REMARK  status: ('A' for Active; 'I' for Inactive)
REMARK    1  A    between atoms: C_1  and  C_2
REMARK    2  A    between atoms: C_2  and  C_3
REMARK    3  A    between atoms: C_2  and  N_4
REMARK    4  A    between atoms: N_13  and  C_27
REMARK    5  A    between atoms: C_17  and  C_25
REMARK    6  A    between atoms: C_18  and  N_24
REMARK    7  A    between atoms: C_19  and  C_20
REMARK    8  A    between atoms: C_19  and  C_22
REMARK    9  A    between atoms: C_27  and  C_28
REMARK   10  A    between atoms: C_27  and  C_29
REMARK                            x       y       z     vdW  Elec       q    Type
REMARK                         _______ _______ _______ _____ _____    ______ ____
ROOT
ATOM      1  N   UNL     1      -2.737   2.569   0.117  0.00  0.00    +0.381 N 
ATOM      2  C   UNL     1      -2.250   1.978  -1.128  0.00  0.00    -0.078 C 
ATOM      3  C   UNL     1      -0.730   2.057  -1.224  0.00  0.00    -0.008 C 
ATOM      4  C   UNL     1      -0.019   1.531   0.011  0.00  0.00    +0.012 C 
ATOM      5  C   UNL     1      -0.663   2.025   1.301  0.00  0.00    -0.008 C 
ATOM      6  C   UNL     1      -2.183   1.904   1.297  0.00  0.00    -0.078 C 
ATOM      7  C   UNL     1       0.002  -0.004   0.002  0.00  0.00    +0.043 C 
ATOM      8  C   UNL     1      -1.327  -0.640  -0.326  0.00  0.00    +0.093 C 
ATOM      9  N   UNL     1      -1.379  -2.019   0.189  0.00  0.00    -0.296 NA
ATOM     10  C   UNL     1      -1.323  -2.008   1.657  0.00  0.00    +0.112 C 
ATOM     11  C   UNL     1      -0.046  -1.335   2.094  0.00  0.00    -0.006 C 
ATOM     12  C   UNL     1       0.551  -0.442   1.340  0.00  0.00    -0.026 C 
ATOM     13  C   UNL     1       1.825   0.202   1.746  0.00  0.00    +0.074 C 
ATOM     14  C   UNL     1       2.226   1.331   1.105  0.00  0.00    +0.054 C 
ATOM     15  C   UNL     1       1.451   1.987  -0.001  0.00  0.00    +0.187 C 
ATOM     16  H   UNL     1      -2.377   3.608   0.135  0.00  0.00    -0.081 HD
ENDROOT
BRANCH   1  18
ATOM     17  C   UNL     1      -4.668   3.215   1.478  0.00  0.00    -0.014 C 
ATOM     18  C   UNL     1      -4.206   2.590   0.160  0.00  0.00    -0.075 C 
ATOM     19  C   UNL     1      -4.739   3.418  -1.012  0.00  0.00    -0.014 C 
ENDBRANCH   1  18
BRANCH  14  20
ATOM     20  N   UNL     1       3.405   1.907   1.492  0.00  0.00    -0.358 N 
ATOM     21  H   UNL     1       3.760   2.822   0.995  0.00  0.00    +0.142 HD
ATOM     22  H   UNL     1       3.998   1.456   2.301  0.00  0.00    +0.142 HD
ENDBRANCH  14  20
BRANCH   9  23
ATOM     23  C   UNL     1      -2.586  -2.708  -0.285  0.00  0.00    +0.051 C 
ATOM     24  C   UNL     1      -2.608  -4.135   0.267  0.00  0.00    +0.024 C 
ATOM     25  C   UNL     1      -3.826  -1.955   0.198  0.00  0.00    +0.024 C 
ENDBRANCH   9  23
BRANCH  15  26
ATOM     26  C   UNL     1       2.082   1.640  -1.287  0.00  0.00    +0.091 C 
ATOM     27  N   UNL     1       2.569   1.372  -2.277  0.00  0.00    -0.194 NA
ENDBRANCH  15  26
BRANCH  15  28
ATOM     28  C   UNL     1       1.554   3.446   0.159  0.00  0.00    +0.091 C 
ATOM     29  N   UNL     1       1.634   4.573   0.282  0.00  0.00    -0.194 NA
ENDBRANCH  15  28
BRANCH  13  30
ATOM     30  C   UNL     1       2.636  -0.346   2.789  0.00  0.00    +0.101 C 
ATOM     31  N   UNL     1       3.280  -0.782   3.617  0.00  0.00    -0.191 NA
ENDBRANCH  13  30
TORSDOF 6
