REMARK  Name = ZINC62006833
REMARK  7 active torsions:
REMARK  status: ('A' for Active; 'I' for Inactive)
REMARK    1  A    between atoms: C_1  and  C_2
REMARK    2  A    between atoms: C_2  and  C_3
REMARK    3  A    between atoms: C_2  and  N_4
REMARK    4  A    between atoms: C_5  and  C_7
REMARK    5  A    between atoms: C_8  and  N_26
REMARK    6  A    between atoms: C_9  and  C_12
REMARK    7  A    between atoms: N_17  and  C_20
REMARK                            x       y       z     vdW  Elec       q    Type
REMARK                         _______ _______ _______ _____ _____    ______ ____
ROOT
ATOM      1  C   UNL     1      -3.689  -0.773  -0.965  0.00  0.00    +0.156 A 
ATOM      2  C   UNL     1      -4.535  -0.694  -2.069  0.00  0.00    +0.076 A 
ATOM      3  C   UNL     1      -5.443  -1.750  -2.151  0.00  0.00    +0.115 A 
ATOM      4  S   UNL     1      -5.009  -2.698  -0.706  0.00  0.00    +0.019 S 
ATOM      5  N   UNL     1      -3.803  -1.786  -0.132  0.00  0.00    -0.203 NA
ENDROOT
BRANCH   3   6
ATOM      6  C   UNL     1      -6.476  -2.010  -3.155  0.00  0.00    +0.256 C 
ATOM      7  O   UNL     1      -6.244  -1.812  -4.333  0.00  0.00    -0.269 OA
ATOM      8  N   UNL     1      -7.685  -2.468  -2.774  0.00  0.00    -0.301 N 
ATOM      9  C   UNL     1      -7.955  -2.816  -1.370  0.00  0.00    +0.089 C 
ATOM     10  C   UNL     1      -9.247  -2.116  -0.936  0.00  0.00    -0.059 C 
ATOM     11  N   UNL     1     -10.328  -2.466  -1.866  0.00  0.00    +0.384 N 
ATOM     12  C   UNL     1     -10.026  -1.943  -3.204  0.00  0.00    -0.059 C 
ATOM     13  C   UNL     1      -8.775  -2.629  -3.750  0.00  0.00    +0.089 C 
ATOM     14  H   UNL     1     -10.420  -3.470  -1.911  0.00  0.00    -0.081 HD
BRANCH  11  15
ATOM     15  C   UNL     1     -11.590  -1.884  -1.388  0.00  0.00    -0.068 C 
ATOM     16  C   UNL     1     -11.912  -2.437   0.002  0.00  0.00    -0.015 C 
ATOM     17  C   UNL     1     -13.226  -1.831   0.500  0.00  0.00    -0.002 C 
ATOM     18  C   UNL     1     -14.354  -2.195  -0.468  0.00  0.00    -0.000 C 
ATOM     19  C   UNL     1     -14.032  -1.642  -1.857  0.00  0.00    -0.002 C 
ATOM     20  C   UNL     1     -12.718  -2.248  -2.355  0.00  0.00    -0.015 C 
ENDBRANCH  11  15
ENDBRANCH   3   6
BRANCH   1  22
ATOM     21  N   UNL     1      -1.930   0.247   0.392  0.00  0.00    -0.308 N 
ATOM     22  C   UNL     1      -2.670   0.268  -0.734  0.00  0.00    +0.265 C 
ATOM     23  O   UNL     1      -2.498   1.144  -1.559  0.00  0.00    -0.268 OA
ATOM     24  H   UNL     1      -2.067  -0.452   1.050  0.00  0.00    +0.149 HD
BRANCH  21  26
ATOM     25  C   UNL     1      -1.577   2.509   1.253  0.00  0.00    +0.027 C 
ATOM     26  C   UNL     1      -0.917   1.281   0.622  0.00  0.00    +0.067 C 
ATOM     27  C   UNL     1       0.160   0.740   1.564  0.00  0.00    +0.027 C 
ENDBRANCH  21  26
ENDBRANCH   1  22
BRANCH   2  28
ATOM     28  N   UNL     1      -4.480   0.336  -2.999  0.00  0.00    -0.355 N 
ATOM     29  H   UNL     1      -3.763   0.988  -2.958  0.00  0.00    +0.142 HD
ATOM     30  H   UNL     1      -5.158   0.404  -3.689  0.00  0.00    +0.142 HD
ENDBRANCH   2  28
TORSDOF 5
