REMARK  Name = ZINC67270560
REMARK  9 active torsions:
REMARK  status: ('A' for Active; 'I' for Inactive)
REMARK    1  A    between atoms: C_1  and  C_2
REMARK    2  A    between atoms: C_3  and  C_11
REMARK    3  A    between atoms: C_8  and  C_10
REMARK    4  A    between atoms: C_11  and  C_12
REMARK    5  A    between atoms: N_14  and  C_15
REMARK    6  A    between atoms: C_15  and  C_16
REMARK    7  A    between atoms: C_16  and  C_18
REMARK    8  A    between atoms: C_16  and  N_19
REMARK    9  A    between atoms: C_22  and  C_25
REMARK                            x       y       z     vdW  Elec       q    Type
REMARK                         _______ _______ _______ _____ _____    ______ ____
ROOT
ATOM      1  C   UNL     1      -2.987   0.870  -1.015  0.00  0.00    +0.218 C 
ATOM      2  O   UNL     1      -2.235   0.328  -1.798  0.00  0.00    -0.275 OA
ATOM      3  N   UNL     1      -4.201   1.286  -1.425  0.00  0.00    -0.317 N 
ATOM      4  H   UNL     1      -4.802   1.720  -0.799  0.00  0.00    +0.149 HD
ENDROOT
BRANCH   1   5
ATOM      5  C   UNL     1      -2.563   1.076   0.416  0.00  0.00    +0.138 C 
BRANCH   5   8
ATOM      6  C   UNL     1      -0.259   2.802   0.213  0.00  0.00    +0.066 C 
ATOM      7  C   UNL     1      -0.084   1.337   0.519  0.00  0.00    +0.049 A 
ATOM      8  C   UNL     1      -1.174   0.525   0.613  0.00  0.00    +0.047 A 
ATOM      9  C   UNL     1      -0.976  -0.841   0.900  0.00  0.00    +0.255 A 
ATOM     10  O   UNL     1      -1.924  -1.602   0.993  0.00  0.00    -0.267 OA
ATOM     11  N   UNL     1       0.287  -1.289   1.069  0.00  0.00    -0.311 N 
ATOM     12  H   UNL     1       0.448  -2.225   1.267  0.00  0.00    +0.170 HD
ATOM     13  C   UNL     1       1.323  -0.434   0.962  0.00  0.00    +0.107 A 
ATOM     14  N   UNL     1       1.139   0.831   0.692  0.00  0.00    -0.239 NA
ATOM     15  C   UNL     1       2.726  -0.950   1.154  0.00  0.00    +0.086 C 
ENDBRANCH   5   8
ENDBRANCH   1   5
BRANCH   3  16
ATOM     16  C   UNL     1      -4.613   1.086  -2.817  0.00  0.00    +0.088 C 
BRANCH  16  17
ATOM     17  C   UNL     1      -6.070   1.522  -2.985  0.00  0.00    -0.054 C 
ATOM     18  C   UNL     1      -6.531   1.220  -4.412  0.00  0.00    -0.012 C 
BRANCH  17  19
ATOM     19  N   UNL     1      -6.914   0.789  -2.032  0.00  0.00    +0.382 N 
ATOM     20  C   UNL     1      -6.901  -0.640  -2.367  0.00  0.00    -0.078 C 
ATOM     21  C   UNL     1      -7.713  -1.418  -1.330  0.00  0.00    -0.016 C 
ATOM     22  C   UNL     1      -9.156  -0.906  -1.331  0.00  0.00    -0.018 C 
ATOM     23  C   UNL     1      -9.153   0.600  -1.054  0.00  0.00    -0.016 C 
ATOM     24  C   UNL     1      -8.287   1.304  -2.101  0.00  0.00    -0.078 C 
ATOM     25  C   UNL     1      -9.954  -1.625  -0.241  0.00  0.00    +0.007 C 
ATOM     26  H   UNL     1      -6.555   0.917  -1.098  0.00  0.00    -0.081 HD
ENDBRANCH  17  19
ENDBRANCH  16  17
ENDBRANCH   3  16
TORSDOF 5
