REMARK  Name = ZINC62775539
REMARK  2 active torsions:
REMARK  status: ('A' for Active; 'I' for Inactive)
REMARK    1  A    between atoms: C_6  and  C_7
REMARK    2  A    between atoms: C_7  and  C_9
REMARK                            x       y       z     vdW  Elec       q    Type
REMARK                         _______ _______ _______ _____ _____    ______ ____
ROOT
ATOM      1  C   UNL     1      -0.018   1.394  -0.014  0.00  0.00    +0.013 A 
ATOM      2  C   UNL     1       1.165   2.098  -0.025  0.00  0.00    +0.024 A 
ATOM      3  C   UNL     1       2.381   1.419  -0.023  0.00  0.00    +0.037 A 
ATOM      4  C   UNL     1       2.404   0.027  -0.011  0.00  0.00    -0.025 A 
ATOM      5  C   UNL     1       1.225  -0.682  -0.000  0.00  0.00    +0.017 A 
ATOM      6  C   UNL     1       0.002  -0.004  -0.002  0.00  0.00    +0.024 A 
ATOM      7  C   UNL     1       3.723  -0.701  -0.009  0.00  0.00    +0.046 C 
ATOM      8  C   UNL     1       4.744   0.093  -0.825  0.00  0.00    +0.101 C 
ATOM      9  C   UNL     1       4.726   1.537  -0.402  0.00  0.00    +0.218 C 
ATOM     10  O   UNL     1       5.760   2.172  -0.391  0.00  0.00    -0.275 OA
ATOM     11  N   UNL     1       3.577   2.133  -0.034  0.00  0.00    -0.285 N 
ATOM     12  H   UNL     1       3.582   3.068   0.225  0.00  0.00    +0.155 HD
ENDROOT
BRANCH   6  13
ATOM     13  C   UNL     1      -1.264  -0.761   0.011  0.00  0.00    +0.213 C 
ATOM     14  O   UNL     1      -2.323  -0.173   0.119  0.00  0.00    -0.285 OA
BRANCH  13  15
ATOM     15  C   UNL     1      -1.245  -2.232  -0.109  0.00  0.00    +0.132 A 
ATOM     16  C   UNL     1      -2.372  -3.082  -0.221  0.00  0.00    +0.052 A 
ATOM     17  C   UNL     1      -1.873  -4.337  -0.305  0.00  0.00    +0.105 A 
ATOM     18  N   UNL     1      -0.522  -4.235  -0.245  0.00  0.00    -0.284 N 
ATOM     19  H   UNL     1       0.094  -4.984  -0.284  0.00  0.00    +0.188 HD
ATOM     20  N   UNL     1      -0.175  -3.003  -0.137  0.00  0.00    -0.171 NA
ENDBRANCH  13  15
ENDBRANCH   6  13
TORSDOF 2
