REMARK  Name = ZINC58394813
REMARK  4 active torsions:
REMARK  status: ('A' for Active; 'I' for Inactive)
REMARK    1  A    between atoms: C_4  and  N_19
REMARK    2  A    between atoms: C_5  and  C_7
REMARK    3  A    between atoms: C_8  and  C_9
REMARK    4  A    between atoms: C_14  and  C_16
REMARK                            x       y       z     vdW  Elec       q    Type
REMARK                         _______ _______ _______ _____ _____    ______ ____
ROOT
ATOM      1  C   UNL     1       0.125  -4.224   0.945  0.00  0.00    +0.239 C 
ATOM      2  O   UNL     1       1.190  -4.807   1.030  0.00  0.00    -0.271 OA
ATOM      3  N   UNL     1      -1.029  -4.903   1.099  0.00  0.00    -0.297 N 
ATOM      4  C   UNL     1      -2.380  -4.328   1.015  0.00  0.00    +0.109 C 
ATOM      5  C   UNL     1      -3.383  -5.481   1.228  0.00  0.00    +0.033 C 
ATOM      6  C   UNL     1      -2.552  -6.738   0.857  0.00  0.00    +0.093 C 
ATOM      7  C   UNL     1      -1.147  -6.347   1.372  0.00  0.00    +0.120 C 
ENDROOT
BRANCH   6   8
ATOM      8  C   UNL     1      -3.072  -7.959   1.571  0.00  0.00    +0.215 C 
ATOM      9  O   UNL     1      -4.022  -7.866   2.318  0.00  0.00    -0.276 OA
ATOM     10  N   UNL     1      -2.480  -9.155   1.379  0.00  0.00    -0.329 N 
ATOM     11  H   UNL     1      -1.720  -9.229   0.781  0.00  0.00    +0.145 HD
ATOM     12  H   UNL     1      -2.814  -9.941   1.838  0.00  0.00    +0.145 HD
ENDBRANCH   6   8
BRANCH   1  14
ATOM     13  C   UNL     1       1.251  -2.106   0.522  0.00  0.00    +0.015 C 
ATOM     14  C   UNL     1       0.097  -2.785   0.676  0.00  0.00    +0.068 C 
BRANCH  13  19
ATOM     15  C   UNL     1       0.036   1.429   0.217  0.00  0.00    +0.001 A 
ATOM     16  C   UNL     1       1.171   2.063  -0.260  0.00  0.00    +0.002 A 
ATOM     17  C   UNL     1       2.332   1.343  -0.482  0.00  0.00    +0.033 A 
ATOM     18  C   UNL     1       2.366  -0.013  -0.230  0.00  0.00    +0.133 A 
ATOM     19  C   UNL     1       1.224  -0.659   0.251  0.00  0.00    +0.005 A 
ATOM     20  C   UNL     1       0.054   0.075   0.474  0.00  0.00    +0.010 A 
BRANCH  18  21
ATOM     21  N   UNL     1       3.608  -0.781  -0.469  0.00  0.00    +0.057 N 
ATOM     22  O   UNL     1       4.683  -0.283  -0.226  0.00  0.00    -0.126 OA
ATOM     23  O   UNL     1       3.548  -1.906  -0.908  0.00  0.00    -0.126 OA
ENDBRANCH  18  21
ENDBRANCH  13  19
ENDBRANCH   1  14
TORSDOF 4
