REMARK  Name = ZINC40751918
REMARK  10 active torsions:
REMARK  status: ('A' for Active; 'I' for Inactive)
REMARK    1  A    between atoms: C_1  and  C_2
REMARK    2  A    between atoms: C_11  and  N_12
REMARK    3  A    between atoms: C_14  and  N_28
REMARK    4  A    between atoms: C_15  and  N_19
REMARK    5  A    between atoms: N_19  and  C_20
REMARK    6  A    between atoms: N_19  and  C_24
REMARK    7  A    between atoms: C_20  and  C_21
REMARK    8  A    between atoms: C_21  and  C_22
REMARK    9  A    between atoms: C_24  and  C_25
REMARK   10  A    between atoms: C_25  and  C_26
REMARK                            x       y       z     vdW  Elec       q    Type
REMARK                         _______ _______ _______ _____ _____    ______ ____
ROOT
ATOM      1  N   UNL     1       0.074  -4.885  -1.146  0.00  0.00    -0.297 N 
ATOM      2  C   UNL     1       0.195  -6.269  -1.089  0.00  0.00    +0.149 A 
ATOM      3  C   UNL     1       0.310  -7.020  -2.260  0.00  0.00    +0.106 A 
ATOM      4  C   UNL     1       0.429  -8.406  -2.145  0.00  0.00    +0.147 A 
ATOM      5  N   UNL     1       0.427  -8.955  -0.933  0.00  0.00    -0.219 NA
ATOM      6  C   UNL     1       0.315  -8.210   0.148  0.00  0.00    +0.225 A 
ATOM      7  N   UNL     1       0.206  -6.898   0.084  0.00  0.00    -0.219 NA
ATOM      8  H   UNL     1      -0.017  -4.441  -2.004  0.00  0.00    +0.154 HD
ENDROOT
BRANCH   1  19
ATOM      9  C   UNL     1      -2.330   0.952   0.369  0.00  0.00    +0.063 C 
ATOM     10  C   UNL     1      -1.689  -0.408   0.264  0.00  0.00    +0.013 A 
ATOM     11  C   UNL     1      -1.745  -1.092  -0.947  0.00  0.00    +0.021 A 
ATOM     12  C   UNL     1      -1.168  -2.327  -1.060  0.00  0.00    +0.013 A 
ATOM     13  C   UNL     1      -0.531  -2.868   0.069  0.00  0.00    +0.020 A 
ATOM     14  C   UNL     1      -0.511  -2.119   1.272  0.00  0.00    +0.048 A 
ATOM     15  N   UNL     1      -1.089  -0.914   1.315  0.00  0.00    -0.358 N 
ATOM     16  C   UNL     1       0.125  -2.657   2.404  0.00  0.00    +0.026 A 
ATOM     17  C   UNL     1       0.713  -3.884   2.338  0.00  0.00    +0.004 A 
ATOM     18  C   UNL     1       0.699  -4.626   1.162  0.00  0.00    +0.024 A 
ATOM     19  C   UNL     1       0.085  -4.136   0.028  0.00  0.00    +0.042 A 
ATOM     20  H   UNL     1      -1.068  -0.406   2.141  0.00  0.00    +0.166 HD
ENDBRANCH   1  19
BRANCH   3  21
ATOM     21  N   UNL     1       0.307  -6.398  -3.518  0.00  0.00    -0.353 N 
ATOM     22  H   UNL     1       0.297  -5.430  -3.581  0.00  0.00    +0.143 HD
ATOM     23  H   UNL     1       0.316  -6.936  -4.325  0.00  0.00    +0.143 HD
ENDBRANCH   3  21
BRANCH   4  24
ATOM     24  N   UNL     1       0.547  -9.200  -3.279  0.00  0.00    -0.312 N 
BRANCH  24  25
ATOM     25  C   UNL     1       1.861  -9.414  -3.891  0.00  0.00    +0.121 C 
BRANCH  25  26
ATOM     26  C   UNL     1       2.518 -10.648  -3.271  0.00  0.00    +0.137 C 
BRANCH  26  27
ATOM     27  C   UNL     1       3.838 -10.862  -3.885  0.00  0.00    +0.064 C 
ATOM     28  N   UNL     1       4.857 -11.027  -4.360  0.00  0.00    -0.197 NA
ENDBRANCH  26  27
ENDBRANCH  25  26
ENDBRANCH  24  25
BRANCH  24  29
ATOM     29  C   UNL     1      -0.643  -9.825  -3.863  0.00  0.00    +0.121 C 
BRANCH  29  30
ATOM     30  C   UNL     1      -1.185  -8.939  -4.986  0.00  0.00    +0.137 C 
BRANCH  30  31
ATOM     31  C   UNL     1      -2.381  -9.566  -5.573  0.00  0.00    +0.064 C 
ATOM     32  N   UNL     1      -3.303 -10.050  -6.026  0.00  0.00    -0.197 NA
ENDBRANCH  30  31
ENDBRANCH  29  30
ENDBRANCH  24  29
ENDBRANCH   4  24
TORSDOF 9
