REMARK  Name = ZINC23231473
REMARK  10 active torsions:
REMARK  status: ('A' for Active; 'I' for Inactive)
REMARK    1  A    between atoms: C_1  and  N_2
REMARK    2  A    between atoms: N_5  and  C_8
REMARK    3  A    between atoms: C_8  and  C_9
REMARK    4  A    between atoms: C_9  and  N_10
REMARK    5  A    between atoms: N_10  and  C_11
REMARK    6  A    between atoms: N_10  and  C_12
REMARK    7  A    between atoms: C_12  and  C_13
REMARK    8  A    between atoms: C_17  and  C_19
REMARK    9  A    between atoms: C_25  and  C_27
REMARK   10  A    between atoms: C_27  and  N_28
REMARK                            x       y       z     vdW  Elec       q    Type
REMARK                         _______ _______ _______ _____ _____    ______ ____
ROOT
ATOM      1  C   UNL     1       4.844   0.948  -0.038  0.00  0.00    -0.063 A 
ATOM      2  C   UNL     1       4.848  -0.436  -0.045  0.00  0.00    +0.002 A 
ATOM      3  C   UNL     1       3.656  -1.138  -0.038  0.00  0.00    +0.001 A 
ATOM      4  C   UNL     1       2.454  -0.461  -0.023  0.00  0.00    +0.011 A 
ATOM      5  C   UNL     1       2.442   0.935  -0.015  0.00  0.00    +0.018 A 
ATOM      6  C   UNL     1       3.649   1.637  -0.029  0.00  0.00    +0.013 A 
ENDROOT
BRANCH   5   7
ATOM      7  C   UNL     1       1.158   1.666   0.001  0.00  0.00    +0.141 A 
ATOM      8  N   UNL     1      -0.011   0.966   0.008  0.00  0.00    -0.307 N 
ATOM      9  H   UNL     1       0.006  -0.134   0.007  0.00  0.00    +0.170 HD
ATOM     10  C   UNL     1      -1.188   1.628   0.017  0.00  0.00    +0.252 A 
ATOM     11  O   UNL     1      -2.244   1.018   0.018  0.00  0.00    -0.268 OA
ATOM     12  C   UNL     1      -1.171   3.037   0.029  0.00  0.00    +0.094 A 
ATOM     13  C   UNL     1       0.030   3.681   0.022  0.00  0.00    +0.062 A 
ATOM     14  N   UNL     1       1.164   2.983   0.007  0.00  0.00    -0.233 NA
BRANCH  13  15
ATOM     15  C   UNL     1       0.075   5.188   0.029  0.00  0.00    +0.134 C 
BRANCH  15  16
ATOM     16  N   UNL     1       0.687   5.653   1.281  0.00  0.00    -0.325 NA
ATOM     17  H   UNL     1       1.710   5.255   1.360  0.00  0.00    +0.119 HD
ATOM     18  H   UNL     1       0.720   6.752   1.287  0.00  0.00    +0.119 HD
ENDBRANCH  15  16
ENDBRANCH  13  15
ENDBRANCH   5   7
BRANCH   1  19
ATOM     19  C   UNL     1       6.147   1.704  -0.046  0.00  0.00    -0.043 C 
BRANCH  19  20
ATOM     20  N   UNL     1       6.558   1.957  -1.434  0.00  0.00    +0.381 N 
ATOM     21  C   UNL     1       5.620   2.869  -2.102  0.00  0.00    -0.096 C 
ATOM     22  H   UNL     1       6.538   0.998  -1.972  0.00  0.00    -0.082 HD
BRANCH  20  23
ATOM     23  C   UNL     1       7.930   2.478  -1.490  0.00  0.00    -0.063 C 
BRANCH  23  24
ATOM     24  C   UNL     1       8.411   2.494  -2.943  0.00  0.00    +0.066 C 
BRANCH  24  29
ATOM     25  C   UNL     1      13.231   5.244  -3.993  0.00  0.00    -0.096 C 
ATOM     26  N   UNL     1      11.859   4.723  -3.937  0.00  0.00    +0.379 N 
ATOM     27  C   UNL     1      11.816   3.307  -4.331  0.00  0.00    -0.064 C 
ATOM     28  C   UNL     1      10.364   2.826  -4.336  0.00  0.00    +0.066 C 
ATOM     29  N   UNL     1       9.783   3.015  -2.999  0.00  0.00    -0.308 NA
ATOM     30  C   UNL     1       9.825   4.430  -2.605  0.00  0.00    +0.066 C 
ATOM     31  C   UNL     1      11.278   4.912  -2.600  0.00  0.00    -0.064 C 
ATOM     32  H   UNL     1      11.252   5.294  -4.655  0.00  0.00    -0.082 HD
ENDBRANCH  24  29
ENDBRANCH  23  24
ENDBRANCH  20  23
ENDBRANCH  19  20
ENDBRANCH   1  19
TORSDOF 8
