REMARK  Name = ZINC50708198
REMARK  4 active torsions:
REMARK  status: ('A' for Active; 'I' for Inactive)
REMARK    1  A    between atoms: C_1  and  C_2
REMARK    2  A    between atoms: C_5  and  N_8
REMARK    3  A    between atoms: N_8  and  C_9
REMARK    4  A    between atoms: C_10  and  C_12
REMARK                            x       y       z     vdW  Elec       q    Type
REMARK                         _______ _______ _______ _____ _____    ______ ____
ROOT
ATOM      1  N   UNL     1       0.036  -4.204   0.002  0.00  0.00    -0.269 N 
ATOM      2  C   UNL     1      -0.119  -5.109  -1.140  0.00  0.00    +0.138 C 
ATOM      3  C   UNL     1       0.200  -4.705   1.242  0.00  0.00    +0.271 C 
ATOM      4  O   UNL     1       0.216  -3.959   2.202  0.00  0.00    -0.268 OA
ENDROOT
BRANCH   3   5
ATOM      5  C   UNL     1       0.359  -6.162   1.435  0.00  0.00    +0.148 A 
ATOM      6  C   UNL     1       0.603  -6.679   2.714  0.00  0.00    +0.038 A 
ATOM      7  C   UNL     1       0.745  -8.048   2.845  0.00  0.00    +0.047 A 
ATOM      8  C   UNL     1       0.637  -8.831   1.694  0.00  0.00    +0.139 A 
ATOM      9  N   UNL     1       0.404  -8.255   0.520  0.00  0.00    -0.134 NA
ATOM     10  N   UNL     1       0.266  -6.985   0.398  0.00  0.00    -0.143 NA
ATOM     11  N   UNL     1       0.773 -10.207   1.777  0.00  0.00    -0.342 N 
ATOM     12  H   UNL     1       0.943 -10.627   2.635  0.00  0.00    +0.144 HD
ATOM     13  H   UNL     1       0.698 -10.751   0.977  0.00  0.00    +0.144 HD
ENDBRANCH   3   5
BRANCH   1  18
ATOM     14  C   UNL     1      -0.051   1.411  -0.798  0.00  0.00    +0.044 C 
ATOM     15  C   UNL     1      -0.028  -0.080  -0.585  0.00  0.00    -0.050 A 
ATOM     16  C   UNL     1      -0.022  -0.932  -1.675  0.00  0.00    +0.005 A 
ATOM     17  C   UNL     1      -0.000  -2.300  -1.483  0.00  0.00    +0.024 A 
ATOM     18  C   UNL     1       0.015  -2.819  -0.195  0.00  0.00    +0.036 A 
ATOM     19  C   UNL     1       0.009  -1.961   0.896  0.00  0.00    +0.024 A 
ATOM     20  C   UNL     1      -0.008  -0.594   0.698  0.00  0.00    +0.005 A 
ENDBRANCH   1  18
TORSDOF 2
