REMARK  Name = ZINC12298001
REMARK  9 active torsions:
REMARK  status: ('A' for Active; 'I' for Inactive)
REMARK    1  A    between atoms: C_1  and  C_2
REMARK    2  A    between atoms: C_5  and  C_8
REMARK    3  A    between atoms: C_8  and  C_13
REMARK    4  A    between atoms: C_15  and  C_18
REMARK    5  A    between atoms: C_18  and  N_64
REMARK    6  A    between atoms: C_19  and  C_20
REMARK    7  A    between atoms: C_19  and  N_64
REMARK    8  A    between atoms: C_26  and  C_27
REMARK    9  A    between atoms: C_26  and  N_64
REMARK                            x       y       z     vdW  Elec       q    Type
REMARK                         _______ _______ _______ _____ _____    ______ ____
ROOT
ATOM      1  C   UNL     1      -0.033   1.417   0.431  0.00  0.00    +0.022 C 
ENDROOT
BRANCH   1   4
ATOM      2  C   UNL     1      -1.329   1.974   3.732  0.00  0.00    +0.182 A 
ATOM      3  N   UNL     1      -0.284   1.754   2.914  0.00  0.00    -0.197 NA
ATOM      4  C   UNL     1      -0.793   1.661   1.709  0.00  0.00    +0.211 A 
ATOM      5  O   UNL     1      -2.115   1.817   1.832  0.00  0.00    -0.340 OA
ATOM      6  N   UNL     1      -2.401   1.995   2.997  0.00  0.00    -0.060 NA
BRANCH   2   7
ATOM      7  C   UNL     1      -1.269   2.157   5.227  0.00  0.00    +0.059 C 
ATOM      8  C   UNL     1      -0.726   0.877   5.894  0.00  0.00    +0.019 C 
ATOM      9  C   UNL     1      -1.540   0.759   7.207  0.00  0.00    +0.001 C 
ATOM     10  C   UNL     1      -2.952   1.227   6.777  0.00  0.00    +0.001 C 
ATOM     11  C   UNL     1      -2.684   2.380   5.788  0.00  0.00    +0.019 C 
BRANCH   7  16
ATOM     12  C   UNL     1       2.111   6.659   6.533  0.00  0.00    +0.044 C 
ATOM     13  C   UNL     1       1.229   5.485   6.192  0.00  0.00    -0.050 A 
ATOM     14  C   UNL     1       0.720   4.687   7.200  0.00  0.00    +0.003 A 
ATOM     15  C   UNL     1      -0.088   3.611   6.888  0.00  0.00    +0.005 A 
ATOM     16  C   UNL     1      -0.388   3.332   5.567  0.00  0.00    -0.034 A 
ATOM     17  C   UNL     1       0.125   4.126   4.559  0.00  0.00    +0.005 A 
ATOM     18  C   UNL     1       0.929   5.206   4.872  0.00  0.00    +0.003 A 
ENDBRANCH   7  16
ENDBRANCH   2   7
ENDBRANCH   1   4
BRANCH   1  19
ATOM     19  N   UNL     1       0.078  -0.041   0.213  0.00  0.00    +0.389 N 
ATOM     20  H   UNL     1       0.452  -0.477   1.064  0.00  0.00    -0.081 HD
BRANCH  19  21
ATOM     21  C   UNL     1       0.998  -0.315  -0.911  0.00  0.00    -0.041 C 
BRANCH  21  22
ATOM     22  C   UNL     1       2.415  -0.165  -0.423  0.00  0.00    -0.046 A 
ATOM     23  C   UNL     1       3.052  -1.218   0.217  0.00  0.00    +0.005 A 
ATOM     24  C   UNL     1       4.357  -1.035   0.649  0.00  0.00    +0.020 A 
ATOM     25  C   UNL     1       4.975   0.181   0.430  0.00  0.00    +0.111 A 
ATOM     26  N   UNL     1       4.338   1.161  -0.182  0.00  0.00    -0.263 NA
ATOM     27  C   UNL     1       3.099   1.020  -0.612  0.00  0.00    +0.112 A 
ENDBRANCH  21  22
ENDBRANCH  19  21
BRANCH  19  28
ATOM     28  C   UNL     1      -1.254  -0.612  -0.073  0.00  0.00    -0.055 C 
BRANCH  28  29
ATOM     29  C   UNL     1      -1.181  -2.133   0.080  0.00  0.00    +0.057 C 
ATOM     30  C   UNL     1      -2.596  -2.746   0.009  0.00  0.00    +0.029 C 
ATOM     31  C   UNL     1      -2.983  -2.814   1.507  0.00  0.00    +0.097 C 
ATOM     32  C   UNL     1      -1.656  -2.866   2.231  0.00  0.00    +0.213 C 
ATOM     33  O   UNL     1      -1.509  -3.202   3.387  0.00  0.00    -0.276 OA
ATOM     34  N   UNL     1      -0.665  -2.485   1.408  0.00  0.00    -0.314 N 
ATOM     35  H   UNL     1       0.271  -2.447   1.659  0.00  0.00    +0.149 HD
ENDBRANCH  28  29
ENDBRANCH  19  28
ENDBRANCH   1  19
TORSDOF 8
