REMARK  Name = ZINC64609854
REMARK  9 active torsions:
REMARK  status: ('A' for Active; 'I' for Inactive)
REMARK    1  A    between atoms: C_1  and  C_2
REMARK    2  A    between atoms: C_4  and  C_10
REMARK    3  A    between atoms: C_5  and  C_9
REMARK    4  A    between atoms: N_7  and  C_8
REMARK    5  A    between atoms: C_10  and  N_11
REMARK    6  A    between atoms: N_11  and  C_12
REMARK    7  A    between atoms: N_11  and  C_13
REMARK    8  A    between atoms: C_13  and  C_14
REMARK    9  A    between atoms: C_18  and  C_20
REMARK                            x       y       z     vdW  Elec       q    Type
REMARK                         _______ _______ _______ _____ _____    ______ ____
ROOT
ATOM      1  N   UNL     1      -0.609  -1.289  -3.077  0.00  0.00    +0.383 N 
ATOM      2  C   UNL     1       0.006  -2.623  -3.043  0.00  0.00    -0.095 C 
ATOM      3  H   UNL     1      -1.400  -1.268  -2.451  0.00  0.00    -0.081 HD
ENDROOT
BRANCH   1   4
ATOM      4  C   UNL     1       0.377  -0.284  -2.656  0.00  0.00    -0.044 C 
BRANCH   4   7
ATOM      5  C   UNL     1      -0.019   1.526   0.010  0.00  0.00    +0.030 C 
ATOM      6  C   UNL     1       0.002  -0.004   0.002  0.00  0.00    +0.098 C 
ATOM      7  C   UNL     1       0.745  -0.517  -1.213  0.00  0.00    -0.050 C 
ATOM      8  C   UNL     1       1.776  -1.206  -0.766  0.00  0.00    +0.015 C 
ATOM      9  N   UNL     1       1.821  -1.222   0.614  0.00  0.00    -0.282 N 
ATOM     10  N   UNL     1       0.778  -0.516   1.149  0.00  0.00    -0.226 NA
ATOM     11  C   UNL     1       1.263   0.586   1.991  0.00  0.00    +0.128 C 
ATOM     12  C   UNL     1       2.781  -1.893  -1.654  0.00  0.00    +0.061 C 
ATOM     13  H   UNL     1       2.501  -1.676   1.135  0.00  0.00    +0.166 HD
ENDBRANCH   4   7
ENDBRANCH   1   4
BRANCH   1  14
ATOM     14  C   UNL     1      -1.057  -0.992  -4.444  0.00  0.00    -0.043 C 
BRANCH  14  15
ATOM     15  C   UNL     1      -2.156  -1.948  -4.831  0.00  0.00    -0.063 A 
ATOM     16  C   UNL     1      -1.842  -3.151  -5.438  0.00  0.00    +0.002 A 
ATOM     17  C   UNL     1      -2.845  -4.034  -5.796  0.00  0.00    +0.001 A 
ATOM     18  C   UNL     1      -4.166  -3.719  -5.551  0.00  0.00    +0.011 A 
ATOM     19  C   UNL     1      -4.489  -2.507  -4.939  0.00  0.00    +0.017 A 
ATOM     20  C   UNL     1      -3.472  -1.623  -4.575  0.00  0.00    +0.013 A 
BRANCH  19  21
ATOM     21  C   UNL     1      -5.903  -2.163  -4.673  0.00  0.00    +0.138 A 
ATOM     22  N   UNL     1      -6.333  -1.056  -4.111  0.00  0.00    -0.236 NA
ATOM     23  C   UNL     1      -7.668  -1.090  -4.033  0.00  0.00    +0.130 A 
ATOM     24  C   UNL     1      -8.095  -2.255  -4.562  0.00  0.00    +0.104 A 
ATOM     25  N   UNL     1      -6.984  -2.939  -4.975  0.00  0.00    -0.344 N 
ATOM     26  H   UNL     1      -6.968  -3.811  -5.400  0.00  0.00    +0.167 HD
ENDBRANCH  19  21
ENDBRANCH  14  15
ENDBRANCH   1  14
TORSDOF 5
