REMARK  Name = ZINC28176192
REMARK  4 active torsions:
REMARK  status: ('A' for Active; 'I' for Inactive)
REMARK    1  A    between atoms: C_1  and  C_2
REMARK    2  A    between atoms: C_2  and  C_4
REMARK    3  A    between atoms: C_2  and  N_16
REMARK    4  A    between atoms: C_10  and  C_13
REMARK                            x       y       z     vdW  Elec       q    Type
REMARK                         _______ _______ _______ _____ _____    ______ ____
ROOT
ATOM      1  C   UNL     1      -1.378  -0.602   0.029  0.00  0.00    +0.202 C 
ATOM      2  O   UNL     1      -1.716  -1.301   0.961  0.00  0.00    -0.277 OA
ATOM      3  N   UNL     1      -2.240  -0.356  -0.977  0.00  0.00    -0.302 N 
ATOM      4  C   UNL     1      -1.885   0.576  -2.056  0.00  0.00    +0.108 C 
ATOM      5  C   UNL     1      -2.990   1.629  -2.181  0.00  0.00    +0.020 C 
ATOM      6  C   UNL     1      -4.338   0.929  -2.373  0.00  0.00    +0.016 C 
ATOM      7  C   UNL     1      -4.639   0.055  -1.153  0.00  0.00    +0.092 C 
ATOM      8  C   UNL     1      -3.550  -1.020  -1.020  0.00  0.00    +0.120 C 
ENDROOT
BRANCH   7   9
ATOM      9  C   UNL     1      -5.980  -0.608  -1.328  0.00  0.00    +0.215 C 
ATOM     10  O   UNL     1      -6.062  -1.818  -1.340  0.00  0.00    -0.276 OA
ATOM     11  N   UNL     1      -7.090   0.144  -1.471  0.00  0.00    -0.329 N 
ATOM     12  H   UNL     1      -7.025   1.111  -1.462  0.00  0.00    +0.145 HD
ATOM     13  H   UNL     1      -7.954  -0.283  -1.584  0.00  0.00    +0.145 HD
ENDBRANCH   7   9
BRANCH   1  15
ATOM     14  C   UNL     1      -0.048   1.441   0.486  0.00  0.00    -0.004 C 
ATOM     15  C   UNL     1       0.007  -0.008  -0.003  0.00  0.00    +0.017 C 
BRANCH  15  16
ATOM     16  N   UNL     1       0.894  -0.787   0.872  0.00  0.00    +0.390 N 
ATOM     17  C   UNL     1       2.236  -0.190   0.854  0.00  0.00    -0.072 C 
ATOM     18  C   UNL     1       3.063  -0.789   2.004  0.00  0.00    +0.024 C 
ATOM     19  C   UNL     1       2.880  -2.272   1.965  0.00  0.00    -0.011 A 
ATOM     20  C   UNL     1       1.937  -2.952   1.254  0.00  0.00    -0.054 A 
ATOM     21  C   UNL     1       1.957  -4.340   1.364  0.00  0.00    +0.009 A 
ATOM     22  C   UNL     1       2.880  -4.943   2.149  0.00  0.00    +0.045 A 
ATOM     23  S   UNL     1       3.791  -3.545   2.789  0.00  0.00    -0.101 S 
ATOM     24  C   UNL     1       0.935  -2.177   0.403  0.00  0.00    -0.041 C 
ATOM     25  H   UNL     1       0.534  -0.765   1.814  0.00  0.00    -0.080 HD
ENDBRANCH  15  16
ENDBRANCH   1  15
TORSDOF 3
