REMARK  Name = ZINC36945682
REMARK  7 active torsions:
REMARK  status: ('A' for Active; 'I' for Inactive)
REMARK    1  A    between atoms: C_1  and  C_2
REMARK    2  A    between atoms: C_5  and  N_13
REMARK    3  A    between atoms: C_7  and  C_12
REMARK    4  A    between atoms: N_10  and  C_11
REMARK    5  A    between atoms: N_13  and  C_14
REMARK    6  A    between atoms: C_14  and  C_16
REMARK    7  A    between atoms: C_14  and  C_17
REMARK                            x       y       z     vdW  Elec       q    Type
REMARK                         _______ _______ _______ _____ _____    ______ ____
ROOT
ATOM      1  N   UNL     1      -3.501  -0.602   1.326  0.00  0.00    +0.385 N 
ATOM      2  H   UNL     1      -3.540  -1.607   1.242  0.00  0.00    -0.085 HD
ATOM      3  H   UNL     1      -3.850  -0.327   2.232  0.00  0.00    -0.085 HD
ENDROOT
BRANCH   1   7
ATOM      4  C   UNL     1       0.040   1.262  -0.214  0.00  0.00    -0.013 C 
ATOM      5  C   UNL     1      -0.071  -0.264  -0.255  0.00  0.00    -0.074 C 
ATOM      6  C   UNL     1      -1.542  -0.671  -0.144  0.00  0.00    -0.031 C 
ATOM      7  C   UNL     1      -2.111  -0.152   1.179  0.00  0.00    -0.071 C 
ATOM      8  C   UNL     1      -1.269  -0.699   2.335  0.00  0.00    -0.045 C 
ATOM      9  C   UNL     1       0.192  -0.291   2.133  0.00  0.00    -0.077 C 
ATOM     10  N   UNL     1       0.685  -0.839   0.864  0.00  0.00    +0.380 N 
ATOM     11  C   UNL     1       2.109  -0.511   0.712  0.00  0.00    -0.096 C 
ATOM     12  C   UNL     1      -1.782  -0.125   3.657  0.00  0.00    +0.004 C 
ATOM     13  H   UNL     1       0.571  -1.841   0.865  0.00  0.00    -0.082 HD
ENDBRANCH   1   7
BRANCH   1  14
ATOM     14  C   UNL     1      -4.328   0.009   0.276  0.00  0.00    -0.043 C 
ATOM     15  C   UNL     1      -5.739  -0.580   0.331  0.00  0.00    -0.009 C 
BRANCH  14  16
ATOM     16  C   UNL     1      -4.396   1.498   0.494  0.00  0.00    -0.048 A 
ATOM     17  C   UNL     1      -4.101   2.030   1.735  0.00  0.00    +0.003 A 
ATOM     18  C   UNL     1      -4.162   3.396   1.935  0.00  0.00    +0.000 A 
ATOM     19  C   UNL     1      -4.519   4.232   0.892  0.00  0.00    +0.001 A 
ATOM     20  C   UNL     1      -4.814   3.701  -0.349  0.00  0.00    +0.015 A 
ATOM     21  C   UNL     1      -4.747   2.334  -0.551  0.00  0.00    +0.019 A 
ATOM     22 BR   UNL     1      -5.144   1.608  -2.251  0.00  0.00    -0.050 Br
ENDBRANCH  14  16
ENDBRANCH   1  14
TORSDOF 3
