REMARK  Name = ZINC43714360
REMARK  8 active torsions:
REMARK  status: ('A' for Active; 'I' for Inactive)
REMARK    1  A    between atoms: C_1  and  C_2
REMARK    2  A    between atoms: C_2  and  N_3
REMARK    3  A    between atoms: C_4  and  C_6
REMARK    4  A    between atoms: C_6  and  N_7
REMARK    5  A    between atoms: N_15  and  C_16
REMARK    6  A    between atoms: C_16  and  C_17
REMARK    7  A    between atoms: N_19  and  C_20
REMARK    8  A    between atoms: N_19  and  C_21
REMARK                            x       y       z     vdW  Elec       q    Type
REMARK                         _______ _______ _______ _____ _____    ______ ____
ROOT
ATOM      1  N   UNL     1       1.554  -3.753  -2.669  0.00  0.00    -0.291 NA
ATOM      2  C   UNL     1       2.368  -4.278  -1.565  0.00  0.00    +0.104 C 
ATOM      3  C   UNL     1       2.216  -5.801  -1.502  0.00  0.00    +0.124 C 
ATOM      4  N   UNL     1       2.532  -6.357  -2.827  0.00  0.00    -0.283 N 
ATOM      5  C   UNL     1       1.855  -5.786  -4.001  0.00  0.00    +0.124 C 
ATOM      6  C   UNL     1       2.021  -4.263  -3.965  0.00  0.00    +0.104 C 
ATOM      7  C   UNL     1       3.419  -7.364  -2.961  0.00  0.00    +0.303 C 
ATOM      8  O   UNL     1       4.039  -7.761  -1.994  0.00  0.00    -0.253 OA
ATOM      9  N   UNL     1       3.617  -7.930  -4.168  0.00  0.00    -0.291 N 
ATOM     10  H   UNL     1       3.177  -7.567  -4.952  0.00  0.00    +0.151 HD
ENDROOT
BRANCH   1  11
ATOM     11  C   UNL     1       1.535  -2.284  -2.657  0.00  0.00    +0.180 C 
BRANCH  11  13
ATOM     12  N   UNL     1       0.688  -0.479  -1.194  0.00  0.00    -0.315 N 
ATOM     13  C   UNL     1       0.826  -1.801  -1.419  0.00  0.00    +0.227 C 
ATOM     14  O   UNL     1       0.381  -2.601  -0.624  0.00  0.00    -0.274 OA
ATOM     15  H   UNL     1       1.044   0.161  -1.829  0.00  0.00    +0.149 HD
BRANCH  12  17
ATOM     16  C   UNL     1      -0.021   1.521   0.023  0.00  0.00    +0.024 C 
ATOM     17  C   UNL     1      -0.002  -0.009   0.011  0.00  0.00    +0.101 C 
ENDBRANCH  12  17
ENDBRANCH  11  13
ENDBRANCH   1  11
BRANCH   9  18
ATOM     18  C   UNL     1       4.497  -9.095  -4.294  0.00  0.00    +0.201 C 
BRANCH  18  19
ATOM     19  C   UNL     1       4.548  -9.532  -5.736  0.00  0.00    +0.232 C 
ATOM     20  O   UNL     1       3.911  -8.930  -6.575  0.00  0.00    -0.274 OA
ATOM     21  N   UNL     1       5.301 -10.591  -6.093  0.00  0.00    -0.306 N 
ATOM     22  C   UNL     1       5.350 -11.016  -7.494  0.00  0.00    +0.131 C 
ATOM     23  C   UNL     1       6.070 -11.318  -5.080  0.00  0.00    +0.131 C 
ENDBRANCH  18  19
ENDBRANCH   9  18
TORSDOF 5
