REMARK  Name = ZINC39898746
REMARK  8 active torsions:
REMARK  status: ('A' for Active; 'I' for Inactive)
REMARK    1  A    between atoms: C_1  and  O_2
REMARK    2  A    between atoms: O_2  and  C_3
REMARK    3  A    between atoms: C_5  and  C_10
REMARK    4  A    between atoms: C_8  and  O_9
REMARK    5  A    between atoms: C_13  and  C_27
REMARK    6  A    between atoms: N_20  and  C_21
REMARK    7  A    between atoms: C_21  and  C_22
REMARK    8  A    between atoms: C_32  and  O_33
REMARK                            x       y       z     vdW  Elec       q    Type
REMARK                         _______ _______ _______ _____ _____    ______ ____
ROOT
ATOM      1  C   UNL     1       2.253   0.338   4.237  0.00  0.00    +0.142 C 
ATOM      2  C   UNL     1       1.494   0.208   5.529  0.00  0.00    +0.035 A 
ATOM      3  C   UNL     1       0.284   0.384   6.209  0.00  0.00    +0.102 A 
ATOM      4  N   UNL     1       0.467  -0.018   7.451  0.00  0.00    -0.173 NA
ATOM      5  N   UNL     1       1.673  -0.430   7.623  0.00  0.00    -0.272 N 
ATOM      6  H   UNL     1       2.031  -0.770   8.457  0.00  0.00    +0.189 HD
ATOM      7  C   UNL     1       2.374  -0.317   6.456  0.00  0.00    +0.126 A 
ATOM      8  C   UNL     1       3.671  -0.526   5.803  0.00  0.00    +0.266 C 
ATOM      9  O   UNL     1       4.659  -0.977   6.349  0.00  0.00    -0.268 OA
ATOM     10  N   UNL     1       3.612  -0.147   4.511  0.00  0.00    -0.278 N 
ENDROOT
BRANCH   3  11
ATOM     11  C   UNL     1      -0.975   0.924   5.637  0.00  0.00    +0.045 A 
ATOM     12  C   UNL     1      -0.992   1.430   4.339  0.00  0.00    +0.033 A 
ATOM     13  C   UNL     1      -2.166   1.932   3.812  0.00  0.00    +0.042 A 
ATOM     14  C   UNL     1      -3.325   1.934   4.569  0.00  0.00    +0.023 A 
ATOM     15  C   UNL     1      -3.317   1.434   5.857  0.00  0.00    +0.047 A 
ATOM     16  C   UNL     1      -2.148   0.922   6.396  0.00  0.00    +0.126 A 
ATOM     17 CL   UNL     1      -2.187   2.563   2.195  0.00  0.00    -0.084 Cl
BRANCH  16  18
ATOM     18  O   UNL     1      -2.140   0.426   7.661  0.00  0.00    -0.506 OA
ATOM     19  H   UNL     1      -1.937   1.083   8.340  0.00  0.00    +0.292 HD
ENDBRANCH  16  18
ENDBRANCH   3  11
BRANCH   1  22
ATOM     20  C   UNL     1       1.061  -2.660   2.272  0.00  0.00    +0.162 A 
ATOM     21  C   UNL     1       1.655  -1.883   3.254  0.00  0.00    +0.055 A 
ATOM     22  C   UNL     1       1.607  -0.504   3.168  0.00  0.00    -0.019 A 
ATOM     23  C   UNL     1       0.968   0.103   2.103  0.00  0.00    +0.009 A 
ATOM     24  C   UNL     1       0.374  -0.666   1.120  0.00  0.00    +0.049 A 
ATOM     25  C   UNL     1       0.423  -2.048   1.197  0.00  0.00    +0.158 A 
BRANCH  20  27
ATOM     26  C   UNL     1       1.708  -4.574   3.526  0.00  0.00    +0.277 C 
ATOM     27  O   UNL     1       1.107  -4.016   2.355  0.00  0.00    -0.491 OA
ENDBRANCH  20  27
BRANCH  25  28
ATOM     28  O   UNL     1      -0.157  -2.806   0.228  0.00  0.00    -0.503 OA
ATOM     29  H   UNL     1      -1.083  -3.023   0.399  0.00  0.00    +0.292 HD
ENDBRANCH  25  28
ENDBRANCH   1  22
BRANCH  10  30
ATOM     30  C   UNL     1       4.712  -0.210   3.546  0.00  0.00    +0.183 C 
BRANCH  30  31
ATOM     31  C   UNL     1       5.486   1.083   3.581  0.00  0.00    +0.122 A 
ATOM     32  C   UNL     1       6.546   1.344   4.367  0.00  0.00    +0.046 A 
ATOM     33  C   UNL     1       6.956   2.666   4.075  0.00  0.00    +0.041 A 
ATOM     34  C   UNL     1       6.122   3.132   3.129  0.00  0.00    +0.195 A 
ATOM     35  O   UNL     1       5.237   2.167   2.829  0.00  0.00    -0.466 OA
ENDBRANCH  30  31
ENDBRANCH  10  30
TORSDOF 7
