REMARK  Name = ZINC24826300
REMARK  8 active torsions:
REMARK  status: ('A' for Active; 'I' for Inactive)
REMARK    1  A    between atoms: C_1  and  C_2
REMARK    2  A    between atoms: C_2  and  C_4
REMARK    3  A    between atoms: C_2  and  N_10
REMARK    4  A    between atoms: N_13  and  C_16
REMARK    5  A    between atoms: C_16  and  C_18
REMARK    6  A    between atoms: C_16  and  C_25
REMARK    7  A    between atoms: C_25  and  O_27
REMARK    8  A    between atoms: O_27  and  C_28
REMARK                            x       y       z     vdW  Elec       q    Type
REMARK                         _______ _______ _______ _____ _____    ______ ____
ROOT
ATOM      1  N   UNL     1       0.178   4.482   2.802  0.00  0.00    +0.389 N 
ATOM      2  C   UNL     1      -0.391   3.479   3.713  0.00  0.00    -0.062 C 
ATOM      3  C   UNL     1      -0.475   2.131   2.995  0.00  0.00    +0.067 C 
ATOM      4  N   UNL     1      -1.302   2.272   1.788  0.00  0.00    -0.290 NA
ATOM      5  C   UNL     1      -0.733   3.274   0.877  0.00  0.00    +0.067 C 
ATOM      6  C   UNL     1      -0.649   4.623   1.596  0.00  0.00    -0.062 C 
ATOM      7  H   UNL     1       1.174   4.133   2.492  0.00  0.00    -0.081 HD
ENDROOT
BRANCH   1   9
ATOM      8  C   UNL     1       0.810   6.824   2.468  0.00  0.00    -0.004 C 
ATOM      9  C   UNL     1       0.346   5.775   3.480  0.00  0.00    +0.017 C 
BRANCH   9  10
ATOM     10  C   UNL     1       1.375   5.639   4.572  0.00  0.00    +0.207 C 
ATOM     11  O   UNL     1       2.254   4.810   4.477  0.00  0.00    -0.277 OA
ATOM     12  N   UNL     1       1.318   6.441   5.655  0.00  0.00    -0.242 N 
ATOM     13  C   UNL     1       2.238   6.320   6.632  0.00  0.00    +0.303 C 
ATOM     14  O   UNL     1       3.120   5.488   6.537  0.00  0.00    -0.253 OA
ATOM     15  N   UNL     1       2.181   7.121   7.714  0.00  0.00    -0.313 N 
ATOM     16  H   UNL     1       0.520   7.193   5.740  0.00  0.00    +0.159 HD
ATOM     17  H   UNL     1       2.932   7.022   8.512  0.00  0.00    +0.146 HD
ATOM     18  H   UNL     1       1.383   7.873   7.800  0.00  0.00    +0.146 HD
ENDBRANCH   9  10
ENDBRANCH   1   9
BRANCH   4  19
ATOM     19  C   UNL     1      -1.469   0.979   1.111  0.00  0.00    +0.198 C 
BRANCH  19  20
ATOM     20  C   UNL     1      -2.198   0.025   2.021  0.00  0.00    -0.001 A 
ATOM     21  C   UNL     1      -3.077   0.511   2.971  0.00  0.00    +0.007 A 
ATOM     22  C   UNL     1      -3.749  -0.364   3.803  0.00  0.00    +0.000 A 
ATOM     23  C   UNL     1      -3.536  -1.726   3.693  0.00  0.00    +0.001 A 
ATOM     24  C   UNL     1      -2.654  -2.212   2.747  0.00  0.00    +0.020 A 
ATOM     25  C   UNL     1      -1.984  -1.337   1.910  0.00  0.00    +0.046 A 
ATOM     26 CL   UNL     1      -0.875  -1.948   0.722  0.00  0.00    -0.083 Cl
ENDBRANCH  19  20
BRANCH  19  27
ATOM     27  C   UNL     1      -2.265   1.174  -0.154  0.00  0.00    +0.329 C 
ATOM     28  O   UNL     1      -3.084   2.061  -0.222  0.00  0.00    -0.249 OA
BRANCH  27  29
ATOM     29  O   UNL     1      -2.065   0.364  -1.205  0.00  0.00    -0.467 OA
ATOM     30  C   UNL     1      -2.868   0.610  -2.390  0.00  0.00    +0.280 C 
ENDBRANCH  27  29
ENDBRANCH  19  27
ENDBRANCH   4  19
TORSDOF 6
