REMARK  Name = ZINC37159155
REMARK  6 active torsions:
REMARK  status: ('A' for Active; 'I' for Inactive)
REMARK    1  A    between atoms: C_1  and  C_2
REMARK    2  A    between atoms: C_2  and  C_4
REMARK    3  A    between atoms: C_2  and  N_14
REMARK    4  A    between atoms: C_7  and  N_10
REMARK    5  A    between atoms: N_14  and  C_15
REMARK    6  A    between atoms: C_15  and  C_16
REMARK                            x       y       z     vdW  Elec       q    Type
REMARK                         _______ _______ _______ _____ _____    ______ ____
ROOT
ATOM      1  C   UNL     1       0.715  -0.472  -1.241  0.00  0.00    -0.062 A 
ATOM      2  C   UNL     1       2.086  -0.335  -1.357  0.00  0.00    +0.004 A 
ATOM      3  C   UNL     1       2.733  -0.785  -2.491  0.00  0.00    +0.023 A 
ATOM      4  C   UNL     1       2.005  -1.376  -3.515  0.00  0.00    +0.035 A 
ATOM      5  C   UNL     1       0.628  -1.513  -3.396  0.00  0.00    +0.023 A 
ATOM      6  C   UNL     1      -0.012  -1.065  -2.257  0.00  0.00    +0.004 A 
ENDROOT
BRANCH   4   7
ATOM      7  N   UNL     1       2.658  -1.833  -4.666  0.00  0.00    -0.270 N 
ATOM      8  C   UNL     1       3.907  -2.331  -4.579  0.00  0.00    +0.301 C 
ATOM      9  O   UNL     1       4.431  -2.473  -3.491  0.00  0.00    -0.253 OA
ATOM     10  N   UNL     1       4.576  -2.671  -5.699  0.00  0.00    -0.313 N 
ATOM     11  H   UNL     1       2.211  -1.792  -5.526  0.00  0.00    +0.156 HD
ATOM     12  H   UNL     1       4.158  -2.558  -6.567  0.00  0.00    +0.146 HD
ATOM     13  H   UNL     1       5.475  -3.030  -5.636  0.00  0.00    +0.146 HD
ENDBRANCH   4   7
BRANCH   1  15
ATOM     14  C   UNL     1      -0.191   1.534  -0.099  0.00  0.00    -0.009 C 
ATOM     15  C   UNL     1       0.012   0.021  -0.002  0.00  0.00    -0.044 C 
BRANCH  15  16
ATOM     16  N   UNL     1       0.828  -0.289   1.180  0.00  0.00    +0.386 N 
ATOM     17  H   UNL     1       1.031  -1.277   1.198  0.00  0.00    -0.085 HD
ATOM     18  H   UNL     1       1.691   0.231   1.138  0.00  0.00    -0.085 HD
BRANCH  16  19
ATOM     19  C   UNL     1       0.091   0.082   2.395  0.00  0.00    -0.045 C 
BRANCH  19  20
ATOM     20  C   UNL     1       0.927  -0.236   3.607  0.00  0.00    -0.056 A 
ATOM     21  C   UNL     1       0.843  -1.476   4.212  0.00  0.00    +0.024 A 
ATOM     22  C   UNL     1       1.610  -1.729   5.301  0.00  0.00    +0.055 A 
ATOM     23  S   UNL     1       2.488  -0.188   5.501  0.00  0.00    -0.090 S 
ATOM     24  C   UNL     1       1.778   0.688   4.117  0.00  0.00    +0.048 A 
ATOM     25 BR   UNL     1       1.721  -3.306   6.339  0.00  0.00    -0.043 Br
ENDBRANCH  19  20
ENDBRANCH  16  19
ENDBRANCH  15  16
ENDBRANCH   1  15
TORSDOF 5
