REMARK  Name = ZINC19759782
REMARK  6 active torsions:
REMARK  status: ('A' for Active; 'I' for Inactive)
REMARK    1  A    between atoms: C_1  and  C_2
REMARK    2  A    between atoms: C_2  and  C_3
REMARK    3  A    between atoms: C_3  and  N_4
REMARK    4  A    between atoms: C_6  and  C_21
REMARK    5  A    between atoms: C_12  and  C_15
REMARK    6  A    between atoms: C_21  and  C_22
REMARK                            x       y       z     vdW  Elec       q    Type
REMARK                         _______ _______ _______ _____ _____    ______ ____
ROOT
ATOM      1  N   UNL     1      -1.294  -1.996   0.023  0.00  0.00    -0.324 N 
ATOM      2  C   UNL     1      -2.597  -2.647   0.199  0.00  0.00    +0.149 C 
ATOM      3  C   UNL     1      -2.375  -4.160   0.326  0.00  0.00    +0.190 C 
ATOM      4  O   UNL     1      -1.605  -4.393   1.510  0.00  0.00    -0.485 OA
ATOM      5  C   UNL     1      -0.527  -3.584   1.707  0.00  0.00    +0.142 A 
ATOM      6  C   UNL     1      -0.366  -2.405   0.987  0.00  0.00    +0.073 A 
ATOM      7  C   UNL     1       0.743  -1.602   1.221  0.00  0.00    +0.036 A 
ATOM      8  C   UNL     1       1.690  -1.978   2.169  0.00  0.00    +0.003 A 
ATOM      9  C   UNL     1       1.524  -3.163   2.884  0.00  0.00    +0.014 A 
ATOM     10  C   UNL     1       0.420  -3.957   2.651  0.00  0.00    +0.048 A 
ENDROOT
BRANCH   8  11
ATOM     11  C   UNL     1       2.875  -1.120   2.417  0.00  0.00    +0.080 A 
ATOM     12  C   UNL     1       3.859  -1.532   3.270  0.00  0.00    +0.076 A 
ATOM     13  S   UNL     1       4.984  -0.146   3.177  0.00  0.00    -0.060 S 
ATOM     14  C   UNL     1       4.038   0.835   2.021  0.00  0.00    +0.156 A 
ATOM     15  N   UNL     1       2.992   0.057   1.807  0.00  0.00    -0.225 NA
ATOM     16  N   UNL     1       4.327   2.080   1.486  0.00  0.00    -0.338 N 
ATOM     17  H   UNL     1       3.629   2.550   0.778  0.00  0.00    +0.144 HD
ATOM     18  H   UNL     1       5.255   2.598   1.769  0.00  0.00    +0.144 HD
ENDBRANCH   8  11
BRANCH   3  19
ATOM     19  C   UNL     1      -3.724  -4.874   0.437  0.00  0.00    +0.043 C 
ATOM     20  C   UNL     1      -3.501  -6.387   0.439  0.00  0.00    +0.007 C 
ENDBRANCH   3  19
BRANCH   1  21
ATOM     21  C   UNL     1      -1.433  -0.534   0.013  0.00  0.00    +0.105 C 
BRANCH  21  23
ATOM     22  C   UNL     1      -1.916   1.474   1.420  0.00  0.00    +0.005 C 
ATOM     23  C   UNL     1      -1.896  -0.056   1.391  0.00  0.00    +0.015 C 
ENDBRANCH  21  23
ENDBRANCH   1  21
TORSDOF 4
