REMARK  Name = ZINC43968986
REMARK  8 active torsions:
REMARK  status: ('A' for Active; 'I' for Inactive)
REMARK    1  A    between atoms: C_1  and  C_2
REMARK    2  A    between atoms: C_2  and  C_3
REMARK    3  A    between atoms: C_6  and  N_9
REMARK    4  A    between atoms: N_9  and  C_10
REMARK    5  A    between atoms: N_9  and  C_11
REMARK    6  A    between atoms: C_16  and  N_18
REMARK    7  A    between atoms: N_18  and  C_19
REMARK    8  A    between atoms: C_19  and  C_20
REMARK                            x       y       z     vdW  Elec       q    Type
REMARK                         _______ _______ _______ _____ _____    ______ ____
ROOT
ATOM      1  N   UNL     1      -2.688  -2.854  -2.296  0.00  0.00    +0.381 N 
ATOM      2  C   UNL     1      -3.378  -2.360  -3.495  0.00  0.00    -0.095 C 
ATOM      3  H   UNL     1      -3.216  -2.599  -1.474  0.00  0.00    -0.082 HD
ENDROOT
BRANCH   1   7
ATOM      4  C   UNL     1       0.680  -0.406  -3.244  0.00  0.00    -0.011 C 
ATOM      5  C   UNL     1       0.806  -1.918  -3.441  0.00  0.00    +0.002 C 
ATOM      6  C   UNL     1      -0.590  -2.541  -3.519  0.00  0.00    -0.015 C 
ATOM      7  C   UNL     1      -1.348  -2.257  -2.221  0.00  0.00    -0.069 C 
ATOM      8  C   UNL     1      -1.474  -0.745  -2.024  0.00  0.00    -0.015 C 
ATOM      9  C   UNL     1      -0.078  -0.122  -1.946  0.00  0.00    +0.002 C 
BRANCH   4  11
ATOM     10  C   UNL     1       0.735   0.025  -5.705  0.00  0.00    +0.004 C 
ATOM     11  C   UNL     1      -0.083   0.199  -4.424  0.00  0.00    -0.000 C 
ENDBRANCH   4  11
ENDBRANCH   1   7
BRANCH   1  12
ATOM     12  C   UNL     1      -2.568  -4.316  -2.366  0.00  0.00    -0.083 C 
ATOM     13  C   UNL     1      -1.892  -4.868  -1.087  0.00  0.00    -0.017 C 
ATOM     14  C   UNL     1      -2.387  -6.335  -1.044  0.00  0.00    -0.003 C 
ATOM     15  C   UNL     1      -3.849  -6.256  -1.528  0.00  0.00    -0.017 C 
ATOM     16  C   UNL     1      -3.965  -4.972  -2.373  0.00  0.00    -0.086 C 
BRANCH  16  17
ATOM     17  N   UNL     1      -4.358  -5.305  -3.748  0.00  0.00    +0.380 N 
ATOM     18  H   UNL     1      -4.305  -4.477  -4.323  0.00  0.00    -0.086 HD
ATOM     19  H   UNL     1      -3.736  -6.009  -4.115  0.00  0.00    -0.086 HD
BRANCH  17  20
ATOM     20  C   UNL     1      -5.735  -5.818  -3.754  0.00  0.00    -0.086 C 
ATOM     21  C   UNL     1      -6.145  -6.164  -5.186  0.00  0.00    -0.017 C 
ENDBRANCH  17  20
ENDBRANCH  16  17
ENDBRANCH   1  12
TORSDOF 5
