REMARK  Name = ZINC61271462
REMARK  6 active torsions:
REMARK  status: ('A' for Active; 'I' for Inactive)
REMARK    1  A    between atoms: C_1  and  N_2
REMARK    2  A    between atoms: N_5  and  C_8
REMARK    3  A    between atoms: C_8  and  C_9
REMARK    4  A    between atoms: C_9  and  N_10
REMARK    5  A    between atoms: C_11  and  C_13
REMARK    6  A    between atoms: C_13  and  N_14
REMARK                            x       y       z     vdW  Elec       q    Type
REMARK                         _______ _______ _______ _____ _____    ______ ____
ROOT
ATOM      1  N   UNL     1       2.456  -5.907   1.080  0.00  0.00    -0.316 N 
ATOM      2  C   UNL     1       3.220  -6.548   1.986  0.00  0.00    +0.196 C 
ATOM      3  O   UNL     1       3.845  -5.914   2.810  0.00  0.00    -0.278 OA
ATOM      4  H   UNL     1       1.956  -6.414   0.421  0.00  0.00    +0.149 HD
ENDROOT
BRANCH   1   5
ATOM      5  C   UNL     1       2.381  -4.444   1.088  0.00  0.00    +0.119 C 
BRANCH   5   6
ATOM      6  C   UNL     1       1.453  -3.974  -0.034  0.00  0.00    +0.103 C 
BRANCH   6  11
ATOM      7  C   UNL     1      -0.018   1.465   0.010  0.00  0.00    -0.096 C 
ATOM      8  N   UNL     1       0.002  -0.004   0.002  0.00  0.00    +0.379 N 
ATOM      9  C   UNL     1       0.688  -0.477  -1.207  0.00  0.00    -0.064 C 
ATOM     10  C   UNL     1       0.693  -2.008  -1.226  0.00  0.00    +0.066 C 
ATOM     11  N   UNL     1       1.378  -2.507  -0.025  0.00  0.00    -0.304 NA
ATOM     12  C   UNL     1       0.717  -2.021   1.194  0.00  0.00    +0.066 C 
ATOM     13  C   UNL     1       0.713  -0.490   1.192  0.00  0.00    -0.064 C 
ATOM     14  H   UNL     1      -0.945  -0.353   0.010  0.00  0.00    -0.082 HD
ENDBRANCH   6  11
ENDBRANCH   5   6
ENDBRANCH   1   5
BRANCH   2  15
ATOM     15  C   UNL     1       3.296  -8.053   1.978  0.00  0.00    +0.019 C 
BRANCH  15  16
ATOM     16  N   UNL     1       4.187  -8.504   3.055  0.00  0.00    +0.386 N 
ATOM     17  C   UNL     1       4.409  -9.959   2.914  0.00  0.00    -0.077 C 
ATOM     18  C   UNL     1       5.679 -10.329   3.638  0.00  0.00    -0.003 C 
ATOM     19  C   UNL     1       5.407 -10.781   5.083  0.00  0.00    +0.079 C 
ATOM     20  N   UNL     1       4.386  -9.942   5.751  0.00  0.00    -0.318 NA
ATOM     21  C   UNL     1       4.525  -8.530   5.474  0.00  0.00    +0.062 C 
ATOM     22  C   UNL     1       3.616  -8.163   4.286  0.00  0.00    -0.063 C 
ATOM     23  H   UNL     1       3.454 -10.264   5.532  0.00  0.00    +0.122 HD
ATOM     24  H   UNL     1       5.073  -8.030   2.965  0.00  0.00    -0.081 HD
ENDBRANCH  15  16
ENDBRANCH   2  15
TORSDOF 5
