REMARK  Name = ZINC40314147
REMARK  11 active torsions:
REMARK  status: ('A' for Active; 'I' for Inactive)
REMARK    1  A    between atoms: C_1  and  C_2
REMARK    2  A    between atoms: C_2  and  C_3
REMARK    3  A    between atoms: C_2  and  C_4
REMARK    4  A    between atoms: C_2  and  C_18
REMARK    5  A    between atoms: C_4  and  N_5
REMARK    6  A    between atoms: N_5  and  S_6
REMARK    7  A    between atoms: S_6  and  C_9
REMARK    8  A    between atoms: C_11  and  N_17
REMARK    9  A    between atoms: C_18  and  N_19
REMARK   10  A    between atoms: N_19  and  C_20
REMARK   11  A    between atoms: N_19  and  C_21
REMARK                            x       y       z     vdW  Elec       q    Type
REMARK                         _______ _______ _______ _____ _____    ______ ____
ROOT
ATOM      1  S   UNL     1      -3.861   1.253   0.627  0.00  0.00    +0.060 S 
ATOM      2  O   UNL     1      -4.123   2.258   1.598  0.00  0.00    -0.153 OA
ATOM      3  O   UNL     1      -4.301   1.361  -0.719  0.00  0.00    -0.153 OA
ENDROOT
BRANCH   1   4
ATOM      4  C   UNL     1      -4.537  -0.246   1.259  0.00  0.00    +0.125 A 
ATOM      5  C   UNL     1      -5.196  -0.248   2.474  0.00  0.00    +0.055 A 
ATOM      6  C   UNL     1      -5.729  -1.428   2.972  0.00  0.00    +0.062 A 
ATOM      7  C   UNL     1      -5.599  -2.607   2.246  0.00  0.00    +0.145 A 
ATOM      8  C   UNL     1      -4.939  -2.599   1.031  0.00  0.00    +0.062 A 
ATOM      9  C   UNL     1      -4.413  -1.418   0.536  0.00  0.00    +0.070 A 
ATOM     10 CL   UNL     1      -3.591  -1.410  -0.993  0.00  0.00    -0.081 Cl
ATOM     11  F   UNL     1      -6.117  -3.759   2.727  0.00  0.00    -0.204 F 
BRANCH   6  12
ATOM     12  N   UNL     1      -6.396  -1.433   4.202  0.00  0.00    -0.356 N 
ATOM     13  H   UNL     1      -6.486  -0.610   4.708  0.00  0.00    +0.142 HD
ATOM     14  H   UNL     1      -6.768  -2.258   4.549  0.00  0.00    +0.142 HD
ENDBRANCH   6  12
ENDBRANCH   1   4
BRANCH   1  15
ATOM     15  N   UNL     1      -2.217   1.065   0.575  0.00  0.00    -0.189 NA
ATOM     16  H   UNL     1      -1.647   1.612   1.138  0.00  0.00    +0.148 HD
BRANCH  15  17
ATOM     17  C   UNL     1      -1.622   0.071  -0.322  0.00  0.00    +0.110 C 
BRANCH  17  19
ATOM     18  C   UNL     1       0.088   1.744  -1.043  0.00  0.00    +0.010 C 
ATOM     19  C   UNL     1      -0.123   0.344  -0.464  0.00  0.00    -0.036 C 
ATOM     20  C   UNL     1       0.544   0.254   0.910  0.00  0.00    +0.010 C 
BRANCH  19  21
ATOM     21  C   UNL     1       0.498  -0.694  -1.401  0.00  0.00    -0.072 C 
BRANCH  21  22
ATOM     22  N   UNL     1       1.928  -0.404  -1.574  0.00  0.00    +0.376 N 
ATOM     23  C   UNL     1       2.689  -1.023  -0.480  0.00  0.00    -0.097 C 
ATOM     24  C   UNL     1       2.386  -0.949  -2.859  0.00  0.00    -0.097 C 
ATOM     25  H   UNL     1       2.072   0.594  -1.561  0.00  0.00    -0.083 HD
ENDBRANCH  21  22
ENDBRANCH  19  21
ENDBRANCH  17  19
ENDBRANCH  15  17
ENDBRANCH   1  15
TORSDOF 7
