REMARK  Name = ZINC39468540
REMARK  4 active torsions:
REMARK  status: ('A' for Active; 'I' for Inactive)
REMARK    1  A    between atoms: C_1  and  O_2
REMARK    2  A    between atoms: O_2  and  C_3
REMARK    3  A    between atoms: P_19  and  S_22
REMARK    4  A    between atoms: S_22  and  C_23
REMARK                            x       y       z     vdW  Elec       q    Type
REMARK                         _______ _______ _______ _____ _____    ______ ____
ROOT
ATOM      1  C   UNL     1       0.606  -0.607  -1.056  0.00  0.00    +0.134 C 
ATOM      2  C   UNL     1       1.154   0.131  -2.029  0.00  0.00    +0.022 C 
ATOM      3  C   UNL     1       1.825  -0.571  -3.177  0.00  0.00    +0.008 C 
ATOM      4  C   UNL     1       2.842   0.328  -3.870  0.00  0.00    -0.046 C 
ATOM      5  N   UNL     1       3.441  -0.385  -5.012  0.00  0.00    +0.398 N 
ATOM      6  C   UNL     1       4.126  -1.603  -4.582  0.00  0.00    -0.020 C 
ATOM      7  C   UNL     1       3.171  -2.541  -3.830  0.00  0.00    -0.003 C 
ATOM      8  C   UNL     1       2.569  -1.800  -2.640  0.00  0.00    +0.017 C 
ATOM      9  C   UNL     1       1.597  -2.666  -1.886  0.00  0.00    +0.000 C 
ATOM     10  C   UNL     1       0.666  -2.081  -1.135  0.00  0.00    +0.079 C 
ATOM     11 CL   UNL     1      -0.477  -3.049  -0.258  0.00  0.00    -0.080 Cl
ATOM     12  C   UNL     1       4.664  -2.397  -5.779  0.00  0.00    +0.157 C 
ATOM     13  O   UNL     1       5.630  -1.598  -6.486  0.00  0.00    -0.312 OA
ATOM     14  P   UNL     1       5.206  -0.080  -6.890  0.00  0.00    +0.314 P 
ATOM     15  O   UNL     1       4.374  -0.088  -8.114  0.00  0.00    -0.262 OA
ATOM     16  N   UNL     1       4.335   0.492  -5.589  0.00  0.00    -0.283 NA
ATOM     17  H   UNL     1       4.435   1.398  -5.258  0.00  0.00    +0.112 HD
ATOM     18  H   UNL     1       2.721  -0.619  -5.678  0.00  0.00    -0.055 HD
ENDROOT
BRANCH   1  20
ATOM     19  C   UNL     1      -0.017   1.425   0.010  0.00  0.00    +0.277 C 
ATOM     20  O   UNL     1       0.002  -0.004   0.002  0.00  0.00    -0.494 OA
ENDBRANCH   1  20
BRANCH  14  21
ATOM     21  S   UNL     1       6.934   1.112  -7.186  0.00  0.00    -0.059 S 
ATOM     22  C   UNL     1       7.817   0.278  -8.533  0.00  0.00    +0.096 C 
ENDBRANCH  14  21
TORSDOF 2
