REMARK  Name = ZINC36827961
REMARK  2 active torsions:
REMARK  status: ('A' for Active; 'I' for Inactive)
REMARK    1  A    between atoms: C_4  and  N_16
REMARK    2  A    between atoms: C_5  and  C_7
REMARK                            x       y       z     vdW  Elec       q    Type
REMARK                         _______ _______ _______ _____ _____    ______ ____
ROOT
ATOM      1  C   UNL     1      -0.005   1.375   0.164  0.00  0.00    +0.001 A 
ATOM      2  C   UNL     1       1.169   2.090   0.002  0.00  0.00    +0.002 A 
ATOM      3  C   UNL     1       2.371   1.431  -0.168  0.00  0.00    +0.023 A 
ATOM      4  C   UNL     1       2.408   0.044  -0.177  0.00  0.00    +0.035 A 
ATOM      5  C   UNL     1       1.221  -0.684  -0.014  0.00  0.00    +0.040 A 
ATOM      6  C   UNL     1       0.014  -0.005   0.157  0.00  0.00    +0.013 A 
ENDROOT
BRANCH   5   7
ATOM      7  C   UNL     1       1.247  -2.160  -0.022  0.00  0.00    +0.171 A 
ATOM      8  N   UNL     1       2.077  -2.932   0.651  0.00  0.00    -0.127 NA
ATOM      9  N   UNL     1       1.822  -4.170   0.414  0.00  0.00    -0.108 NA
ATOM     10  C   UNL     1       0.808  -4.267  -0.432  0.00  0.00    +0.256 A 
ATOM     11  N   UNL     1       0.411  -2.984  -0.726  0.00  0.00    -0.267 N 
ATOM     12  C   UNL     1      -0.630  -2.768  -1.578  0.00  0.00    +0.098 A 
ATOM     13  C   UNL     1      -1.266  -3.834  -2.123  0.00  0.00    +0.038 A 
ATOM     14  C   UNL     1      -0.838  -5.130  -1.798  0.00  0.00    +0.116 A 
ATOM     15  N   UNL     1       0.173  -5.311  -0.981  0.00  0.00    -0.219 NA
ENDBRANCH   5   7
BRANCH   4  16
ATOM     16  N   UNL     1       3.621  -0.624  -0.350  0.00  0.00    -0.357 N 
ATOM     17  H   UNL     1       4.441  -0.118  -0.463  0.00  0.00    +0.142 HD
ATOM     18  H   UNL     1       3.644  -1.593  -0.356  0.00  0.00    +0.142 HD
ENDBRANCH   4  16
TORSDOF 2
