REMARK  Name = ZINC61072372
REMARK  11 active torsions:
REMARK  status: ('A' for Active; 'I' for Inactive)
REMARK    1  A    between atoms: C_1  and  C_2
REMARK    2  A    between atoms: C_2  and  C_3
REMARK    3  A    between atoms: C_2  and  N_14
REMARK    4  A    between atoms: C_9  and  O_12
REMARK    5  A    between atoms: O_12  and  C_13
REMARK    6  A    between atoms: N_17  and  C_18
REMARK    7  A    between atoms: C_18  and  C_19
REMARK    8  A    between atoms: C_19  and  C_20
REMARK    9  A    between atoms: C_19  and  N_25
REMARK   10  A    between atoms: N_25  and  C_26
REMARK   11  A    between atoms: N_25  and  C_27
REMARK                            x       y       z     vdW  Elec       q    Type
REMARK                         _______ _______ _______ _____ _____    ______ ____
ROOT
ATOM      1  N   UNL     1      -1.876   0.332  -0.462  0.00  0.00    -0.290 N 
ATOM      2  C   UNL     1      -2.515  -0.108  -1.563  0.00  0.00    +0.300 C 
ATOM      3  O   UNL     1      -2.034   0.085  -2.663  0.00  0.00    -0.253 OA
ATOM      4  N   UNL     1      -3.688  -0.761  -1.446  0.00  0.00    -0.301 N 
ATOM      5  H   UNL     1      -2.260   0.179   0.416  0.00  0.00    +0.151 HD
ATOM      6  H   UNL     1      -4.072  -0.915  -0.569  0.00  0.00    +0.150 HD
ENDROOT
BRANCH   1   8
ATOM      7  C   UNL     1      -0.868   2.527  -0.849  0.00  0.00    +0.036 C 
ATOM      8  C   UNL     1      -0.601   1.042  -0.590  0.00  0.00    +0.137 C 
BRANCH   8   9
ATOM      9  C   UNL     1       0.189   0.889   0.684  0.00  0.00    +0.126 A 
ATOM     10  C   UNL     1       1.514   0.694   0.747  0.00  0.00    +0.055 A 
ATOM     11  C   UNL     1       1.847   0.603   2.174  0.00  0.00    +0.024 A 
ATOM     12  C   UNL     1       3.029   0.409   2.889  0.00  0.00    +0.012 A 
ATOM     13  C   UNL     1       3.000   0.372   4.255  0.00  0.00    +0.004 A 
ATOM     14  C   UNL     1       1.802   0.526   4.937  0.00  0.00    +0.049 A 
ATOM     15  C   UNL     1       0.619   0.719   4.247  0.00  0.00    +0.163 A 
ATOM     16  C   UNL     1       0.629   0.760   2.854  0.00  0.00    +0.177 A 
ATOM     17  O   UNL     1      -0.331   0.934   1.923  0.00  0.00    -0.454 OA
BRANCH  15  18
ATOM     18  O   UNL     1      -0.550   0.869   4.926  0.00  0.00    -0.491 OA
ATOM     19  C   UNL     1      -0.484   0.816   6.352  0.00  0.00    +0.277 C 
ENDBRANCH  15  18
ENDBRANCH   8   9
ENDBRANCH   1   8
BRANCH   4  20
ATOM     20  C   UNL     1      -4.384  -1.240  -2.643  0.00  0.00    +0.098 C 
BRANCH  20  21
ATOM     21  C   UNL     1      -5.612  -2.052  -2.230  0.00  0.00    +0.016 C 
BRANCH  21  22
ATOM     22  C   UNL     1      -6.602  -1.149  -1.540  0.00  0.00    +0.093 A 
ATOM     23  C   UNL     1      -7.701  -0.613  -2.101  0.00  0.00    +0.043 A 
ATOM     24  C   UNL     1      -8.335   0.161  -1.101  0.00  0.00    +0.041 A 
ATOM     25  C   UNL     1      -7.586   0.051   0.010  0.00  0.00    +0.195 A 
ATOM     26  O   UNL     1      -6.541  -0.749  -0.260  0.00  0.00    -0.469 OA
ENDBRANCH  21  22
BRANCH  21  27
ATOM     27  N   UNL     1      -5.204  -3.123  -1.311  0.00  0.00    +0.384 N 
ATOM     28  C   UNL     1      -6.385  -3.898  -0.907  0.00  0.00    -0.096 C 
ATOM     29  C   UNL     1      -4.246  -4.009  -1.987  0.00  0.00    -0.096 C 
ATOM     30  H   UNL     1      -4.771  -2.720  -0.494  0.00  0.00    -0.082 HD
ENDBRANCH  21  27
ENDBRANCH  20  21
ENDBRANCH   4  20
TORSDOF 7
