REMARK  Name = ZINC04885057
REMARK  9 active torsions:
REMARK  status: ('A' for Active; 'I' for Inactive)
REMARK    1  A    between atoms: C_1  and  C_2
REMARK    2  A    between atoms: C_2  and  N_3
REMARK    3  A    between atoms: C_8  and  C_21
REMARK    4  A    between atoms: C_10  and  C_15
REMARK    5  A    between atoms: C_10  and  C_17
REMARK    6  A    between atoms: C_15  and  O_16
REMARK    7  A    between atoms: C_17  and  O_19
REMARK    8  A    between atoms: O_19  and  C_20
REMARK    9  A    between atoms: C_24  and  O_27
REMARK                            x       y       z     vdW  Elec       q    Type
REMARK                         _______ _______ _______ _____ _____    ______ ____
ROOT
ATOM      1  N   UNL     1      -0.749   3.044   1.275  0.00  0.00    -0.242 N 
ATOM      2  C   UNL     1       0.234   3.814   1.846  0.00  0.00    +0.224 C 
ATOM      3  O   UNL     1       1.324   3.450   2.230  0.00  0.00    -0.275 OA
ATOM      4  C   UNL     1      -0.306   5.146   1.891  0.00  0.00    +0.077 C 
ATOM      5  C   UNL     1       0.087   6.552   2.051  0.00  0.00    -0.027 C 
ATOM      6  C   UNL     1      -2.077   6.386   0.975  0.00  0.00    +0.067 C 
ATOM      7  C   UNL     1      -1.222   5.185   0.613  0.00  0.00    +0.088 C 
ATOM      8  C   UNL     1      -1.750   3.790   0.719  0.00  0.00    +0.225 C 
ATOM      9  O   UNL     1      -2.846   3.400   0.382  0.00  0.00    -0.275 OA
ATOM     10  N   UNL     1      -1.196   7.274   1.779  0.00  0.00    +0.397 N 
ATOM     11  H   UNL     1      -1.004   8.136   1.257  0.00  0.00    -0.083 HD
ATOM     12  H   UNL     1      -1.656   7.506   2.667  0.00  0.00    -0.083 HD
ENDROOT
BRANCH   5  13
ATOM     13  C   UNL     1       0.573   6.820   3.452  0.00  0.00    -0.060 A 
ATOM     14  C   UNL     1      -0.334   6.911   4.491  0.00  0.00    +0.005 A 
ATOM     15  C   UNL     1       0.109   7.151   5.777  0.00  0.00    +0.045 A 
ATOM     16  C   UNL     1       1.465   7.312   6.024  0.00  0.00    +0.117 A 
ATOM     17  C   UNL     1       2.373   7.226   4.978  0.00  0.00    +0.045 A 
ATOM     18  C   UNL     1       1.925   6.980   3.695  0.00  0.00    +0.005 A 
BRANCH  16  19
ATOM     19  O   UNL     1       1.903   7.555   7.287  0.00  0.00    -0.507 OA
ATOM     20  H   UNL     1       1.952   8.494   7.513  0.00  0.00    +0.292 HD
ENDBRANCH  16  19
ENDBRANCH   5  13
BRANCH   1  22
ATOM     21  C   UNL     1      -0.013   1.086   0.008  0.00  0.00    +0.025 C 
ATOM     22  C   UNL     1      -0.729   1.579   1.267  0.00  0.00    +0.113 C 
ENDBRANCH   1  22
BRANCH   6  23
ATOM     23  C   UNL     1      -2.534   7.094  -0.275  0.00  0.00    +0.299 C 
ATOM     24  O   UNL     1      -2.616   6.488  -1.317  0.00  0.00    -0.252 OA
BRANCH  23  25
ATOM     25  O   UNL     1      -2.851   8.398  -0.230  0.00  0.00    -0.469 OA
ATOM     26  C   UNL     1      -3.284   9.014  -1.471  0.00  0.00    +0.280 C 
ENDBRANCH  23  25
ENDBRANCH   6  23
BRANCH   6  27
ATOM     27  C   UNL     1      -3.284   5.944   1.804  0.00  0.00    +0.155 C 
BRANCH  27  28
ATOM     28  O   UNL     1      -4.078   7.085   2.136  0.00  0.00    -0.396 OA
ATOM     29  H   UNL     1      -4.863   6.879   2.662  0.00  0.00    +0.209 HD
ENDBRANCH  27  28
ENDBRANCH   6  27
TORSDOF 7
