REMARK  Name = ZINC54038080
REMARK  11 active torsions:
REMARK  status: ('A' for Active; 'I' for Inactive)
REMARK    1  A    between atoms: C_1  and  C_2
REMARK    2  A    between atoms: C_2  and  C_4
REMARK    3  A    between atoms: C_2  and  O_22
REMARK    4  A    between atoms: N_6  and  N_7
REMARK    5  A    between atoms: N_10  and  C_11
REMARK    6  A    between atoms: C_11  and  C_12
REMARK    7  A    between atoms: C_12  and  C_14
REMARK    8  A    between atoms: C_12  and  N_19
REMARK    9  A    between atoms: N_19  and  C_20
REMARK   10  A    between atoms: N_19  and  C_21
REMARK   11  A    between atoms: O_22  and  C_23
REMARK                            x       y       z     vdW  Elec       q    Type
REMARK                         _______ _______ _______ _____ _____    ______ ____
ROOT
ATOM      1  N   UNL     1      -3.814  -0.542  -0.822  0.00  0.00    -0.218 N 
ATOM      2  C   UNL     1      -4.510  -0.244  -1.937  0.00  0.00    +0.316 C 
ATOM      3  O   UNL     1      -5.689  -0.532  -2.013  0.00  0.00    -0.251 OA
ATOM      4  N   UNL     1      -3.899   0.372  -2.968  0.00  0.00    -0.299 N 
ATOM      5  H   UNL     1      -4.254  -0.986  -0.080  0.00  0.00    +0.174 HD
ATOM      6  H   UNL     1      -2.959   0.602  -2.908  0.00  0.00    +0.150 HD
ENDROOT
BRANCH   1   9
ATOM      7  C   UNL     1      -1.760  -0.509   0.380  0.00  0.00    +0.270 C 
ATOM      8  O   UNL     1      -2.309  -1.063   1.308  0.00  0.00    -0.270 OA
ATOM      9  N   UNL     1      -2.455  -0.211  -0.735  0.00  0.00    -0.230 N 
ATOM     10  H   UNL     1      -2.016   0.233  -1.477  0.00  0.00    +0.173 HD
BRANCH   7  12
ATOM     11  C   UNL     1      -0.142   1.370   0.453  0.00  0.00    +0.062 C 
ATOM     12  C   UNL     1      -0.298  -0.152   0.474  0.00  0.00    +0.257 C 
BRANCH  12  13
ATOM     13  O   UNL     1       0.241  -0.670   1.692  0.00  0.00    -0.480 OA
BRANCH  13  14
ATOM     14  C   UNL     1       1.556  -1.013   1.688  0.00  0.00    +0.122 A 
ATOM     15  C   UNL     1       2.130  -1.579   2.817  0.00  0.00    +0.048 A 
ATOM     16  C   UNL     1       3.466  -1.928   2.812  0.00  0.00    +0.042 A 
ATOM     17  C   UNL     1       4.234  -1.713   1.679  0.00  0.00    +0.124 A 
ATOM     18  C   UNL     1       3.663  -1.148   0.552  0.00  0.00    +0.042 A 
ATOM     19  C   UNL     1       2.325  -0.804   0.552  0.00  0.00    +0.048 A 
ATOM     20  F   UNL     1       5.541  -2.054   1.675  0.00  0.00    -0.205 F 
ENDBRANCH  13  14
ENDBRANCH  12  13
ENDBRANCH   7  12
ENDBRANCH   1   9
BRANCH   4  21
ATOM     21  C   UNL     1      -4.656   0.696  -4.180  0.00  0.00    +0.098 C 
BRANCH  21  22
ATOM     22  C   UNL     1      -3.710   1.284  -5.230  0.00  0.00    +0.016 C 
BRANCH  22  23
ATOM     23  C   UNL     1      -2.687   0.248  -5.620  0.00  0.00    +0.093 A 
ATOM     24  C   UNL     1      -2.722  -0.514  -6.728  0.00  0.00    +0.043 A 
ATOM     25  C   UNL     1      -1.574  -1.339  -6.693  0.00  0.00    +0.041 A 
ATOM     26  C   UNL     1      -0.907  -1.032  -5.566  0.00  0.00    +0.195 A 
ATOM     27  O   UNL     1      -1.583  -0.066  -4.923  0.00  0.00    -0.469 OA
ENDBRANCH  22  23
BRANCH  22  28
ATOM     28  N   UNL     1      -3.029   2.459  -4.672  0.00  0.00    +0.384 N 
ATOM     29  C   UNL     1      -2.071   2.983  -5.655  0.00  0.00    -0.096 C 
ATOM     30  C   UNL     1      -4.021   3.495  -4.355  0.00  0.00    -0.096 C 
ATOM     31  H   UNL     1      -2.538   2.196  -3.831  0.00  0.00    -0.082 HD
ENDBRANCH  22  28
ENDBRANCH  21  22
ENDBRANCH   4  21
TORSDOF 8
