REMARK  Name = ZINC39535098
REMARK  10 active torsions:
REMARK  status: ('A' for Active; 'I' for Inactive)
REMARK    1  A    between atoms: C_1  and  C_2
REMARK    2  A    between atoms: C_2  and  C_3
REMARK    3  A    between atoms: C_2  and  C_4
REMARK    4  A    between atoms: C_2  and  C_5
REMARK    5  A    between atoms: C_10  and  N_11
REMARK    6  A    between atoms: C_12  and  C_14
REMARK    7  A    between atoms: C_14  and  S_15
REMARK    8  A    between atoms: S_15  and  C_16
REMARK    9  A    between atoms: C_19  and  C_22
REMARK   10  A    between atoms: N_20  and  N_21
REMARK                            x       y       z     vdW  Elec       q    Type
REMARK                         _______ _______ _______ _____ _____    ______ ____
ROOT
ATOM      1  C   UNL     1      -0.542  -5.034  -0.271  0.00  0.00    +0.173 C 
ENDROOT
BRANCH   1   3
ATOM      2  N   UNL     1       0.187  -2.720  -0.756  0.00  0.00    -0.285 N 
ATOM      3  C   UNL     1       0.165  -4.016  -1.128  0.00  0.00    +0.227 C 
ATOM      4  O   UNL     1       0.714  -4.362  -2.153  0.00  0.00    -0.275 OA
ATOM      5  H   UNL     1      -0.218  -2.450   0.083  0.00  0.00    +0.155 HD
BRANCH   2  11
ATOM      6  C   UNL     1       0.408  -0.434  -1.501  0.00  0.00    -0.021 A 
ATOM      7  C   UNL     1       1.011   0.507  -2.312  0.00  0.00    +0.006 A 
ATOM      8  C   UNL     1       1.993   0.123  -3.207  0.00  0.00    +0.000 A 
ATOM      9  C   UNL     1       2.374  -1.204  -3.292  0.00  0.00    +0.002 A 
ATOM     10  C   UNL     1       1.775  -2.149  -2.484  0.00  0.00    +0.023 A 
ATOM     11  C   UNL     1       0.792  -1.766  -1.581  0.00  0.00    +0.037 A 
BRANCH   6  13
ATOM     12  C   UNL     1      -1.018   1.455  -0.760  0.00  0.00    +0.015 C 
ATOM     13  C   UNL     1      -0.662  -0.014  -0.526  0.00  0.00    -0.011 C 
ATOM     14  C   UNL     1      -0.148  -0.193   0.904  0.00  0.00    +0.015 C 
ATOM     15  C   UNL     1      -1.907  -0.879  -0.732  0.00  0.00    +0.015 C 
ENDBRANCH   6  13
ENDBRANCH   2  11
ENDBRANCH   1   3
BRANCH   1  16
ATOM     16  S   UNL     1      -0.394  -6.673  -1.034  0.00  0.00    -0.075 S 
BRANCH  16  17
ATOM     17  C   UNL     1      -1.259  -7.738   0.072  0.00  0.00    +0.209 A 
ATOM     18  N   UNL     1      -1.864  -7.382   1.182  0.00  0.00    -0.121 NA
ATOM     19  N   UNL     1      -2.394  -8.408   1.746  0.00  0.00    -0.126 NA
ATOM     20  C   UNL     1      -2.160  -9.485   1.029  0.00  0.00    +0.188 A 
ATOM     21  N   UNL     1      -1.430  -9.087  -0.069  0.00  0.00    -0.223 N 
BRANCH  20  22
ATOM     22  C   UNL     1      -2.599 -10.855   1.339  0.00  0.00    +0.058 A 
ATOM     23  C   UNL     1      -3.551 -11.277   2.233  0.00  0.00    +0.019 A 
ATOM     24  C   UNL     1      -3.794 -12.626   2.351  0.00  0.00    +0.008 A 
ATOM     25  C   UNL     1      -3.089 -13.496   1.583  0.00  0.00    +0.046 A 
ATOM     26  S   UNL     1      -2.039 -12.401   0.643  0.00  0.00    -0.093 S 
ENDBRANCH  20  22
BRANCH  21  27
ATOM     27  N   UNL     1      -0.970  -9.876  -1.085  0.00  0.00    -0.295 N 
ATOM     28  H   UNL     1      -0.051 -10.236  -0.875  0.00  0.00    +0.163 HD
ATOM     29  H   UNL     1      -1.616 -10.626  -1.281  0.00  0.00    +0.163 HD
ENDBRANCH  21  27
ENDBRANCH  16  17
ENDBRANCH   1  16
TORSDOF 7
