REMARK  Name = ZINC26580632
REMARK  8 active torsions:
REMARK  status: ('A' for Active; 'I' for Inactive)
REMARK    1  A    between atoms: C_1  and  C_2
REMARK    2  A    between atoms: C_2  and  C_3
REMARK    3  A    between atoms: C_3  and  C_4
REMARK    4  A    between atoms: C_4  and  N_5
REMARK    5  A    between atoms: C_11  and  C_19
REMARK    6  A    between atoms: C_15  and  C_17
REMARK    7  A    between atoms: C_17  and  C_18
REMARK    8  A    between atoms: C_22  and  O_25
REMARK                            x       y       z     vdW  Elec       q    Type
REMARK                         _______ _______ _______ _____ _____    ______ ____
ROOT
ATOM      1  N   UNL     1      -1.372  -0.511   0.012  0.00  0.00    -0.220 N 
ATOM      2  C   UNL     1      -2.002  -0.733  -1.160  0.00  0.00    +0.261 C 
ATOM      3  O   UNL     1      -1.444  -0.517  -2.219  0.00  0.00    -0.269 OA
ATOM      4  C   UNL     1      -3.384  -1.244  -1.123  0.00  0.00    +0.119 C 
ATOM      5  C   UNL     1      -4.092  -1.494  -2.283  0.00  0.00    +0.041 C 
ATOM      6  C   UNL     1      -5.507  -2.022  -2.354  0.00  0.00    +0.082 C 
ATOM      7  C   UNL     1      -5.804  -2.112  -3.862  0.00  0.00    +0.132 C 
ATOM      8  N   UNL     1      -4.569  -1.650  -4.509  0.00  0.00    -0.215 N 
ATOM      9  N   UNL     1      -3.635  -1.314  -3.531  0.00  0.00    -0.264 N 
ATOM     10  C   UNL     1      -4.369  -1.565  -5.839  0.00  0.00    +0.232 C 
ATOM     11  O   UNL     1      -5.253  -1.884  -6.606  0.00  0.00    -0.274 OA
ATOM     12  C   UNL     1      -3.978  -1.475   0.206  0.00  0.00    +0.278 C 
ATOM     13  O   UNL     1      -5.114  -1.896   0.317  0.00  0.00    -0.268 OA
ATOM     14  N   UNL     1      -3.228  -1.208   1.295  0.00  0.00    -0.123 NA
ATOM     15  C   UNL     1      -1.974  -0.749   1.187  0.00  0.00    +0.335 C 
ATOM     16  O   UNL     1      -1.349  -0.533   2.207  0.00  0.00    -0.250 OA
ATOM     17  H   UNL     1      -2.641  -0.944  -3.823  0.00  0.00    +0.170 HD
ENDROOT
BRANCH   7  18
ATOM     18  C   UNL     1      -6.958  -1.215  -4.230  0.00  0.00    -0.025 A 
ATOM     19  C   UNL     1      -6.766   0.151  -4.327  0.00  0.00    +0.009 A 
ATOM     20  C   UNL     1      -7.821   0.975  -4.670  0.00  0.00    +0.046 A 
ATOM     21  C   UNL     1      -9.075   0.432  -4.905  0.00  0.00    +0.117 A 
ATOM     22  C   UNL     1      -9.267  -0.938  -4.802  0.00  0.00    +0.046 A 
ATOM     23  C   UNL     1      -8.207  -1.758  -4.465  0.00  0.00    +0.009 A 
BRANCH  21  24
ATOM     24  O   UNL     1     -10.116   1.242  -5.236  0.00  0.00    -0.507 OA
ATOM     25  H   UNL     1     -11.111   0.810  -5.422  0.00  0.00    +0.292 HD
ENDBRANCH  21  24
ENDBRANCH   7  18
BRANCH  10  26
ATOM     26  C   UNL     1      -3.049  -1.072  -6.373  0.00  0.00    +0.094 C 
ATOM     27  C   UNL     1      -3.086  -1.072  -7.903  0.00  0.00    +0.013 C 
ENDBRANCH  10  26
BRANCH   1  28
ATOM     28  C   UNL     1       0.002  -0.004   0.002  0.00  0.00    +0.118 C 
BRANCH  28  29
ATOM     29  C   UNL     1      -0.019   1.526   0.010  0.00  0.00    +0.019 C 
BRANCH  29  31
ATOM     30  C   UNL     1       1.396   3.585   0.008  0.00  0.00    +0.004 C 
ATOM     31  C   UNL     1       1.417   2.055  -0.000  0.00  0.00    -0.002 C 
ENDBRANCH  29  31
ENDBRANCH  28  29
ENDBRANCH   1  28
TORSDOF 6
