REMARK  Name = ZINC54727371
REMARK  8 active torsions:
REMARK  status: ('A' for Active; 'I' for Inactive)
REMARK    1  A    between atoms: C_1  and  C_2
REMARK    2  A    between atoms: C_5  and  C_25
REMARK    3  A    between atoms: N_8  and  C_10
REMARK    4  A    between atoms: C_10  and  C_11
REMARK    5  A    between atoms: C_10  and  C_12
REMARK    6  A    between atoms: C_10  and  C_13
REMARK    7  A    between atoms: C_13  and  N_14
REMARK    8  A    between atoms: N_17  and  N_18
REMARK                            x       y       z     vdW  Elec       q    Type
REMARK                         _______ _______ _______ _____ _____    ______ ____
ROOT
ATOM      1  N   UNL     1       3.474  -2.390   0.904  0.00  0.00    -0.300 N 
ATOM      2  C   UNL     1       4.768  -2.196   0.578  0.00  0.00    +0.316 C 
ATOM      3  O   UNL     1       5.535  -1.721   1.393  0.00  0.00    -0.251 OA
ATOM      4  N   UNL     1       5.210  -2.529  -0.651  0.00  0.00    -0.218 N 
ATOM      5  H   UNL     1       2.862  -2.769   0.254  0.00  0.00    +0.150 HD
ATOM      6  H   UNL     1       6.141  -2.389  -0.885  0.00  0.00    +0.174 HD
ENDROOT
BRANCH   4   7
ATOM      7  N   UNL     1       4.326  -3.076  -1.589  0.00  0.00    -0.231 N 
ATOM      8  C   UNL     1       4.781  -3.418  -2.851  0.00  0.00    +0.232 A 
ATOM      9  N   UNL     1       6.056  -3.225  -3.153  0.00  0.00    -0.222 NA
ATOM     10  C   UNL     1       6.523  -3.541  -4.350  0.00  0.00    +0.116 A 
ATOM     11  C   UNL     1       5.660  -4.079  -5.292  0.00  0.00    +0.039 A 
ATOM     12  C   UNL     1       4.332  -4.266  -4.943  0.00  0.00    +0.116 A 
ATOM     13  N   UNL     1       3.931  -3.934  -3.727  0.00  0.00    -0.222 NA
ATOM     14  H   UNL     1       3.395  -3.216  -1.355  0.00  0.00    +0.173 HD
ENDBRANCH   4   7
BRANCH   1  15
ATOM     15  C   UNL     1       2.993  -2.028   2.239  0.00  0.00    +0.093 C 
BRANCH  15  16
ATOM     16  C   UNL     1       1.478  -2.227   2.306  0.00  0.00    -0.055 C 
ATOM     17  C   UNL     1       0.963  -1.768   3.672  0.00  0.00    -0.008 C 
ATOM     18  C   UNL     1       1.148  -3.707   2.108  0.00  0.00    -0.008 C 
BRANCH  16  24
ATOM     19  C   UNL     1       0.932   2.275   0.461  0.00  0.00    +0.005 C 
ATOM     20  C   UNL     1       0.574   0.798   0.277  0.00  0.00    -0.031 C 
ATOM     21  C   UNL     1      -0.949   0.636   0.287  0.00  0.00    +0.003 C 
ATOM     22  C   UNL     1      -1.294  -0.852   0.182  0.00  0.00    -0.031 C 
ATOM     23  C   UNL     1      -0.623  -1.609   1.330  0.00  0.00    -0.075 C 
ATOM     24  N   UNL     1       0.833  -1.436   1.250  0.00  0.00    +0.384 N 
ATOM     25  C   UNL     1       1.177  -0.019   1.421  0.00  0.00    -0.075 C 
ATOM     26  C   UNL     1      -2.811  -1.032   0.269  0.00  0.00    +0.005 C 
ATOM     27  H   UNL     1       1.159  -1.753   0.349  0.00  0.00    -0.081 HD
ENDBRANCH  16  24
ENDBRANCH  15  16
ENDBRANCH   1  15
TORSDOF 4
