REMARK  Name = ZINC62237720
REMARK  8 active torsions:
REMARK  status: ('A' for Active; 'I' for Inactive)
REMARK    1  A    between atoms: C_1  and  C_2
REMARK    2  A    between atoms: C_2  and  C_3
REMARK    3  A    between atoms: C_3  and  C_4
REMARK    4  A    between atoms: C_3  and  C_6
REMARK    5  A    between atoms: C_4  and  C_5
REMARK    6  A    between atoms: C_7  and  C_19
REMARK    7  A    between atoms: N_10  and  C_11
REMARK    8  A    between atoms: C_19  and  N_20
REMARK                            x       y       z     vdW  Elec       q    Type
REMARK                         _______ _______ _______ _____ _____    ______ ____
ROOT
ATOM      1  C   UNL     1       0.899  -1.712  -0.866  0.00  0.00    +0.069 A 
ATOM      2  C   UNL     1       0.401  -2.586  -1.771  0.00  0.00    +0.069 A 
ATOM      3  N   UNL     1       1.137  -3.699  -1.671  0.00  0.00    -0.136 NA
ATOM      4  N   UNL     1       2.033  -3.529  -0.764  0.00  0.00    -0.060 NA
ATOM      5  N   UNL     1       1.935  -2.350  -0.257  0.00  0.00    -0.216 N 
ENDROOT
BRANCH   5   6
ATOM      6  C   UNL     1       2.751  -1.818   0.752  0.00  0.00    +0.070 A 
ATOM      7  C   UNL     1       3.217  -0.514   0.653  0.00  0.00    +0.048 A 
ATOM      8  C   UNL     1       4.021   0.009   1.649  0.00  0.00    +0.044 A 
ATOM      9  C   UNL     1       4.362  -0.767   2.743  0.00  0.00    +0.040 A 
ATOM     10  C   UNL     1       3.900  -2.067   2.843  0.00  0.00    +0.044 A 
ATOM     11  C   UNL     1       3.090  -2.592   1.853  0.00  0.00    +0.048 A 
ATOM     12 CL   UNL     1       4.330  -3.037   4.217  0.00  0.00    -0.083 Cl
ATOM     13 CL   UNL     1       4.604   1.639   1.526  0.00  0.00    -0.083 Cl
ENDBRANCH   5   6
BRANCH   1  14
ATOM     14  C   UNL     1       0.410  -0.313  -0.594  0.00  0.00    +0.039 C 
BRANCH  14  16
ATOM     15  C   UNL     1       0.028   1.940  -1.604  0.00  0.00    +0.004 C 
ATOM     16  C   UNL     1       0.380   0.481  -1.901  0.00  0.00    +0.006 C 
ENDBRANCH  14  16
BRANCH  14  17
ATOM     17  C   UNL     1      -0.999  -0.371  -0.000  0.00  0.00    +0.006 C 
ATOM     18  C   UNL     1      -0.947  -1.048   1.371  0.00  0.00    +0.004 C 
ENDBRANCH  14  17
ENDBRANCH   1  14
BRANCH   2  19
ATOM     19  C   UNL     1      -0.757  -2.353  -2.708  0.00  0.00    -0.026 C 
BRANCH  19  20
ATOM     20  N   UNL     1      -0.248  -1.928  -4.019  0.00  0.00    +0.382 N 
ATOM     21  H   UNL     1       0.352  -1.125  -3.903  0.00  0.00    -0.090 HD
ATOM     22  H   UNL     1       0.276  -2.682  -4.436  0.00  0.00    -0.090 HD
ATOM     23  H   UNL     1      -1.023  -1.685  -4.617  0.00  0.00    -0.090 HD
ENDBRANCH  19  20
ENDBRANCH   2  19
TORSDOF 6
