REMARK  Name = ZINC20681587
REMARK  7 active torsions:
REMARK  status: ('A' for Active; 'I' for Inactive)
REMARK    1  A    between atoms: C_1  and  C_2
REMARK    2  A    between atoms: C_2  and  O_3
REMARK    3  A    between atoms: O_3  and  C_4
REMARK    4  A    between atoms: C_4  and  C_6
REMARK    5  A    between atoms: C_19  and  C_22
REMARK    6  A    between atoms: C_25  and  O_29
REMARK    7  A    between atoms: C_27  and  O_28
REMARK                            x       y       z     vdW  Elec       q    Type
REMARK                         _______ _______ _______ _____ _____    ______ ____
ROOT
ATOM      1  C   UNL     1      -1.234   1.757   0.018  0.00  0.00    +0.059 A 
ATOM      2  C   UNL     1      -0.013   1.076   0.008  0.00  0.00    +0.017 A 
ATOM      3  C   UNL     1       1.160   1.772   0.001  0.00  0.00    +0.024 A 
ATOM      4  C   UNL     1       1.159   3.166   0.003  0.00  0.00    +0.031 A 
ATOM      5  C   UNL     1      -0.064   3.853   0.009  0.00  0.00    -0.019 A 
ATOM      6  C   UNL     1      -1.246   3.155   0.024  0.00  0.00    +0.021 A 
ATOM      7  C   UNL     1      -0.016   5.332  -0.012  0.00  0.00    +0.049 C 
ATOM      8  C   UNL     1      -1.113   6.161   0.548  0.00  0.00    -0.023 C 
ATOM      9  C   UNL     1      -0.595   7.290   1.017  0.00  0.00    -0.030 C 
ATOM     10  C   UNL     1       0.924   7.284   0.832  0.00  0.00    +0.033 C 
ATOM     11  C   UNL     1       1.227   5.780   0.814  0.00  0.00    +0.029 C 
ATOM     12  C   UNL     1       2.431   5.323   0.011  0.00  0.00    +0.108 C 
ATOM     13  N   UNL     1       2.376   3.845   0.014  0.00  0.00    -0.336 N 
ATOM     14  H   UNL     1       3.308   3.260   0.025  0.00  0.00    +0.147 HD
ENDROOT
BRANCH  12  15
ATOM     15  C   UNL     1       3.705   5.798   0.662  0.00  0.00    +0.015 A 
ATOM     16  C   UNL     1       4.402   4.957   1.509  0.00  0.00    +0.012 A 
ATOM     17  C   UNL     1       5.572   5.388   2.104  0.00  0.00    +0.046 A 
ATOM     18  C   UNL     1       6.045   6.670   1.860  0.00  0.00    +0.120 A 
ATOM     19  C   UNL     1       5.345   7.516   1.014  0.00  0.00    +0.091 A 
ATOM     20  C   UNL     1       4.174   7.080   0.415  0.00  0.00    +0.125 A 
BRANCH  20  21
ATOM     21  O   UNL     1       3.485   7.908  -0.414  0.00  0.00    -0.506 OA
ATOM     22  H   UNL     1       3.857   8.925  -0.610  0.00  0.00    +0.292 HD
ENDBRANCH  20  21
BRANCH  18  23
ATOM     23  O   UNL     1       7.194   7.094   2.449  0.00  0.00    -0.507 OA
ATOM     24  H   UNL     1       7.569   8.110   2.255  0.00  0.00    +0.292 HD
ENDBRANCH  18  23
ENDBRANCH  12  15
BRANCH   1  25
ATOM     25  C   UNL     1      -2.502   1.006   0.026  0.00  0.00    +0.339 C 
ATOM     26  O   UNL     1      -3.561   1.601   0.034  0.00  0.00    -0.245 OA
BRANCH  25  27
ATOM     27  O   UNL     1      -2.486  -0.342   0.024  0.00  0.00    -0.461 OA
BRANCH  27  29
ATOM     28  C   UNL     1      -3.554  -2.531   0.029  0.00  0.00    +0.048 C 
ATOM     29  C   UNL     1      -3.772  -1.016   0.033  0.00  0.00    +0.229 C 
ENDBRANCH  27  29
ENDBRANCH  25  27
ENDBRANCH   1  25
TORSDOF 6
