REMARK  Name = ZINC14927577
REMARK  9 active torsions:
REMARK  status: ('A' for Active; 'I' for Inactive)
REMARK    1  A    between atoms: C_1  and  C_2
REMARK    2  A    between atoms: N_10  and  N_14
REMARK    3  A    between atoms: C_15  and  C_17
REMARK    4  A    between atoms: C_17  and  N_18
REMARK    5  A    between atoms: N_18  and  C_19
REMARK    6  A    between atoms: N_18  and  C_23
REMARK    7  A    between atoms: C_19  and  C_20
REMARK    8  A    between atoms: C_23  and  C_24
REMARK    9  A    between atoms: C_23  and  C_25
REMARK                            x       y       z     vdW  Elec       q    Type
REMARK                         _______ _______ _______ _____ _____    ______ ____
ROOT
ATOM      1  N   UNL     1       3.048  -4.990  -0.581  0.00  0.00    -0.225 N 
ATOM      2  C   UNL     1       3.616  -5.751  -1.537  0.00  0.00    +0.213 C 
ATOM      3  O   UNL     1       3.656  -5.356  -2.683  0.00  0.00    -0.276 OA
ATOM      4  H   UNL     1       3.016  -5.306   0.335  0.00  0.00    +0.173 HD
ENDROOT
BRANCH   1  14
ATOM      5  C   UNL     1      -0.537   1.849  -2.399  0.00  0.00    +0.007 C 
ATOM      6  C   UNL     1      -0.459   0.368  -2.023  0.00  0.00    -0.014 C 
ATOM      7  C   UNL     1       0.317  -0.391  -3.101  0.00  0.00    +0.006 C 
ATOM      8  C   UNL     1       0.385  -1.875  -2.730  0.00  0.00    +0.035 C 
ATOM      9  C   UNL     1       1.073  -2.031  -1.379  0.00  0.00    +0.114 C 
ATOM     10  C   UNL     1       0.322  -1.262  -0.298  0.00  0.00    +0.035 C 
ATOM     11  C   UNL     1       0.255   0.220  -0.678  0.00  0.00    +0.006 C 
ATOM     12  C   UNL     1       1.182  -3.492  -1.008  0.00  0.00    +0.263 C 
ATOM     13  O   UNL     1       0.273  -4.275  -0.834  0.00  0.00    -0.271 OA
ATOM     14  N   UNL     1       2.505  -3.741  -0.911  0.00  0.00    -0.137 N 
ATOM     15  C   UNL     1       3.233  -2.648  -1.168  0.00  0.00    +0.326 C 
ATOM     16  O   UNL     1       4.448  -2.623  -1.142  0.00  0.00    -0.251 OA
ATOM     17  N   UNL     1       2.468  -1.578  -1.457  0.00  0.00    -0.284 N 
ATOM     18  H   UNL     1       2.777  -0.685  -1.675  0.00  0.00    +0.151 HD
ENDBRANCH   1  14
BRANCH   2  19
ATOM     19  C   UNL     1       4.201  -7.094  -1.183  0.00  0.00    +0.021 C 
BRANCH  19  20
ATOM     20  N   UNL     1       4.660  -7.767  -2.406  0.00  0.00    +0.393 N 
ATOM     21  H   UNL     1       5.280  -7.155  -2.914  0.00  0.00    -0.080 HD
BRANCH  20  22
ATOM     22  C   UNL     1       3.501  -8.097  -3.247  0.00  0.00    -0.074 C 
ATOM     23  C   UNL     1       3.986  -8.666  -4.582  0.00  0.00    -0.013 C 
ATOM     24  C   UNL     1       2.634  -9.137  -2.534  0.00  0.00    -0.013 C 
ENDBRANCH  20  22
BRANCH  20  25
ATOM     25  C   UNL     1       5.373  -9.000  -2.048  0.00  0.00    +0.019 C 
BRANCH  25  26
ATOM     26  C   UNL     1       6.262  -9.416  -3.192  0.00  0.00    +0.194 C 
ATOM     27  O   UNL     1       6.403  -8.683  -4.147  0.00  0.00    -0.278 OA
ATOM     28  N   UNL     1       6.901 -10.602  -3.152  0.00  0.00    -0.331 N 
ATOM     29  H   UNL     1       6.788 -11.188  -2.388  0.00  0.00    +0.145 HD
ATOM     30  H   UNL     1       7.473 -10.869  -3.888  0.00  0.00    +0.145 HD
ENDBRANCH  25  26
ENDBRANCH  20  25
ENDBRANCH  19  20
ENDBRANCH   2  19
TORSDOF 6
