REMARK  Name = ZINC62214949
REMARK  2 active torsions:
REMARK  status: ('A' for Active; 'I' for Inactive)
REMARK    1  A    between atoms: C_6  and  C_7
REMARK    2  A    between atoms: C_8  and  C_9
REMARK                            x       y       z     vdW  Elec       q    Type
REMARK                         _______ _______ _______ _____ _____    ______ ____
ROOT
ATOM      1  C   UNL     1      -2.493  -2.861   0.011  0.00  0.00    +0.243 C 
ATOM      2  O   UNL     1      -3.557  -2.270   0.024  0.00  0.00    -0.270 OA
ATOM      3  N   UNL     1      -2.471  -4.209   0.003  0.00  0.00    -0.261 N 
ATOM      4  C   UNL     1      -3.662  -4.923   0.011  0.00  0.00    +0.165 A 
ATOM      5  N   UNL     1      -4.890  -4.461   0.019  0.00  0.00    -0.231 NA
ATOM      6  C   UNL     1      -5.952  -5.274   0.025  0.00  0.00    +0.035 A 
ATOM      7  C   UNL     1      -5.656  -6.597   0.023  0.00  0.00    -0.005 A 
ATOM      8  S   UNL     1      -3.882  -6.592   0.004  0.00  0.00    -0.059 S 
ATOM      9  C   UNL     1      -6.908  -7.416   0.036  0.00  0.00    -0.037 C 
ATOM     10  N   UNL     1      -7.979  -6.484   0.463  0.00  0.00    +0.386 N 
ATOM     11  C   UNL     1      -7.473  -5.163   0.029  0.00  0.00    -0.025 C 
ATOM     12  H   UNL     1      -1.623  -4.680  -0.008  0.00  0.00    +0.157 HD
ATOM     13  H   UNL     1      -8.847  -6.702  -0.001  0.00  0.00    -0.085 HD
ATOM     14  H   UNL     1      -8.093  -6.509   1.465  0.00  0.00    -0.085 HD
ENDROOT
BRANCH   1  16
ATOM     15  C   UNL     1      -1.260  -0.760   0.010  0.00  0.00    +0.013 C 
ATOM     16  C   UNL     1      -1.238  -2.109   0.003  0.00  0.00    +0.068 C 
BRANCH  15  22
ATOM     17  C   UNL     1      -0.017   1.395   0.010  0.00  0.00    +0.009 A 
ATOM     18  C   UNL     1       1.169   2.096   0.002  0.00  0.00    +0.020 A 
ATOM     19  C   UNL     1       2.378   1.420  -0.013  0.00  0.00    +0.041 A 
ATOM     20  C   UNL     1       2.405   0.035  -0.021  0.00  0.00    +0.020 A 
ATOM     21  C   UNL     1       1.226  -0.680  -0.014  0.00  0.00    +0.009 A 
ATOM     22  C   UNL     1       0.002  -0.004   0.002  0.00  0.00    -0.025 A 
ATOM     23 CL   UNL     1       3.867   2.313  -0.022  0.00  0.00    -0.084 Cl
ENDBRANCH  15  22
ENDBRANCH   1  16
TORSDOF 2
