REMARK  Name = ZINC16636539
REMARK  10 active torsions:
REMARK  status: ('A' for Active; 'I' for Inactive)
REMARK    1  A    between atoms: C_1  and  C_2
REMARK    2  A    between atoms: C_6  and  N_9
REMARK    3  A    between atoms: C_7  and  C_8
REMARK    4  A    between atoms: C_10  and  C_12
REMARK    5  A    between atoms: C_12  and  N_48
REMARK    6  A    between atoms: C_13  and  N_48
REMARK    7  A    between atoms: C_14  and  C_15
REMARK    8  A    between atoms: C_14  and  N_48
REMARK    9  A    between atoms: N_20  and  C_21
REMARK   10  A    between atoms: C_21  and  C_22
REMARK                            x       y       z     vdW  Elec       q    Type
REMARK                         _______ _______ _______ _____ _____    ______ ____
ROOT
ATOM      1  C   UNL     1      -2.043   5.683  -1.514  0.00  0.00    -0.095 C 
ATOM      2  N   UNL     1      -1.422   6.114  -0.244  0.00  0.00    +0.389 N 
ATOM      3  H   UNL     1      -1.943   5.702   0.538  0.00  0.00    -0.081 HD
ENDROOT
BRANCH   2   4
ATOM      4  C   UNL     1      -0.020   5.650  -0.184  0.00  0.00    +0.019 C 
BRANCH   4   6
ATOM      5  N   UNL     1       1.162   3.485   0.009  0.00  0.00    -0.287 N 
ATOM      6  C   UNL     1      -0.009   4.147  -0.078  0.00  0.00    +0.201 C 
ATOM      7  O   UNL     1      -1.055   3.532  -0.072  0.00  0.00    -0.278 OA
ATOM      8  H   UNL     1       1.993   3.979   0.085  0.00  0.00    +0.155 HD
BRANCH   5  14
ATOM      9  C   UNL     1       3.389  -0.737   1.187  0.00  0.00    +0.044 C 
ATOM     10  C   UNL     1       2.245   0.014   0.554  0.00  0.00    -0.046 A 
ATOM     11  C   UNL     1       1.211  -0.680  -0.045  0.00  0.00    +0.004 A 
ATOM     12  C   UNL     1       0.160   0.005  -0.627  0.00  0.00    +0.002 A 
ATOM     13  C   UNL     1       0.141   1.386  -0.611  0.00  0.00    +0.023 A 
ATOM     14  C   UNL     1       1.178   2.086  -0.009  0.00  0.00    +0.036 A 
ATOM     15  C   UNL     1       2.232   1.395   0.575  0.00  0.00    -0.026 A 
ATOM     16  C   UNL     1       3.359   2.151   1.229  0.00  0.00    +0.046 C 
ENDBRANCH   5  14
ENDBRANCH   4   6
ENDBRANCH   2   4
BRANCH   2  17
ATOM     17  C   UNL     1      -1.472   7.587  -0.132  0.00  0.00    +0.019 C 
BRANCH  17  18
ATOM     18  C   UNL     1      -2.908   8.014   0.026  0.00  0.00    +0.204 C 
ATOM     19  O   UNL     1      -3.791   7.183   0.026  0.00  0.00    -0.277 OA
ATOM     20  N   UNL     1      -3.211   9.320   0.166  0.00  0.00    -0.242 N 
ATOM     21  C   UNL     1      -4.496   9.702   0.307  0.00  0.00    +0.306 C 
ATOM     22  O   UNL     1      -5.381   8.869   0.308  0.00  0.00    -0.252 OA
ATOM     23  N   UNL     1      -4.799  11.008   0.447  0.00  0.00    -0.296 N 
ATOM     24  H   UNL     1      -2.505   9.985   0.166  0.00  0.00    +0.159 HD
ATOM     25  H   UNL     1      -4.093  11.672   0.447  0.00  0.00    +0.151 HD
BRANCH  23  26
ATOM     26  C   UNL     1      -6.196  11.423   0.601  0.00  0.00    +0.132 C 
BRANCH  26  27
ATOM     27  C   UNL     1      -6.262  12.922   0.738  0.00  0.00    -0.016 C 
ATOM     28  C   UNL     1      -7.015  13.622  -0.073  0.00  0.00    +0.005 C 
ENDBRANCH  26  27
ENDBRANCH  23  26
ENDBRANCH  17  18
ENDBRANCH   2  17
TORSDOF 7
