REMARK  Name = ZINC39631130
REMARK  11 active torsions:
REMARK  status: ('A' for Active; 'I' for Inactive)
REMARK    1  A    between atoms: C_1  and  C_2
REMARK    2  A    between atoms: C_2  and  C_4
REMARK    3  A    between atoms: C_2  and  N_11
REMARK    4  A    between atoms: C_4  and  C_5
REMARK    5  A    between atoms: C_5  and  C_6
REMARK    6  A    between atoms: C_6  and  C_7
REMARK    7  A    between atoms: C_7  and  C_8
REMARK    8  A    between atoms: C_7  and  C_9
REMARK    9  A    between atoms: C_7  and  O_10
REMARK   10  A    between atoms: C_12  and  C_14
REMARK   11  A    between atoms: C_25  and  C_27
REMARK                            x       y       z     vdW  Elec       q    Type
REMARK                         _______ _______ _______ _____ _____    ______ ____
ROOT
ATOM      1  C   UNL     1       2.730  -1.072  -2.456  0.00  0.00    +0.100 C 
ATOM      2  C   UNL     1       2.404  -0.161  -3.661  0.00  0.00    +0.121 C 
ATOM      3  N   UNL     1       3.518   0.815  -3.704  0.00  0.00    -0.296 N 
ATOM      4  C   UNL     1       4.722   0.016  -3.374  0.00  0.00    +0.115 C 
ATOM      5  C   UNL     1       4.252  -0.956  -2.273  0.00  0.00    -0.004 C 
ATOM      6  C   UNL     1       4.912  -2.319  -2.455  0.00  0.00    -0.010 C 
ATOM      7  C   UNL     1       6.418  -2.190  -2.211  0.00  0.00    -0.082 C 
ATOM      8  N   UNL     1       6.654  -1.688  -0.852  0.00  0.00    +0.379 N 
ATOM      9  C   UNL     1       6.097  -0.337  -0.714  0.00  0.00    -0.082 C 
ATOM     10  C   UNL     1       4.577  -0.388  -0.895  0.00  0.00    -0.010 C 
ATOM     11  C   UNL     1       3.451   2.133  -3.980  0.00  0.00    +0.248 C 
ATOM     12  O   UNL     1       2.371   2.667  -4.138  0.00  0.00    -0.270 OA
ATOM     13  H   UNL     1       6.211  -2.302  -0.186  0.00  0.00    -0.086 HD
ATOM     14  H   UNL     1       7.646  -1.661  -0.672  0.00  0.00    -0.086 HD
ENDROOT
BRANCH  11  15
ATOM     15  C   UNL     1       4.691   2.928  -4.092  0.00  0.00    +0.055 A 
ATOM     16  C   UNL     1       5.845   2.356  -4.633  0.00  0.00    +0.016 A 
ATOM     17  C   UNL     1       6.999   3.102  -4.735  0.00  0.00    +0.021 A 
ATOM     18  C   UNL     1       7.017   4.418  -4.301  0.00  0.00    +0.042 A 
ATOM     19  C   UNL     1       5.878   4.992  -3.763  0.00  0.00    +0.040 A 
ATOM     20  C   UNL     1       4.714   4.257  -3.662  0.00  0.00    +0.054 A 
ATOM     21 CL   UNL     1       3.284   4.980  -2.994  0.00  0.00    -0.083 Cl
ATOM     22 CL   UNL     1       8.476   5.351  -4.432  0.00  0.00    -0.083 Cl
ENDBRANCH  11  15
BRANCH   1  24
ATOM     23  N   UNL     1       1.635  -1.464  -0.273  0.00  0.00    -0.312 N 
ATOM     24  C   UNL     1       2.014  -0.585  -1.222  0.00  0.00    +0.218 C 
ATOM     25  O   UNL     1       1.780   0.597  -1.083  0.00  0.00    -0.275 OA
ATOM     26  H   UNL     1       1.822  -2.409  -0.384  0.00  0.00    +0.149 HD
BRANCH  23  28
ATOM     27  C   UNL     1      -0.559  -0.880   0.637  0.00  0.00    +0.028 C 
ATOM     28  C   UNL     1       0.939  -0.991   0.927  0.00  0.00    +0.070 C 
BRANCH  28  29
ATOM     29  C   UNL     1       1.166  -1.980   2.071  0.00  0.00    +0.022 C 
BRANCH  29  30
ATOM     30  C   UNL     1       2.650  -1.998   2.444  0.00  0.00    +0.005 C 
BRANCH  30  31
ATOM     31  C   UNL     1       2.877  -2.987   3.589  0.00  0.00    +0.034 C 
BRANCH  31  32
ATOM     32  C   UNL     1       4.361  -3.005   3.962  0.00  0.00    +0.061 C 
ATOM     33  C   UNL     1       4.608  -4.082   5.019  0.00  0.00    +0.041 C 
ATOM     34  C   UNL     1       5.196  -3.310   2.716  0.00  0.00    +0.041 C 
BRANCH  32  35
ATOM     35  O   UNL     1       4.735  -1.729   4.485  0.00  0.00    -0.389 OA
ATOM     36  H   UNL     1       4.245  -1.470   5.277  0.00  0.00    +0.210 HD
ENDBRANCH  32  35
ENDBRANCH  31  32
ENDBRANCH  30  31
ENDBRANCH  29  30
ENDBRANCH  28  29
ENDBRANCH  23  28
ENDBRANCH   1  24
TORSDOF 8
