REMARK  Name = ZINC63152288
REMARK  3 active torsions:
REMARK  status: ('A' for Active; 'I' for Inactive)
REMARK    1  A    between atoms: N_22  and  C_23
REMARK    2  A    between atoms: C_23  and  C_24
REMARK    3  A    between atoms: C_24  and  O_25
REMARK                            x       y       z     vdW  Elec       q    Type
REMARK                         _______ _______ _______ _____ _____    ______ ____
ROOT
ATOM      1  C   UNL     1      -0.017   1.378   0.010  0.00  0.00    +0.000 A 
ATOM      2  C   UNL     1       1.166   2.099   0.002  0.00  0.00    +0.001 A 
ATOM      3  C   UNL     1       2.375   1.436  -0.009  0.00  0.00    +0.010 A 
ATOM      4  C   UNL     1       2.399   0.038  -0.015  0.00  0.00    -0.002 A 
ATOM      5  C   UNL     1       1.204  -0.689  -0.015  0.00  0.00    -0.038 A 
ATOM      6  C   UNL     1       0.002  -0.004   0.002  0.00  0.00    +0.004 A 
ATOM      7  C   UNL     1       1.186  -2.192  -0.044  0.00  0.00    +0.043 C 
ATOM      8  C   UNL     1       2.511  -2.789   0.424  0.00  0.00    -0.009 C 
ATOM      9  C   UNL     1       2.700  -2.516   1.917  0.00  0.00    +0.008 C 
ATOM     10  C   UNL     1       1.552  -3.155   2.702  0.00  0.00    +0.001 C 
ATOM     11  C   UNL     1       1.544  -4.665   2.455  0.00  0.00    +0.000 C 
ATOM     12  C   UNL     1       1.357  -4.938   0.961  0.00  0.00    +0.001 C 
ATOM     13  C   UNL     1       2.507  -4.299   0.179  0.00  0.00    +0.008 C 
ATOM     14  C   UNL     1       3.656  -2.148  -0.361  0.00  0.00    +0.131 C 
ATOM     15  C   UNL     1       3.683  -0.679  -0.015  0.00  0.00    +0.038 C 
ATOM     16  N   UNL     1       4.797  -0.075   0.279  0.00  0.00    -0.332 N 
ATOM     17  C   UNL     1       5.955  -0.738   0.401  0.00  0.00    +0.185 C 
ATOM     18  N   UNL     1       6.027  -2.054   0.289  0.00  0.00    -0.149 NA
ATOM     19  C   UNL     1       4.974  -2.773  -0.025  0.00  0.00    +0.248 C 
ATOM     20  O   UNL     1       5.087  -3.983  -0.053  0.00  0.00    -0.273 OA
ATOM     21  N   UNL     1       7.099  -0.030   0.649  0.00  0.00    -0.315 N 
ATOM     22  H   UNL     1       4.789   0.886   0.413  0.00  0.00    +0.168 HD
ATOM     23  H   UNL     1       7.064   0.935   0.734  0.00  0.00    +0.149 HD
ENDROOT
BRANCH  21  24
ATOM     24  C   UNL     1       8.378  -0.731   0.787  0.00  0.00    +0.132 C 
BRANCH  24  25
ATOM     25  C   UNL     1       9.490   0.284   1.059  0.00  0.00    +0.174 C 
BRANCH  25  26
ATOM     26  O   UNL     1       9.264   0.911   2.324  0.00  0.00    -0.393 OA
ATOM     27  H   UNL     1       9.932   1.569   2.562  0.00  0.00    +0.209 HD
ENDBRANCH  25  26
ENDBRANCH  24  25
ENDBRANCH  21  24
TORSDOF 3
