REMARK  Name = ZINC67419686
REMARK  10 active torsions:
REMARK  status: ('A' for Active; 'I' for Inactive)
REMARK    1  A    between atoms: C_1  and  N_2
REMARK    2  A    between atoms: N_2  and  C_3
REMARK    3  A    between atoms: C_4  and  C_6
REMARK    4  A    between atoms: N_11  and  C_12
REMARK    5  A    between atoms: C_12  and  C_13
REMARK    6  A    between atoms: C_13  and  C_14
REMARK    7  A    between atoms: C_14  and  N_15
REMARK    8  A    between atoms: N_18  and  N_19
REMARK    9  A    between atoms: C_20  and  C_22
REMARK   10  A    between atoms: C_22  and  C_23
REMARK                            x       y       z     vdW  Elec       q    Type
REMARK                         _______ _______ _______ _____ _____    ______ ____
ROOT
ATOM      1  N   UNL     1      -3.023  -2.668  -6.957  0.00  0.00    -0.298 N 
ATOM      2  C   UNL     1      -4.106  -2.487  -7.738  0.00  0.00    +0.316 C 
ATOM      3  O   UNL     1      -5.133  -2.046  -7.260  0.00  0.00    -0.251 OA
ATOM      4  N   UNL     1      -4.050  -2.793  -9.049  0.00  0.00    -0.218 N 
ATOM      5  H   UNL     1      -2.203  -3.020  -7.338  0.00  0.00    +0.150 HD
ATOM      6  H   UNL     1      -4.830  -2.663  -9.611  0.00  0.00    +0.174 HD
ENDROOT
BRANCH   4   7
ATOM      7  N   UNL     1      -2.867  -3.301  -9.600  0.00  0.00    -0.233 N 
ATOM      8  C   UNL     1      -2.811  -3.608 -10.911  0.00  0.00    +0.229 C 
ATOM      9  O   UNL     1      -3.786  -3.445 -11.614  0.00  0.00    -0.274 OA
ATOM     10  H   UNL     1      -2.087  -3.432  -9.038  0.00  0.00    +0.173 HD
BRANCH   8  11
ATOM     11  C   UNL     1      -1.538  -4.155 -11.504  0.00  0.00    +0.101 C 
BRANCH  11  12
ATOM     12  C   UNL     1      -1.742  -4.417 -12.998  0.00  0.00    -0.002 C 
ATOM     13  C   UNL     1      -1.988  -3.091 -13.719  0.00  0.00    +0.004 C 
ATOM     14  C   UNL     1      -2.192  -3.353 -15.213  0.00  0.00    +0.000 C 
ATOM     15  C   UNL     1      -0.943  -4.023 -15.788  0.00  0.00    +0.000 C 
ATOM     16  C   UNL     1      -0.697  -5.349 -15.067  0.00  0.00    +0.000 C 
ATOM     17  C   UNL     1      -0.493  -5.087 -13.573  0.00  0.00    +0.004 C 
ENDBRANCH  11  12
ENDBRANCH   8  11
ENDBRANCH   4   7
BRANCH   1  18
ATOM     18  C   UNL     1      -3.083  -2.334  -5.532  0.00  0.00    +0.104 C 
BRANCH  18  19
ATOM     19  C   UNL     1      -1.731  -2.632  -4.880  0.00  0.00    +0.000 C 
BRANCH  19  20
ATOM     20  C   UNL     1      -1.794  -2.284  -3.392  0.00  0.00    -0.076 C 
BRANCH  20  25
ATOM     21  C   UNL     1      -0.501  -2.126  -1.349  0.00  0.00    +0.019 C 
ATOM     22  C   UNL     1       0.630  -2.966  -0.706  0.00  0.00    -0.008 C 
ATOM     23  C   UNL     1       0.492  -4.333  -1.416  0.00  0.00    -0.020 C 
ATOM     24  C   UNL     1      -0.254  -4.030  -2.729  0.00  0.00    -0.078 C 
ATOM     25  N   UNL     1      -0.496  -2.570  -2.767  0.00  0.00    +0.387 N 
ATOM     26  H   UNL     1       0.245  -2.109  -3.273  0.00  0.00    -0.081 HD
BRANCH  21  30
ATOM     27  C   UNL     1      -0.444   1.514  -0.169  0.00  0.00    +0.131 C 
ATOM     28  N   UNL     1      -0.650   0.064  -0.209  0.00  0.00    -0.309 N 
ATOM     29  C   UNL     1      -1.357  -0.605   0.886  0.00  0.00    +0.131 C 
ATOM     30  C   UNL     1      -0.191  -0.654  -1.252  0.00  0.00    +0.202 C 
ATOM     31  O   UNL     1       0.472  -0.116  -2.114  0.00  0.00    -0.277 OA
ENDBRANCH  21  30
ENDBRANCH  20  25
ENDBRANCH  19  20
ENDBRANCH  18  19
ENDBRANCH   1  18
TORSDOF 8
