REMARK  Name = ZINC63883867
REMARK  4 active torsions:
REMARK  status: ('A' for Active; 'I' for Inactive)
REMARK    1  A    between atoms: C_1  and  C_2
REMARK    2  A    between atoms: C_4  and  C_17
REMARK    3  A    between atoms: N_12  and  C_13
REMARK    4  A    between atoms: C_13  and  C_14
REMARK                            x       y       z     vdW  Elec       q    Type
REMARK                         _______ _______ _______ _____ _____    ______ ____
ROOT
ATOM      1  C   UNL     1       0.005   1.498   0.444  0.00  0.00    +0.029 C 
ATOM      2  C   UNL     1       0.016  -0.020   0.258  0.00  0.00    +0.082 C 
ATOM      3  C   UNL     1      -1.422  -0.558   0.173  0.00  0.00    +0.083 C 
ATOM      4  C   UNL     1      -1.544  -1.504   1.346  0.00  0.00    -0.018 A 
ATOM      5  C   UNL     1      -2.603  -2.278   1.780  0.00  0.00    +0.006 A 
ATOM      6  C   UNL     1      -2.467  -3.075   2.901  0.00  0.00    +0.000 A 
ATOM      7  C   UNL     1      -1.267  -3.097   3.588  0.00  0.00    +0.002 A 
ATOM      8  C   UNL     1      -0.208  -2.327   3.159  0.00  0.00    +0.023 A 
ATOM      9  C   UNL     1      -0.337  -1.518   2.028  0.00  0.00    +0.034 A 
ATOM     10  N   UNL     1       0.602  -0.672   1.432  0.00  0.00    -0.317 N 
ENDROOT
BRANCH   3  11
ATOM     11  C   UNL     1      -2.429   0.588   0.300  0.00  0.00    +0.183 C 
ATOM     12  N   UNL     1      -2.426   1.399  -0.923  0.00  0.00    -0.363 N 
ATOM     13  C   UNL     1      -2.077   2.608  -0.590  0.00  0.00    +0.060 A 
ATOM     14  C   UNL     1      -1.898   3.845  -1.363  0.00  0.00    +0.029 A 
ATOM     15  C   UNL     1      -1.522   4.975  -0.732  0.00  0.00    +0.022 A 
ATOM     16  C   UNL     1      -1.288   5.027   0.656  0.00  0.00    +0.043 A 
ATOM     17  C   UNL     1      -1.423   3.949   1.456  0.00  0.00    +0.047 A 
ATOM     18  C   UNL     1      -1.830   2.663   0.877  0.00  0.00    +0.062 A 
ATOM     19  N   UNL     1      -2.036   1.484   1.395  0.00  0.00    -0.363 N 
ATOM     20 CL   UNL     1      -0.806   6.537   1.364  0.00  0.00    -0.083 Cl
ATOM     21  H   UNL     1      -2.643   1.091  -1.817  0.00  0.00    +0.162 HD
ATOM     22  H   UNL     1      -1.946   1.243   2.330  0.00  0.00    +0.162 HD
ENDBRANCH   3  11
BRANCH  10  23
ATOM     23  C   UNL     1       1.972  -0.465   1.911  0.00  0.00    +0.200 C 
BRANCH  23  24
ATOM     24  C   UNL     1       1.993   0.678   2.893  0.00  0.00    +0.228 C 
ATOM     25  O   UNL     1       0.966   1.262   3.167  0.00  0.00    -0.274 OA
ATOM     26  N   UNL     1       3.154   1.050   3.468  0.00  0.00    -0.328 N 
ATOM     27  H   UNL     1       3.975   0.583   3.249  0.00  0.00    +0.145 HD
ATOM     28  H   UNL     1       3.168   1.786   4.100  0.00  0.00    +0.145 HD
ENDBRANCH  23  24
ENDBRANCH  10  23
TORSDOF 3
