REMARK  Name = ZINC37199331
REMARK  2 active torsions:
REMARK  status: ('A' for Active; 'I' for Inactive)
REMARK    1  A    between atoms: C_12  and  N_14
REMARK    2  A    between atoms: N_14  and  C_15
REMARK                            x       y       z     vdW  Elec       q    Type
REMARK                         _______ _______ _______ _____ _____    ______ ____
ROOT
ATOM      1  C   UNL     1      -0.044   1.089   0.282  0.00  0.00    +0.016 A 
ATOM      2  C   UNL     1       1.107   1.846   0.149  0.00  0.00    +0.006 A 
ATOM      3  C   UNL     1       2.337   1.220   0.125  0.00  0.00    -0.020 A 
ATOM      4  C   UNL     1       2.426  -0.154   0.222  0.00  0.00    +0.123 A 
ATOM      5  C   UNL     1       1.273  -0.913   0.366  0.00  0.00    +0.061 A 
ATOM      6  C   UNL     1       0.040  -0.287   0.394  0.00  0.00    +0.021 A 
ATOM      7 BR   UNL     1      -1.535  -1.315   0.588  0.00  0.00    -0.050 Br
ATOM      8  O   UNL     1       3.638  -0.770   0.149  0.00  0.00    -0.492 OA
ATOM      9  C   UNL     1       4.265  -0.753  -1.137  0.00  0.00    +0.229 C 
ATOM     10  C   UNL     1       5.080   0.510  -1.326  0.00  0.00    +0.040 C 
ATOM     11  C   UNL     1       4.236   1.775  -1.361  0.00  0.00    -0.008 C 
ATOM     12  C   UNL     1       3.604   2.044   0.005  0.00  0.00    -0.037 C 
ENDROOT
BRANCH  12  13
ATOM     13  N   UNL     1       4.544   1.660   1.066  0.00  0.00    +0.386 N 
ATOM     14  H   UNL     1       4.698   0.664   1.035  0.00  0.00    -0.085 HD
ATOM     15  H   UNL     1       5.420   2.141   0.929  0.00  0.00    -0.085 HD
BRANCH  13  16
ATOM     16  C   UNL     1       3.983   2.028   2.373  0.00  0.00    -0.071 C 
ATOM     17  C   UNL     1       3.898   3.552   2.482  0.00  0.00    -0.016 C 
ATOM     18  C   UNL     1       2.971   3.930   3.638  0.00  0.00    -0.002 C 
ATOM     19  C   UNL     1       1.718   3.053   3.595  0.00  0.00    -0.000 C 
ATOM     20  C   UNL     1       1.703   2.126   4.813  0.00  0.00    -0.000 C 
ATOM     21  C   UNL     1       2.703   0.988   4.599  0.00  0.00    -0.000 C 
ATOM     22  C   UNL     1       4.124   1.511   4.814  0.00  0.00    -0.002 C 
ATOM     23  C   UNL     1       4.883   1.487   3.485  0.00  0.00    -0.016 C 
ENDBRANCH  13  16
ENDBRANCH  12  13
TORSDOF 2
