REMARK  Name = ZINC44177506
REMARK  8 active torsions:
REMARK  status: ('A' for Active; 'I' for Inactive)
REMARK    1  A    between atoms: C_1  and  C_2
REMARK    2  A    between atoms: C_3  and  C_26
REMARK    3  A    between atoms: C_7  and  N_8
REMARK    4  A    between atoms: N_11  and  C_12
REMARK    5  A    between atoms: C_12  and  C_13
REMARK    6  A    between atoms: C_13  and  C_15
REMARK    7  A    between atoms: C_13  and  N_20
REMARK    8  A    between atoms: N_28  and  C_29
REMARK                            x       y       z     vdW  Elec       q    Type
REMARK                         _______ _______ _______ _____ _____    ______ ____
ROOT
ATOM      1  N   UNL     1       0.175   0.735   3.031  0.00  0.00    -0.269 N 
ATOM      2  C   UNL     1       0.442  -0.058   4.088  0.00  0.00    +0.304 C 
ATOM      3  O   UNL     1       0.544  -1.260   3.935  0.00  0.00    -0.253 OA
ATOM      4  N   UNL     1       0.597   0.481   5.313  0.00  0.00    -0.300 N 
ATOM      5  H   UNL     1       0.022   1.684   3.163  0.00  0.00    +0.156 HD
ATOM      6  H   UNL     1       0.515   1.440   5.435  0.00  0.00    +0.150 HD
ENDROOT
BRANCH   1  13
ATOM      7  C   UNL     1      -1.315   2.128   1.050  0.00  0.00    +0.046 C 
ATOM      8  C   UNL     1      -0.598   0.837   0.748  0.00  0.00    -0.017 A 
ATOM      9  C   UNL     1      -0.647   0.293  -0.535  0.00  0.00    +0.041 A 
ATOM     10  C   UNL     1       0.019  -0.903  -0.807  0.00  0.00    +0.013 A 
ATOM     11  C   UNL     1       0.724  -1.542   0.192  0.00  0.00    +0.003 A 
ATOM     12  C   UNL     1       0.773  -1.003   1.464  0.00  0.00    +0.023 A 
ATOM     13  C   UNL     1       0.117   0.190   1.743  0.00  0.00    +0.038 A 
BRANCH   9  14
ATOM     14  C   UNL     1      -1.403   0.980  -1.604  0.00  0.00    +0.244 C 
ATOM     15  O   UNL     1      -1.891   2.074  -1.397  0.00  0.00    -0.270 OA
ATOM     16  N   UNL     1      -1.552   0.393  -2.808  0.00  0.00    -0.314 N 
ATOM     17  C   UNL     1      -2.301   1.074  -3.867  0.00  0.00    +0.128 C 
ATOM     18  H   UNL     1      -1.163  -0.480  -2.974  0.00  0.00    +0.149 HD
ENDBRANCH   9  14
ENDBRANCH   1  13
BRANCH   4  19
ATOM     19  C   UNL     1       0.887  -0.381   6.461  0.00  0.00    +0.098 C 
BRANCH  19  20
ATOM     20  C   UNL     1       0.902   0.460   7.740  0.00  0.00    +0.016 C 
BRANCH  20  21
ATOM     21  N   UNL     1       1.885   1.543   7.602  0.00  0.00    +0.387 N 
ATOM     22  C   UNL     1       3.192   0.974   7.255  0.00  0.00    -0.078 C 
ATOM     23  C   UNL     1       4.201   2.103   7.031  0.00  0.00    -0.019 C 
ATOM     24  C   UNL     1       4.326   2.930   8.314  0.00  0.00    -0.004 C 
ATOM     25  C   UNL     1       2.943   3.457   8.707  0.00  0.00    -0.019 C 
ATOM     26  C   UNL     1       1.981   2.278   8.869  0.00  0.00    -0.078 C 
ATOM     27  H   UNL     1       1.589   2.173   6.871  0.00  0.00    -0.081 HD
ENDBRANCH  20  21
BRANCH  20  28
ATOM     28  C   UNL     1       1.276  -0.412   8.910  0.00  0.00    +0.093 A 
ATOM     29  C   UNL     1       0.418  -0.967   9.784  0.00  0.00    +0.043 A 
ATOM     30  C   UNL     1       1.193  -1.699  10.712  0.00  0.00    +0.041 A 
ATOM     31  C   UNL     1       2.480  -1.548  10.350  0.00  0.00    +0.195 A 
ATOM     32  O   UNL     1       2.524  -0.772   9.254  0.00  0.00    -0.469 OA
ENDBRANCH  20  28
ENDBRANCH  19  20
ENDBRANCH   4  19
TORSDOF 6
