REMARK  Name = ZINC00588474
REMARK  8 active torsions:
REMARK  status: ('A' for Active; 'I' for Inactive)
REMARK    1  A    between atoms: C_2  and  N_17
REMARK    2  A    between atoms: C_5  and  N_7
REMARK    3  A    between atoms: C_8  and  C_9
REMARK    4  A    between atoms: C_10  and  O_16
REMARK    5  A    between atoms: C_12  and  O_15
REMARK    6  A    between atoms: C_18  and  C_19
REMARK    7  A    between atoms: C_20  and  O_26
REMARK    8  A    between atoms: C_22  and  O_25
REMARK                            x       y       z     vdW  Elec       q    Type
REMARK                         _______ _______ _______ _____ _____    ______ ____
ROOT
ATOM      1  C   UNL     1      -0.016   1.362   0.009  0.00  0.00    +0.030 A 
ATOM      2  C   UNL     1       1.185   2.077   0.002  0.00  0.00    +0.064 A 
ATOM      3  C   UNL     1       2.406   1.395  -0.013  0.00  0.00    +0.030 A 
ATOM      4  C   UNL     1       2.424   0.029  -0.020  0.00  0.00    +0.030 A 
ATOM      5  C   UNL     1       1.223  -0.687  -0.012  0.00  0.00    +0.064 A 
ATOM      6  C   UNL     1       0.002  -0.004   0.002  0.00  0.00    +0.030 A 
ENDROOT
BRANCH   5   7
ATOM      7  N   UNL     1       1.241  -2.053  -0.020  0.00  0.00    -0.255 NA
ATOM      8  C   UNL     1       0.459  -2.721   0.784  0.00  0.00    +0.123 C 
BRANCH   8   9
ATOM      9  C   UNL     1       0.479  -4.189   0.776  0.00  0.00    +0.035 A 
ATOM     10  C   UNL     1       1.343  -4.878  -0.092  0.00  0.00    +0.129 A 
ATOM     11  C   UNL     1       1.355  -6.262  -0.093  0.00  0.00    +0.091 A 
ATOM     12  C   UNL     1       0.516  -6.965   0.760  0.00  0.00    +0.120 A 
ATOM     13  C   UNL     1      -0.340  -6.285   1.620  0.00  0.00    +0.046 A 
ATOM     14  C   UNL     1      -0.358  -4.909   1.636  0.00  0.00    +0.016 A 
BRANCH  12  15
ATOM     15  O   UNL     1       0.531  -8.322   0.755  0.00  0.00    -0.507 OA
ATOM     16  H   UNL     1       1.164  -8.710   1.375  0.00  0.00    +0.292 HD
ENDBRANCH  12  15
BRANCH  10  17
ATOM     17  O   UNL     1       2.162  -4.190  -0.927  0.00  0.00    -0.506 OA
ATOM     18  H   UNL     1       3.027  -3.985  -0.548  0.00  0.00    +0.292 HD
ENDBRANCH  10  17
ENDBRANCH   8   9
ENDBRANCH   5   7
BRANCH   2  19
ATOM     19  N   UNL     1       1.167   3.444   0.009  0.00  0.00    -0.255 NA
ATOM     20  C   UNL     1       1.964   4.103   0.804  0.00  0.00    +0.123 C 
BRANCH  20  21
ATOM     21  C   UNL     1       1.945   5.571   0.812  0.00  0.00    +0.035 A 
ATOM     22  C   UNL     1       1.064   6.270  -0.032  0.00  0.00    +0.129 A 
ATOM     23  C   UNL     1       1.052   7.653  -0.018  0.00  0.00    +0.091 A 
ATOM     24  C   UNL     1       1.908   8.347   0.827  0.00  0.00    +0.120 A 
ATOM     25  C   UNL     1       2.781   7.658   1.662  0.00  0.00    +0.046 A 
ATOM     26  C   UNL     1       2.799   6.282   1.663  0.00  0.00    +0.016 A 
BRANCH  24  27
ATOM     27  O   UNL     1       1.893   9.704   0.837  0.00  0.00    -0.507 OA
ATOM     28  H   UNL     1       1.272  10.086   1.473  0.00  0.00    +0.292 HD
ENDBRANCH  24  27
BRANCH  22  29
ATOM     29  O   UNL     1       0.228   5.590  -0.857  0.00  0.00    -0.506 OA
ATOM     30  H   UNL     1      -0.630   5.381  -0.463  0.00  0.00    +0.292 HD
ENDBRANCH  22  29
ENDBRANCH  20  21
ENDBRANCH   2  19
TORSDOF 8
