REMARK  Name = ZINC54826128
REMARK  8 active torsions:
REMARK  status: ('A' for Active; 'I' for Inactive)
REMARK    1  A    between atoms: C_1  and  C_2
REMARK    2  A    between atoms: C_5  and  O_8
REMARK    3  A    between atoms: O_8  and  C_9
REMARK    4  A    between atoms: C_9  and  C_10
REMARK    5  A    between atoms: C_10  and  C_12
REMARK    6  A    between atoms: C_10  and  N_13
REMARK    7  A    between atoms: N_13  and  C_14
REMARK    8  A    between atoms: C_21  and  C_23
REMARK                            x       y       z     vdW  Elec       q    Type
REMARK                         _______ _______ _______ _____ _____    ______ ____
ROOT
ATOM      1  N   UNL     1      -1.163  -6.722   0.400  0.00  0.00    +0.386 N 
ATOM      2  H   UNL     1      -1.946  -6.401   0.950  0.00  0.00    -0.085 HD
ATOM      3  H   UNL     1      -1.217  -6.325  -0.526  0.00  0.00    -0.085 HD
ENDROOT
BRANCH   1   4
ATOM      4  C   UNL     1      -1.197  -8.187   0.308  0.00  0.00    -0.054 C 
ATOM      5  C   UNL     1      -1.204  -8.776   1.732  0.00  0.00    -0.015 C 
ATOM      6  C   UNL     1      -1.665 -10.246   1.768  0.00  0.00    -0.002 C 
ATOM      7  C   UNL     1      -1.087 -11.059   0.642  0.00  0.00    -0.000 C 
ATOM      8  C   UNL     1      -2.098 -11.070  -0.523  0.00  0.00    +0.001 C 
ATOM      9  C   UNL     1      -2.045  -9.850  -1.315  0.00  0.00    +0.017 C 
ATOM     10  C   UNL     1      -2.406  -8.597  -0.488  0.00  0.00    +0.078 C 
BRANCH  10  11
ATOM     11  C   UNL     1      -2.797  -7.504  -1.393  0.00  0.00    +0.064 C 
ATOM     12  N   UNL     1      -3.098  -6.660  -2.091  0.00  0.00    -0.196 NA
ENDBRANCH  10  11
ENDBRANCH   1   4
BRANCH   1  13
ATOM     13  C   UNL     1       0.090  -6.300   1.040  0.00  0.00    -0.036 C 
ATOM     14  C   UNL     1       1.272  -6.677   0.145  0.00  0.00    -0.010 C 
BRANCH  13  15
ATOM     15  C   UNL     1       0.072  -4.785   1.249  0.00  0.00    +0.213 C 
BRANCH  15  16
ATOM     16  O   UNL     1       0.057  -4.129  -0.021  0.00  0.00    -0.494 OA
BRANCH  16  21
ATOM     17  C   UNL     1      -0.018   1.503   0.010  0.00  0.00    +0.044 C 
ATOM     18  C   UNL     1       0.002  -0.004   0.002  0.00  0.00    -0.050 A 
ATOM     19  C   UNL     1       0.006  -0.688  -1.200  0.00  0.00    +0.007 A 
ATOM     20  C   UNL     1       0.024  -2.069  -1.210  0.00  0.00    +0.046 A 
ATOM     21  C   UNL     1       0.039  -2.770  -0.013  0.00  0.00    +0.120 A 
ATOM     22  C   UNL     1       0.036  -2.082   1.191  0.00  0.00    +0.046 A 
ATOM     23  C   UNL     1       0.023  -0.701   1.196  0.00  0.00    +0.007 A 
ENDBRANCH  16  21
ENDBRANCH  15  16
ENDBRANCH  13  15
ENDBRANCH   1  13
TORSDOF 6
