REMARK  Name = ZINC67153674
REMARK  9 active torsions:
REMARK  status: ('A' for Active; 'I' for Inactive)
REMARK    1  A    between atoms: C_1  and  C_2
REMARK    2  A    between atoms: C_2  and  C_3
REMARK    3  A    between atoms: C_3  and  C_5
REMARK    4  A    between atoms: C_3  and  C_6
REMARK    5  A    between atoms: C_6  and  C_8
REMARK    6  A    between atoms: C_6  and  N_11
REMARK    7  A    between atoms: C_12  and  C_14
REMARK    8  A    between atoms: C_15  and  C_29
REMARK    9  A    between atoms: N_16  and  C_19
REMARK                            x       y       z     vdW  Elec       q    Type
REMARK                         _______ _______ _______ _____ _____    ______ ____
ROOT
ATOM      1  C   UNL     1       2.558  -5.234  -2.757  0.00  0.00    +0.170 A 
ATOM      2  C   UNL     1       3.175  -6.402  -2.406  0.00  0.00    +0.074 A 
ATOM      3  N   UNL     1       3.865  -6.819  -3.490  0.00  0.00    -0.216 N 
ATOM      4  N   UNL     1       3.646  -5.871  -4.499  0.00  0.00    -0.060 NA
ATOM      5  N   UNL     1       2.868  -4.956  -4.035  0.00  0.00    -0.124 NA
ATOM      6  C   UNL     1       3.100  -7.092  -1.069  0.00  0.00    +0.068 C 
ENDROOT
BRANCH   3   7
ATOM      7  C   UNL     1       4.651  -7.978  -3.586  0.00  0.00    +0.071 A 
ATOM      8  C   UNL     1       4.195  -9.173  -3.046  0.00  0.00    +0.031 A 
ATOM      9  C   UNL     1       4.968 -10.313  -3.139  0.00  0.00    +0.051 A 
ATOM     10  C   UNL     1       6.202 -10.269  -3.774  0.00  0.00    +0.162 A 
ATOM     11  C   UNL     1       6.659  -9.075  -4.318  0.00  0.00    +0.164 A 
ATOM     12  C   UNL     1       5.880  -7.931  -4.227  0.00  0.00    +0.077 A 
ATOM     13  O   UNL     1       7.863  -9.013  -4.951  0.00  0.00    -0.485 OA
ATOM     14  C   UNL     1       8.776 -10.087  -4.702  0.00  0.00    +0.270 C 
ATOM     15  C   UNL     1       8.007 -11.410  -4.820  0.00  0.00    +0.270 C 
ATOM     16  O   UNL     1       6.952 -11.403  -3.853  0.00  0.00    -0.485 OA
ENDBRANCH   3   7
BRANCH   1  18
ATOM     17  N   UNL     1       1.137  -3.286  -2.352  0.00  0.00    -0.298 N 
ATOM     18  C   UNL     1       1.694  -4.420  -1.883  0.00  0.00    +0.267 C 
ATOM     19  O   UNL     1       1.482  -4.772  -0.738  0.00  0.00    -0.268 OA
ATOM     20  H   UNL     1       1.306  -3.005  -3.265  0.00  0.00    +0.150 HD
BRANCH  17  21
ATOM     21  C   UNL     1       0.278  -2.477  -1.484  0.00  0.00    +0.162 C 
BRANCH  21  22
ATOM     22  C   UNL     1      -1.129  -3.014  -1.528  0.00  0.00    +0.231 C 
ATOM     23  O   UNL     1      -1.487  -3.701  -2.461  0.00  0.00    -0.274 OA
ATOM     24  N   UNL     1      -1.990  -2.731  -0.530  0.00  0.00    -0.328 N 
ATOM     25  H   UNL     1      -1.684  -2.245   0.251  0.00  0.00    +0.145 HD
ATOM     26  H   UNL     1      -2.916  -3.014  -0.594  0.00  0.00    +0.145 HD
ENDBRANCH  21  22
BRANCH  21  27
ATOM     27  C   UNL     1       0.286  -1.026  -1.968  0.00  0.00    +0.015 C 
ATOM     28  C   UNL     1      -0.240  -0.964  -3.404  0.00  0.00    +0.010 C 
BRANCH  27  30
ATOM     29  C   UNL     1       1.706   1.003  -2.300  0.00  0.00    +0.004 C 
ATOM     30  C   UNL     1       1.714  -0.480  -1.924  0.00  0.00    +0.002 C 
ENDBRANCH  27  30
ENDBRANCH  21  27
ENDBRANCH  17  21
ENDBRANCH   1  18
TORSDOF 6
