REMARK  Name = ZINC39941773
REMARK  6 active torsions:
REMARK  status: ('A' for Active; 'I' for Inactive)
REMARK    1  A    between atoms: C_7  and  C_10
REMARK    2  A    between atoms: N_11  and  N_12
REMARK    3  A    between atoms: C_13  and  C_15
REMARK    4  A    between atoms: N_17  and  C_18
REMARK    5  A    between atoms: C_23  and  C_24
REMARK    6  A    between atoms: N_26  and  C_27
REMARK                            x       y       z     vdW  Elec       q    Type
REMARK                         _______ _______ _______ _____ _____    ______ ____
ROOT
ATOM      1  C   UNL     1      -0.196  -7.858  -0.060  0.00  0.00    +0.305 C 
ATOM      2  O   UNL     1      -1.393  -7.655  -0.028  0.00  0.00    -0.265 OA
ATOM      3  N   UNL     1       0.274  -9.121  -0.069  0.00  0.00    -0.277 N 
ATOM      4  H   UNL     1       1.226  -9.283  -0.161  0.00  0.00    +0.155 HD
ENDROOT
BRANCH   3   5
ATOM      5  C   UNL     1      -0.606 -10.191   0.053  0.00  0.00    +0.046 A 
ATOM      6  C   UNL     1      -1.871 -10.124  -0.517  0.00  0.00    +0.024 A 
ATOM      7  C   UNL     1      -2.743 -11.187  -0.394  0.00  0.00    +0.002 A 
ATOM      8  C   UNL     1      -2.365 -12.328   0.296  0.00  0.00    +0.001 A 
ATOM      9  C   UNL     1      -1.113 -12.413   0.867  0.00  0.00    +0.015 A 
ATOM     10  C   UNL     1      -0.219 -11.347   0.748  0.00  0.00    +0.058 A 
BRANCH  10  11
ATOM     11  C   UNL     1       1.124 -11.434   1.353  0.00  0.00    +0.250 C 
ATOM     12  O   UNL     1       1.863 -10.468   1.335  0.00  0.00    -0.270 OA
ATOM     13  N   UNL     1       1.532 -12.584   1.926  0.00  0.00    -0.281 N 
ATOM     14  H   UNL     1       0.919 -13.333   2.000  0.00  0.00    +0.155 HD
BRANCH  13  15
ATOM     15  C   UNL     1       2.837 -12.697   2.414  0.00  0.00    +0.034 A 
ATOM     16  C   UNL     1       3.461 -11.600   2.994  0.00  0.00    +0.024 A 
ATOM     17  C   UNL     1       4.750 -11.714   3.475  0.00  0.00    +0.017 A 
ATOM     18  C   UNL     1       5.420 -12.921   3.382  0.00  0.00    +0.018 A 
ATOM     19  C   UNL     1       4.802 -14.016   2.805  0.00  0.00    +0.017 A 
ATOM     20  C   UNL     1       3.511 -13.909   2.326  0.00  0.00    +0.024 A 
ATOM     21 BR   UNL     1       7.186 -13.075   4.043  0.00  0.00    -0.050 Br
ENDBRANCH  13  15
ENDBRANCH  10  11
ENDBRANCH   3   5
BRANCH   1  23
ATOM     22  N   UNL     1       0.283  -5.445  -0.079  0.00  0.00    -0.199 N 
ATOM     23  C   UNL     1       0.753  -6.708  -0.088  0.00  0.00    +0.318 C 
ATOM     24  O   UNL     1       1.950  -6.910  -0.120  0.00  0.00    -0.263 OA
ATOM     25  H   UNL     1      -0.673  -5.284  -0.054  0.00  0.00    +0.178 HD
BRANCH  22  27
ATOM     26  C   UNL     1       0.719  -3.138  -0.097  0.00  0.00    +0.136 C 
ATOM     27  N   UNL     1       1.176  -4.365  -0.106  0.00  0.00    -0.188 NA
BRANCH  26  34
ATOM     28  C   UNL     1       0.052   1.347  -0.094  0.00  0.00    +0.001 A 
ATOM     29  C   UNL     1       1.237   2.089  -0.128  0.00  0.00    +0.002 A 
ATOM     30  C   UNL     1       2.453   1.494  -0.159  0.00  0.00    +0.026 A 
ATOM     31  C   UNL     1       2.546   0.075  -0.156  0.00  0.00    +0.043 A 
ATOM     32  N   UNL     1       3.586  -0.729  -0.182  0.00  0.00    -0.380 N 
ATOM     33  C   UNL     1       3.123  -2.120  -0.165  0.00  0.00    +0.150 C 
ATOM     34  C   UNL     1       1.612  -2.057  -0.124  0.00  0.00    +0.000 C 
ATOM     35  C   UNL     1       1.294  -0.701  -0.120  0.00  0.00    +0.004 A 
ATOM     36  C   UNL     1       0.062  -0.010  -0.089  0.00  0.00    +0.010 A 
ATOM     37  H   UNL     1       4.514  -0.447  -0.208  0.00  0.00    +0.160 HD
ENDBRANCH  26  34
ENDBRANCH  22  27
ENDBRANCH   1  23
TORSDOF 6
