REMARK  Name = ZINC52547618
REMARK  7 active torsions:
REMARK  status: ('A' for Active; 'I' for Inactive)
REMARK    1  A    between atoms: C_1  and  N_2
REMARK    2  A    between atoms: N_2  and  C_3
REMARK    3  A    between atoms: N_2  and  C_10
REMARK    4  A    between atoms: C_3  and  C_4
REMARK    5  A    between atoms: C_10  and  C_11
REMARK    6  A    between atoms: C_15  and  C_18
REMARK    7  A    between atoms: C_18  and  N_19
REMARK                            x       y       z     vdW  Elec       q    Type
REMARK                         _______ _______ _______ _____ _____    ______ ____
ROOT
ATOM      1  C   UNL     1      -1.411  -0.404  -0.026  0.00  0.00    -0.047 C 
ENDROOT
BRANCH   1   2
ATOM      2  C   UNL     1      -2.109   0.099   1.239  0.00  0.00    +0.102 C 
ATOM      3  C   UNL     1      -3.547  -0.472   1.333  0.00  0.00    +0.032 C 
ATOM      4  C   UNL     1      -4.255   0.579   2.223  0.00  0.00    +0.032 C 
ATOM      5  C   UNL     1      -3.378   1.839   2.090  0.00  0.00    +0.101 C 
ATOM      6  O   UNL     1      -2.313   1.527   1.175  0.00  0.00    -0.377 OA
BRANCH   5   7
ATOM      7  C   UNL     1      -4.214   3.000   1.547  0.00  0.00    -0.054 C 
BRANCH   7   8
ATOM      8  N   UNL     1      -3.369   4.196   1.424  0.00  0.00    +0.380 N 
ATOM      9  H   UNL     1      -3.001   4.442   2.331  0.00  0.00    -0.090 HD
ATOM     10  H   UNL     1      -2.607   4.005   0.792  0.00  0.00    -0.090 HD
ATOM     11  H   UNL     1      -3.921   4.961   1.066  0.00  0.00    -0.090 HD
ENDBRANCH   7   8
ENDBRANCH   5   7
ENDBRANCH   1   2
BRANCH   1  13
ATOM     12  C   UNL     1       0.538  -0.167  -1.405  0.00  0.00    -0.096 C 
ATOM     13  N   UNL     1      -0.074   0.197  -0.120  0.00  0.00    +0.382 N 
ATOM     14  H   UNL     1      -0.151   1.201  -0.056  0.00  0.00    -0.082 HD
BRANCH  13  15
ATOM     15  C   UNL     1       0.764  -0.300   0.980  0.00  0.00    -0.043 C 
BRANCH  15  16
ATOM     16  C   UNL     1       2.095   0.408   0.957  0.00  0.00    -0.056 A 
ATOM     17  C   UNL     1       3.150  -0.106   0.226  0.00  0.00    +0.024 A 
ATOM     18  C   UNL     1       4.333   0.556   0.227  0.00  0.00    +0.055 A 
ATOM     19  S   UNL     1       3.976   1.950   1.283  0.00  0.00    -0.090 S 
ATOM     20  C   UNL     1       2.273   1.560   1.647  0.00  0.00    +0.048 A 
ATOM     21 BR   UNL     1       5.945   0.116  -0.660  0.00  0.00    -0.043 Br
ENDBRANCH  15  16
ENDBRANCH  13  15
ENDBRANCH   1  13
TORSDOF 6
