REMARK  Name = ZINC63526711
REMARK  6 active torsions:
REMARK  status: ('A' for Active; 'I' for Inactive)
REMARK    1  A    between atoms: C_1  and  C_2
REMARK    2  A    between atoms: C_2  and  C_3
REMARK    3  A    between atoms: C_2  and  C_4
REMARK    4  A    between atoms: C_2  and  C_5
REMARK    5  A    between atoms: C_16  and  O_21
REMARK    6  A    between atoms: O_21  and  C_22
REMARK                            x       y       z     vdW  Elec       q    Type
REMARK                         _______ _______ _______ _____ _____    ______ ____
ROOT
ATOM      1  C   UNL     1       0.718  -0.497  -1.257  0.00  0.00    -0.006 C 
ATOM      2  C   UNL     1       0.740  -2.027  -1.265  0.00  0.00    +0.003 C 
ATOM      3  C   UNL     1       1.453  -2.520  -2.525  0.00  0.00    -0.010 C 
ATOM      4  C   UNL     1       2.887  -1.988  -2.542  0.00  0.00    -0.044 C 
ATOM      5  C   UNL     1       2.869  -0.460  -2.528  0.00  0.00    -0.010 C 
ATOM      6  C   UNL     1       2.154   0.032  -1.268  0.00  0.00    +0.003 C 
ATOM      7  C   UNL     1       3.644  -2.508  -1.321  0.00  0.00    +0.095 C 
ATOM      8  C   UNL     1       3.745  -4.020  -1.494  0.00  0.00    -0.041 C 
ATOM      9  C   UNL     1       3.264  -4.557  -0.382  0.00  0.00    +0.002 A 
ATOM     10  C   UNL     1       3.177  -5.950   0.082  0.00  0.00    +0.055 A 
ATOM     11  C   UNL     1       2.599  -6.155   1.297  0.00  0.00    +0.121 A 
ATOM     12  C   UNL     1       2.094  -5.129   2.108  0.00  0.00    +0.047 A 
ATOM     13  C   UNL     1       2.127  -3.812   1.782  0.00  0.00    +0.029 A 
ATOM     14  C   UNL     1       2.735  -3.462   0.490  0.00  0.00    +0.043 A 
ATOM     15  N   UNL     1       2.926  -2.286  -0.067  0.00  0.00    -0.379 N 
ATOM     16  C   UNL     1       4.224  -4.634  -2.787  0.00  0.00    +0.014 C 
ATOM     17  C   UNL     1       3.460  -3.914  -3.913  0.00  0.00    -0.077 C 
ATOM     18  N   UNL     1       3.572  -2.462  -3.754  0.00  0.00    +0.385 N 
ATOM     19  H   UNL     1       3.165  -2.011  -4.559  0.00  0.00    -0.085 HD
ATOM     20  H   UNL     1       2.642  -1.426   0.281  0.00  0.00    +0.160 HD
ATOM     21  H   UNL     1       4.548  -2.212  -3.698  0.00  0.00    -0.085 HD
ENDROOT
BRANCH   1  23
ATOM     22  C   UNL     1      -0.019   1.526   0.010  0.00  0.00    +0.011 C 
ATOM     23  C   UNL     1       0.002  -0.004   0.002  0.00  0.00    -0.035 C 
ATOM     24  C   UNL     1       0.742  -0.511   1.242  0.00  0.00    +0.011 C 
ATOM     25  C   UNL     1      -1.433  -0.534   0.013  0.00  0.00    +0.011 C 
ENDBRANCH   1  23
BRANCH  11  26
ATOM     26  O   UNL     1       2.505  -7.433   1.752  0.00  0.00    -0.495 OA
ATOM     27  C   UNL     1       1.895  -7.623   3.030  0.00  0.00    +0.277 C 
ENDBRANCH  11  26
TORSDOF 2
