REMARK  Name = ZINC19365052
REMARK  6 active torsions:
REMARK  status: ('A' for Active; 'I' for Inactive)
REMARK    1  A    between atoms: C_1  and  C_2
REMARK    2  A    between atoms: C_2  and  C_3
REMARK    3  A    between atoms: C_3  and  C_4
REMARK    4  A    between atoms: N_13  and  C_14
REMARK    5  A    between atoms: C_14  and  C_15
REMARK    6  A    between atoms: C_15  and  N_16
REMARK                            x       y       z     vdW  Elec       q    Type
REMARK                         _______ _______ _______ _____ _____    ______ ____
ROOT
ATOM      1  C   UNL     1      -1.366  -0.625   0.129  0.00  0.00    +0.053 C 
ATOM      2  N   UNL     1      -2.425   0.103  -0.042  0.00  0.00    -0.286 NA
ENDROOT
BRANCH   1   3
ATOM      3  C   UNL     1      -1.500  -2.056   0.437  0.00  0.00    +0.128 A 
ATOM      4  C   UNL     1      -1.587  -2.505   1.768  0.00  0.00    +0.289 A 
ATOM      5  O   UNL     1      -1.549  -1.625   2.795  0.00  0.00    -0.265 OA
ATOM      6  N   UNL     1      -1.708  -3.806   1.999  0.00  0.00    -0.151 NA
ATOM      7  C   UNL     1      -1.747  -4.675   1.001  0.00  0.00    +0.374 A 
ATOM      8  O   UNL     1      -1.871  -5.992   1.285  0.00  0.00    -0.242 OA
ATOM      9  N   UNL     1      -1.668  -4.298  -0.265  0.00  0.00    -0.151 NA
ATOM     10  C   UNL     1      -1.552  -3.016  -0.590  0.00  0.00    +0.289 A 
ATOM     11  O   UNL     1      -1.477  -2.640  -1.888  0.00  0.00    -0.265 OA
ENDBRANCH   1   3
BRANCH   1  13
ATOM     12  C   UNL     1       0.401   0.608   1.356  0.00  0.00    +0.010 C 
ATOM     13  C   UNL     1       0.002  -0.005   0.012  0.00  0.00    +0.052 C 
ENDBRANCH   1  13
BRANCH   2  14
ATOM     14  C   UNL     1      -2.297   1.551  -0.219  0.00  0.00    +0.157 C 
BRANCH  14  15
ATOM     15  C   UNL     1      -2.790   1.940  -1.614  0.00  0.00    +0.107 C 
BRANCH  15  16
ATOM     16  N   UNL     1      -2.662   3.393  -1.791  0.00  0.00    -0.301 NA
ATOM     17  C   UNL     1      -3.562   4.116  -0.883  0.00  0.00    +0.084 C 
ATOM     18  C   UNL     1      -3.298   5.619  -0.991  0.00  0.00    +0.015 C 
ATOM     19  C   UNL     1      -3.530   6.071  -2.435  0.00  0.00    +0.002 C 
ATOM     20  C   UNL     1      -2.615   5.269  -3.365  0.00  0.00    +0.015 C 
ATOM     21  C   UNL     1      -2.899   3.776  -3.189  0.00  0.00    +0.084 C 
ENDBRANCH  15  16
ENDBRANCH  14  15
ENDBRANCH   2  14
TORSDOF 5
