REMARK  Name = ZINC50479385
REMARK  10 active torsions:
REMARK  status: ('A' for Active; 'I' for Inactive)
REMARK    1  A    between atoms: C_1  and  C_2
REMARK    2  A    between atoms: C_4  and  C_21
REMARK    3  A    between atoms: C_5  and  C_9
REMARK    4  A    between atoms: C_6  and  C_8
REMARK    5  A    between atoms: C_11  and  C_15
REMARK    6  A    between atoms: C_15  and  N_16
REMARK    7  A    between atoms: N_16  and  C_17
REMARK    8  A    between atoms: C_17  and  C_18
REMARK    9  A    between atoms: C_17  and  C_19
REMARK   10  A    between atoms: C_17  and  C_20
REMARK                            x       y       z     vdW  Elec       q    Type
REMARK                         _______ _______ _______ _____ _____    ______ ____
ROOT
ATOM      1  C   UNL     1      -0.229  -4.242   0.009  0.00  0.00    +0.066 A 
ATOM      2  C   UNL     1       0.417  -5.107   0.846  0.00  0.00    +0.050 A 
ATOM      3  C   UNL     1       0.013  -6.401   0.518  0.00  0.00    +0.047 A 
ATOM      4  N   UNL     1      -0.839  -6.334  -0.473  0.00  0.00    -0.180 NA
ATOM      5  H   UNL     1      -1.600  -4.647  -1.513  0.00  0.00    +0.189 HD
ATOM      6  N   UNL     1      -1.019  -4.987  -0.814  0.00  0.00    -0.277 N 
ENDROOT
BRANCH   1  11
ATOM      7  C   UNL     1       0.273   1.492  -0.021  0.00  0.00    +0.044 C 
ATOM      8  C   UNL     1       0.141  -0.009  -0.013  0.00  0.00    -0.050 A 
ATOM      9  C   UNL     1       1.269  -0.800  -0.145  0.00  0.00    +0.007 A 
ATOM     10  C   UNL     1       1.155  -2.175  -0.138  0.00  0.00    -0.041 A 
ATOM     11  C   UNL     1      -0.100  -2.768   0.001  0.00  0.00    +0.006 A 
ATOM     12  C   UNL     1      -1.233  -1.964   0.133  0.00  0.00    -0.041 A 
ATOM     13  C   UNL     1      -1.106  -0.591   0.131  0.00  0.00    +0.007 A 
ATOM     14  C   UNL     1      -2.593  -2.596   0.284  0.00  0.00    +0.044 C 
ATOM     15  C   UNL     1       2.384  -3.035  -0.282  0.00  0.00    +0.044 C 
ENDBRANCH   1  11
BRANCH   3  16
ATOM     16  C   UNL     1       0.481  -7.666   1.191  0.00  0.00    -0.024 C 
BRANCH  16  17
ATOM     17  N   UNL     1      -0.476  -8.046   2.238  0.00  0.00    +0.386 N 
ATOM     18  H   UNL     1      -0.541  -7.306   2.921  0.00  0.00    -0.085 HD
ATOM     19  H   UNL     1      -1.383  -8.201   1.824  0.00  0.00    -0.085 HD
BRANCH  17  20
ATOM     20  C   UNL     1      -0.020  -9.279   2.894  0.00  0.00    -0.076 C 
ATOM     21  C   UNL     1       1.355  -9.043   3.522  0.00  0.00    -0.011 C 
ATOM     22  C   UNL     1      -1.018  -9.675   3.985  0.00  0.00    -0.011 C 
ATOM     23  C   UNL     1       0.077 -10.402   1.860  0.00  0.00    -0.011 C 
ENDBRANCH  17  20
ENDBRANCH  16  17
ENDBRANCH   3  16
TORSDOF 4
