REMARK  Name = ZINC62242774
REMARK  6 active torsions:
REMARK  status: ('A' for Active; 'I' for Inactive)
REMARK    1  A    between atoms: C_1  and  C_2
REMARK    2  A    between atoms: C_5  and  N_21
REMARK    3  A    between atoms: C_7  and  N_8
REMARK    4  A    between atoms: C_9  and  C_15
REMARK    5  A    between atoms: C_10  and  C_13
REMARK    6  A    between atoms: C_13  and  N_14
REMARK                            x       y       z     vdW  Elec       q    Type
REMARK                         _______ _______ _______ _____ _____    ______ ____
ROOT
ATOM      1  N   UNL     1       0.024   0.071   2.352  0.00  0.00    -0.216 N 
ATOM      2  C   UNL     1       0.147  -0.424   3.614  0.00  0.00    +0.069 A 
ATOM      3  C   UNL     1       0.374   0.644   4.414  0.00  0.00    +0.069 A 
ATOM      4  N   UNL     1       0.379   1.721   3.621  0.00  0.00    -0.136 NA
ATOM      5  N   UNL     1       0.174   1.349   2.407  0.00  0.00    -0.060 NA
ENDROOT
BRANCH   1  12
ATOM      6  C   UNL     1      -2.081   0.903   0.625  0.00  0.00    +0.046 C 
ATOM      7  C   UNL     1      -1.236  -0.308   0.324  0.00  0.00    -0.025 A 
ATOM      8  C   UNL     1      -1.470  -1.047  -0.820  0.00  0.00    +0.007 A 
ATOM      9  C   UNL     1      -0.696  -2.158  -1.097  0.00  0.00    +0.033 A 
ATOM     10  C   UNL     1       0.314  -2.534  -0.230  0.00  0.00    +0.128 A 
ATOM     11  C   UNL     1       0.552  -1.800   0.915  0.00  0.00    +0.060 A 
ATOM     12  C   UNL     1      -0.220  -0.680   1.193  0.00  0.00    +0.072 A 
BRANCH  10  13
ATOM     13  N   UNL     1       1.140  -3.725  -0.530  0.00  0.00    +0.056 N 
ATOM     14  O   UNL     1       0.932  -4.369  -1.532  0.00  0.00    -0.126 OA
ATOM     15  O   UNL     1       2.023  -4.055   0.228  0.00  0.00    -0.126 OA
ENDBRANCH  10  13
ENDBRANCH   1  12
BRANCH   2  16
ATOM     16  C   UNL     1       0.050  -1.868   4.034  0.00  0.00    +0.040 C 
ATOM     17  C   UNL     1      -1.176  -2.057   4.929  0.00  0.00    +0.010 C 
ATOM     18  C   UNL     1      -1.274  -3.523   5.356  0.00  0.00    +0.001 C 
ATOM     19  C   UNL     1      -0.013  -3.915   6.129  0.00  0.00    +0.000 C 
ATOM     20  C   UNL     1       1.213  -3.726   5.234  0.00  0.00    +0.001 C 
ATOM     21  C   UNL     1       1.311  -2.260   4.807  0.00  0.00    +0.010 C 
ENDBRANCH   2  16
BRANCH   3  22
ATOM     22  C   UNL     1       0.581   0.623   5.907  0.00  0.00    -0.026 C 
BRANCH  22  23
ATOM     23  N   UNL     1       2.020   0.638   6.202  0.00  0.00    +0.382 N 
ATOM     24  H   UNL     1       2.415   1.519   5.907  0.00  0.00    -0.090 HD
ATOM     25  H   UNL     1       2.162   0.522   7.194  0.00  0.00    -0.090 HD
ATOM     26  H   UNL     1       2.473  -0.115   5.707  0.00  0.00    -0.090 HD
ENDBRANCH  22  23
ENDBRANCH   3  22
TORSDOF 5
