REMARK  Name = ZINC52858721
REMARK  5 active torsions:
REMARK  status: ('A' for Active; 'I' for Inactive)
REMARK    1  A    between atoms: C_4  and  N_7
REMARK    2  A    between atoms: C_8  and  S_12
REMARK    3  A    between atoms: S_12  and  C_13
REMARK    4  A    between atoms: C_18  and  C_19
REMARK    5  A    between atoms: C_19  and  N_20
REMARK                            x       y       z     vdW  Elec       q    Type
REMARK                         _______ _______ _______ _____ _____    ______ ____
ROOT
ATOM      1  S   UNL     1       2.828  -2.819   1.540  0.00  0.00    -0.048 S 
ENDROOT
BRANCH   1   2
ATOM      2  C   UNL     1       3.931  -4.120   1.982  0.00  0.00    +0.017 A 
ATOM      3  C   UNL     1       5.266  -4.060   1.600  0.00  0.00    +0.017 A 
ATOM      4  C   UNL     1       6.129  -5.080   1.948  0.00  0.00    +0.021 A 
ATOM      5  C   UNL     1       5.665  -6.163   2.675  0.00  0.00    +0.041 A 
ATOM      6  C   UNL     1       4.336  -6.226   3.056  0.00  0.00    +0.022 A 
ATOM      7  C   UNL     1       3.470  -5.205   2.716  0.00  0.00    -0.050 A 
ATOM      8 CL   UNL     1       6.752  -7.444   3.109  0.00  0.00    -0.084 Cl
BRANCH   7   9
ATOM      9  C   UNL     1       2.025  -5.271   3.137  0.00  0.00    -0.049 C 
BRANCH   9  10
ATOM     10  N   UNL     1       1.206  -5.734   2.009  0.00  0.00    +0.381 N 
ATOM     11  H   UNL     1       0.239  -5.779   2.290  0.00  0.00    -0.090 HD
ATOM     12  H   UNL     1       1.303  -5.092   1.237  0.00  0.00    -0.090 HD
ATOM     13  H   UNL     1       1.516  -6.652   1.723  0.00  0.00    -0.090 HD
ENDBRANCH   9  10
ENDBRANCH   7   9
ENDBRANCH   1   2
BRANCH   1  15
ATOM     14  N   UNL     1       1.786  -0.853   3.233  0.00  0.00    -0.187 N 
ATOM     15  C   UNL     1       2.627  -1.905   3.034  0.00  0.00    +0.219 A 
ATOM     16  N   UNL     1       3.261  -2.110   4.168  0.00  0.00    -0.101 NA
ATOM     17  N   UNL     1       2.879  -1.266   5.057  0.00  0.00    -0.022 NA
ATOM     18  N   UNL     1       1.992  -0.467   4.570  0.00  0.00    -0.038 NA
BRANCH  14  22
ATOM     19  C   UNL     1      -0.822   0.868   0.474  0.00  0.00    +0.000 A 
ATOM     20  C   UNL     1      -1.177   0.800   1.809  0.00  0.00    +0.002 A 
ATOM     21  C   UNL     1      -0.315   0.231   2.725  0.00  0.00    +0.028 A 
ATOM     22  C   UNL     1       0.909  -0.274   2.305  0.00  0.00    +0.070 A 
ATOM     23  C   UNL     1       1.261  -0.205   0.964  0.00  0.00    +0.028 A 
ATOM     24  C   UNL     1       0.395   0.366   0.052  0.00  0.00    +0.002 A 
ENDBRANCH  14  22
ENDBRANCH   1  15
TORSDOF 5
