REMARK  Name = ZINC44872472
REMARK  9 active torsions:
REMARK  status: ('A' for Active; 'I' for Inactive)
REMARK    1  A    between atoms: C_1  and  C_2
REMARK    2  A    between atoms: C_2  and  C_3
REMARK    3  A    between atoms: C_2  and  C_4
REMARK    4  A    between atoms: C_4  and  C_6
REMARK    5  A    between atoms: C_4  and  C_10
REMARK    6  A    between atoms: N_7  and  O_8
REMARK    7  A    between atoms: N_12  and  C_13
REMARK    8  A    between atoms: N_12  and  C_14
REMARK    9  A    between atoms: C_14  and  C_15
REMARK                            x       y       z     vdW  Elec       q    Type
REMARK                         _______ _______ _______ _____ _____    ______ ____
ROOT
ATOM      1  C   UNL     1      -1.190  -1.980   0.037  0.00  0.00    +0.226 C 
ATOM      2  O   UNL     1      -1.542  -2.620  -0.931  0.00  0.00    -0.275 OA
ATOM      3  N   UNL     1      -0.371  -2.537   0.952  0.00  0.00    -0.300 N 
ATOM      4  C   UNL     1       0.138  -1.732   2.065  0.00  0.00    +0.132 C 
ENDROOT
BRANCH   1   5
ATOM      5  C   UNL     1      -1.667  -0.562   0.217  0.00  0.00    +0.144 C 
BRANCH   5   6
ATOM      6  C   UNL     1      -3.047  -0.569   0.822  0.00  0.00    +0.144 C 
ATOM      7  N   UNL     1      -4.087  -0.495   0.059  0.00  0.00    -0.076 NA
ATOM      8  N   UNL     1      -3.200  -0.654   2.188  0.00  0.00    -0.343 N 
ATOM      9  H   UNL     1      -2.419  -0.709   2.761  0.00  0.00    +0.144 HD
ATOM     10  H   UNL     1      -4.088  -0.658   2.577  0.00  0.00    +0.144 HD
BRANCH   7  11
ATOM     11  O   UNL     1      -5.384  -0.501   0.627  0.00  0.00    -0.408 OA
ATOM     12  H   UNL     1      -6.098  -0.443  -0.022  0.00  0.00    +0.328 HD
ENDBRANCH   7  11
ENDBRANCH   5   6
BRANCH   5  14
ATOM     13  C   UNL     1      -2.157   1.590  -0.955  0.00  0.00    +0.008 C 
ATOM     14  C   UNL     1      -1.709   0.139  -1.143  0.00  0.00    +0.002 C 
ATOM     15  C   UNL     1      -0.316   0.112  -1.774  0.00  0.00    +0.008 C 
ENDBRANCH   5  14
ENDBRANCH   1   5
BRANCH   3  16
ATOM     16  C   UNL     1       0.008  -3.947   0.833  0.00  0.00    +0.142 C 
BRANCH  16  17
ATOM     17  C   UNL     1       1.265  -4.061   0.009  0.00  0.00    -0.029 A 
ATOM     18  C   UNL     1       1.181  -4.201  -1.364  0.00  0.00    +0.005 A 
ATOM     19  C   UNL     1       2.333  -4.306  -2.120  0.00  0.00    +0.001 A 
ATOM     20  C   UNL     1       3.570  -4.270  -1.504  0.00  0.00    +0.015 A 
ATOM     21  C   UNL     1       3.655  -4.129  -0.131  0.00  0.00    +0.018 A 
ATOM     22  C   UNL     1       2.501  -4.019   0.625  0.00  0.00    +0.020 A 
ATOM     23 BR   UNL     1       5.346  -4.081   0.713  0.00  0.00    -0.050 Br
ENDBRANCH  16  17
ENDBRANCH   3  16
TORSDOF 6
