REMARK  Name = ZINC06681588
REMARK  4 active torsions:
REMARK  status: ('A' for Active; 'I' for Inactive)
REMARK    1  A    between atoms: C_1  and  N_2
REMARK    2  A    between atoms: C_3  and  C_5
REMARK    3  A    between atoms: C_7  and  S_10
REMARK    4  A    between atoms: S_10  and  N_13
REMARK                            x       y       z     vdW  Elec       q    Type
REMARK                         _______ _______ _______ _____ _____    ______ ____
ROOT
ATOM      1  C   UNL     1      -1.481   3.446   3.125  0.00  0.00    +0.076 A 
ATOM      2  C   UNL     1      -0.725   3.134   2.006  0.00  0.00    +0.049 A 
ATOM      3  C   UNL     1      -0.927   1.900   1.439  0.00  0.00    +0.113 A 
ATOM      4  C   UNL     1      -1.832   1.054   1.997  0.00  0.00    +0.074 A 
ATOM      5  S   UNL     1      -2.446   1.961   3.341  0.00  0.00    -0.090 S 
ENDROOT
BRANCH   1   8
ATOM      6  C   UNL     1      -2.298   6.005   5.797  0.00  0.00    +0.128 C 
ATOM      7  N   UNL     1      -2.297   4.779   4.995  0.00  0.00    -0.314 N 
ATOM      8  C   UNL     1      -1.482   4.673   3.927  0.00  0.00    +0.251 C 
ATOM      9  O   UNL     1      -0.748   5.596   3.628  0.00  0.00    -0.270 OA
ATOM     10  H   UNL     1      -2.883   4.043   5.234  0.00  0.00    +0.149 HD
ENDBRANCH   1   8
BRANCH   3  11
ATOM     11  S   UNL     1      -0.017   1.417   0.010  0.00  0.00    +0.061 S 
ATOM     12  O   UNL     1       0.002  -0.004   0.002  0.00  0.00    -0.153 OA
ATOM     13  O   UNL     1       1.172   2.195   0.003  0.00  0.00    -0.153 OA
BRANCH  11  14
ATOM     14  N   UNL     1      -0.897   1.885  -1.312  0.00  0.00    -0.175 NA
ATOM     15  C   UNL     1      -1.875   0.964  -1.893  0.00  0.00    +0.120 C 
ATOM     16  C   UNL     1      -3.288   1.544  -1.709  0.00  0.00    +0.086 C 
ATOM     17  S   UNL     1      -3.346   3.188  -2.482  0.00  0.00    -0.158 S 
ATOM     18  C   UNL     1      -1.950   4.059  -1.708  0.00  0.00    +0.086 C 
ATOM     19  C   UNL     1      -0.684   3.214  -1.889  0.00  0.00    +0.120 C 
ENDBRANCH  11  14
ENDBRANCH   3  11
TORSDOF 3
