REMARK  Name = ZINC40545900
REMARK  4 active torsions:
REMARK  status: ('A' for Active; 'I' for Inactive)
REMARK    1  A    between atoms: C_1  and  C_2
REMARK    2  A    between atoms: C_3  and  C_14
REMARK    3  A    between atoms: N_5  and  C_7
REMARK    4  A    between atoms: N_25  and  C_26
REMARK                            x       y       z     vdW  Elec       q    Type
REMARK                         _______ _______ _______ _____ _____    ______ ____
ROOT
ATOM      1  C   UNL     1      -1.041   3.754  -1.069  0.00  0.00    +0.205 C 
ATOM      2  N   UNL     1       0.117   4.233  -1.833  0.00  0.00    -0.321 N 
ATOM      3  C   UNL     1       0.010   5.433  -2.527  0.00  0.00    +0.041 A 
ATOM      4  C   UNL     1       0.741   5.677  -3.678  0.00  0.00    +0.024 A 
ATOM      5  C   UNL     1       0.610   6.889  -4.328  0.00  0.00    +0.002 A 
ATOM      6  C   UNL     1      -0.246   7.862  -3.837  0.00  0.00    +0.001 A 
ATOM      7  C   UNL     1      -0.985   7.634  -2.695  0.00  0.00    +0.015 A 
ATOM      8  C   UNL     1      -0.867   6.414  -2.032  0.00  0.00    +0.058 A 
ATOM      9  C   UNL     1      -1.652   6.113  -0.823  0.00  0.00    +0.254 C 
ATOM     10  O   UNL     1      -2.293   6.989  -0.273  0.00  0.00    -0.270 OA
ATOM     11  N   UNL     1      -1.653   4.861  -0.333  0.00  0.00    -0.244 N 
ATOM     12  H   UNL     1       0.941   3.723  -1.853  0.00  0.00    +0.148 HD
ENDROOT
BRANCH  11  13
ATOM     13  C   UNL     1      -2.256   4.613   0.906  0.00  0.00    +0.042 A 
ATOM     14  C   UNL     1      -3.611   4.317   0.973  0.00  0.00    +0.027 A 
ATOM     15  C   UNL     1      -4.207   4.072   2.195  0.00  0.00    +0.051 A 
ATOM     16  C   UNL     1      -3.455   4.120   3.357  0.00  0.00    +0.166 A 
ATOM     17  C   UNL     1      -2.095   4.416   3.294  0.00  0.00    +0.168 A 
ATOM     18  C   UNL     1      -1.497   4.657   2.068  0.00  0.00    +0.073 A 
ATOM     19  O   UNL     1      -1.586   4.402   4.560  0.00  0.00    -0.453 OA
ATOM     20  C   UNL     1      -2.726   4.499   5.434  0.00  0.00    +0.466 C 
ATOM     21  O   UNL     1      -3.797   3.921   4.665  0.00  0.00    -0.453 OA
ENDBRANCH  11  13
BRANCH   1  24
ATOM     22  C   UNL     1      -2.066   0.813  -1.045  0.00  0.00    +0.065 C 
ATOM     23  C   UNL     1      -2.498   1.890  -2.006  0.00  0.00    +0.042 A 
ATOM     24  C   UNL     1      -2.054   3.163  -2.016  0.00  0.00    +0.077 A 
ATOM     25  C   UNL     1      -2.703   3.848  -3.070  0.00  0.00    +0.278 A 
ATOM     26  N   UNL     1      -3.530   2.971  -3.677  0.00  0.00    -0.219 N 
ATOM     27  N   UNL     1      -3.403   1.741  -3.019  0.00  0.00    -0.294 N 
ATOM     28  O   UNL     1      -2.546   5.016  -3.373  0.00  0.00    -0.265 OA
ATOM     29  H   UNL     1      -3.877   0.925  -3.242  0.00  0.00    +0.187 HD
BRANCH  26  30
ATOM     30  C   UNL     1      -4.360   3.241  -4.769  0.00  0.00    +0.067 A 
ATOM     31  C   UNL     1      -4.378   4.511  -5.333  0.00  0.00    +0.028 A 
ATOM     32  C   UNL     1      -5.198   4.774  -6.412  0.00  0.00    +0.002 A 
ATOM     33  C   UNL     1      -6.002   3.776  -6.931  0.00  0.00    +0.000 A 
ATOM     34  C   UNL     1      -5.986   2.511  -6.373  0.00  0.00    +0.002 A 
ATOM     35  C   UNL     1      -5.164   2.239  -5.297  0.00  0.00    +0.028 A 
ENDBRANCH  26  30
ENDBRANCH   1  24
TORSDOF 3
