REMARK  Name = ZINC53863798
REMARK  10 active torsions:
REMARK  status: ('A' for Active; 'I' for Inactive)
REMARK    1  A    between atoms: C_1  and  C_2
REMARK    2  A    between atoms: C_2  and  C_3
REMARK    3  A    between atoms: C_7  and  N_23
REMARK    4  A    between atoms: C_9  and  C_12
REMARK    5  A    between atoms: C_12  and  N_13
REMARK    6  A    between atoms: C_18  and  C_20
REMARK    7  A    between atoms: C_20  and  C_21
REMARK    8  A    between atoms: C_21  and  O_22
REMARK    9  A    between atoms: N_23  and  C_24
REMARK   10  A    between atoms: C_24  and  C_25
REMARK                            x       y       z     vdW  Elec       q    Type
REMARK                         _______ _______ _______ _____ _____    ______ ____
ROOT
ATOM      1  C   UNL     1       1.592  -0.840   1.020  0.00  0.00    -0.011 C 
ATOM      2  C   UNL     1       2.980  -0.485   1.557  0.00  0.00    +0.002 C 
ATOM      3  C   UNL     1       3.088  -0.921   3.020  0.00  0.00    -0.015 C 
ATOM      4  C   UNL     1       2.874  -2.433   3.118  0.00  0.00    -0.070 C 
ATOM      5  C   UNL     1       1.486  -2.788   2.581  0.00  0.00    -0.042 C 
ATOM      6  C   UNL     1       1.378  -2.352   1.119  0.00  0.00    +0.003 C 
ENDROOT
BRANCH   4   7
ATOM      7  N   UNL     1       2.977  -2.852   4.523  0.00  0.00    +0.381 N 
ATOM      8  H   UNL     1       2.330  -2.316   5.082  0.00  0.00    -0.086 HD
ATOM      9  H   UNL     1       2.755  -3.833   4.598  0.00  0.00    -0.086 HD
BRANCH   7  10
ATOM     10  C   UNL     1       4.346  -2.621   5.003  0.00  0.00    -0.086 C 
ATOM     11  C   UNL     1       4.453  -3.057   6.466  0.00  0.00    -0.017 C 
ENDBRANCH   7  10
ENDBRANCH   4   7
BRANCH   1  13
ATOM     12  C   UNL     1       1.574   1.121  -0.528  0.00  0.00    +0.004 C 
ATOM     13  C   UNL     1       1.485  -0.404  -0.443  0.00  0.00    +0.000 C 
ENDBRANCH   1  13
BRANCH   5  14
ATOM     14  C   UNL     1       1.271  -4.299   2.680  0.00  0.00    -0.077 C 
BRANCH  14  15
ATOM     15  N   UNL     1      -0.150  -4.577   2.923  0.00  0.00    +0.382 N 
ATOM     16  C   UNL     1      -0.569  -3.925   4.170  0.00  0.00    -0.078 C 
ATOM     17  C   UNL     1      -2.027  -4.278   4.470  0.00  0.00    -0.019 C 
ATOM     18  C   UNL     1      -2.912  -3.795   3.317  0.00  0.00    -0.003 C 
ATOM     19  C   UNL     1      -2.419  -4.425   2.011  0.00  0.00    -0.015 C 
ATOM     20  C   UNL     1      -0.947  -4.066   1.801  0.00  0.00    -0.066 C 
ATOM     21  H   UNL     1      -0.288  -5.574   3.005  0.00  0.00    -0.081 HD
BRANCH  20  22
ATOM     22  C   UNL     1      -0.450  -4.693   0.497  0.00  0.00    +0.012 C 
BRANCH  22  23
ATOM     23  C   UNL     1      -1.212  -4.085  -0.683  0.00  0.00    +0.154 C 
BRANCH  23  24
ATOM     24  O   UNL     1      -0.663  -4.577  -1.907  0.00  0.00    -0.395 OA
ATOM     25  H   UNL     1      -1.099  -4.232  -2.700  0.00  0.00    +0.209 HD
ENDBRANCH  23  24
ENDBRANCH  22  23
ENDBRANCH  20  22
ENDBRANCH  14  15
ENDBRANCH   5  14
TORSDOF 8
