REMARK  Name = ZINC35430533
REMARK  7 active torsions:
REMARK  status: ('A' for Active; 'I' for Inactive)
REMARK    1  A    between atoms: C_1  and  C_2
REMARK    2  A    between atoms: C_2  and  O_3
REMARK    3  A    between atoms: O_3  and  C_4
REMARK    4  A    between atoms: C_9  and  O_10
REMARK    5  A    between atoms: O_10  and  C_11
REMARK    6  A    between atoms: C_12  and  C_19
REMARK    7  A    between atoms: C_19  and  N_20
REMARK                            x       y       z     vdW  Elec       q    Type
REMARK                         _______ _______ _______ _____ _____    ______ ____
ROOT
ATOM      1  C   UNL     1      -5.095  -2.169  -0.066  0.00  0.00    +0.241 A 
ATOM      2  C   UNL     1      -6.270  -1.517  -0.168  0.00  0.00    +0.070 A 
ATOM      3  N   UNL     1      -7.281  -2.477  -0.243  0.00  0.00    -0.296 N 
ATOM      4  C   UNL     1      -8.654  -2.518  -0.355  0.00  0.00    +0.100 A 
ATOM      5  C   UNL     1      -9.301  -3.681  -0.398  0.00  0.00    +0.067 A 
ATOM      6  S   UNL     1      -7.959  -4.854  -0.279  0.00  0.00    -0.058 S 
ATOM      7  C   UNL     1      -6.628  -3.679  -0.179  0.00  0.00    +0.181 A 
ATOM      8  N   UNL     1      -5.343  -3.490  -0.081  0.00  0.00    -0.186 NA
ENDROOT
BRANCH   1   9
ATOM      9  O   UNL     1      -3.868  -1.590   0.030  0.00  0.00    -0.433 OA
BRANCH   9  15
ATOM     10  C   UNL     1      -1.511  -1.876   0.239  0.00  0.00    +0.163 A 
ATOM     11  C   UNL     1      -0.401  -2.704   0.194  0.00  0.00    +0.049 A 
ATOM     12  C   UNL     1      -0.550  -4.044  -0.113  0.00  0.00    +0.004 A 
ATOM     13  C   UNL     1      -1.806  -4.561  -0.374  0.00  0.00    +0.004 A 
ATOM     14  C   UNL     1      -2.917  -3.740  -0.331  0.00  0.00    +0.050 A 
ATOM     15  C   UNL     1      -2.775  -2.397  -0.019  0.00  0.00    +0.172 A 
BRANCH  10  16
ATOM     16  O   UNL     1      -1.365  -0.558   0.541  0.00  0.00    -0.489 OA
BRANCH  16  18
ATOM     17  C   UNL     1      -0.074   1.403   1.113  0.00  0.00    +0.048 C 
ATOM     18  C   UNL     1      -0.038  -0.093   0.794  0.00  0.00    +0.226 C 
ENDBRANCH  16  18
ENDBRANCH  10  16
ENDBRANCH   9  15
ENDBRANCH   1   9
BRANCH   2  19
ATOM     19  C   UNL     1      -6.459  -0.022  -0.195  0.00  0.00    -0.026 C 
BRANCH  19  20
ATOM     20  N   UNL     1      -6.633   0.475   1.177  0.00  0.00    +0.382 N 
ATOM     21  H   UNL     1      -5.815   0.249   1.723  0.00  0.00    -0.090 HD
ATOM     22  H   UNL     1      -6.759   1.476   1.159  0.00  0.00    -0.090 HD
ATOM     23  H   UNL     1      -7.444   0.041   1.591  0.00  0.00    -0.090 HD
ENDBRANCH  19  20
ENDBRANCH   2  19
TORSDOF 6
