REMARK  Name = ZINC13266951
REMARK  7 active torsions:
REMARK  status: ('A' for Active; 'I' for Inactive)
REMARK    1  A    between atoms: C_2  and  C_3
REMARK    2  A    between atoms: C_3  and  N_4
REMARK    3  A    between atoms: C_8  and  C_10
REMARK    4  A    between atoms: C_10  and  S_11
REMARK    5  A    between atoms: S_11  and  C_12
REMARK    6  A    between atoms: C_16  and  C_30
REMARK    7  A    between atoms: N_22  and  C_23
REMARK                            x       y       z     vdW  Elec       q    Type
REMARK                         _______ _______ _______ _____ _____    ______ ____
ROOT
ATOM      1  C   UNL     1      -5.986   1.989   0.541  0.00  0.00    +0.177 A 
ATOM      2  N   UNL     1      -4.842   1.351   0.563  0.00  0.00    -0.223 NA
ATOM      3  C   UNL     1      -3.705   1.918   0.094  0.00  0.00    +0.080 A 
ATOM      4  C   UNL     1      -2.486   1.236   0.119  0.00  0.00    +0.043 A 
ATOM      5  C   UNL     1      -1.345   1.858  -0.374  0.00  0.00    +0.065 A 
ATOM      6  C   UNL     1      -1.411   3.160  -0.887  0.00  0.00    +0.016 A 
ATOM      7  C   UNL     1      -2.598   3.833  -0.923  0.00  0.00    +0.016 A 
ATOM      8  C   UNL     1      -3.756   3.229  -0.433  0.00  0.00    +0.065 A 
ATOM      9  C   UNL     1      -5.053   3.921  -0.446  0.00  0.00    +0.267 A 
ATOM     10  O   UNL     1      -5.161   5.051  -0.887  0.00  0.00    -0.267 OA
ATOM     11  N   UNL     1      -6.123   3.257   0.050  0.00  0.00    -0.255 N 
ENDROOT
BRANCH  11  12
ATOM     12  C   UNL     1      -7.381   3.875   0.060  0.00  0.00    +0.052 A 
ATOM     13  C   UNL     1      -8.232   3.736  -1.028  0.00  0.00    +0.029 A 
ATOM     14  C   UNL     1      -9.474   4.340  -1.013  0.00  0.00    +0.040 A 
ATOM     15  C   UNL     1      -9.866   5.094   0.081  0.00  0.00    +0.124 A 
ATOM     16  C   UNL     1      -9.016   5.239   1.164  0.00  0.00    +0.040 A 
ATOM     17  C   UNL     1      -7.776   4.631   1.156  0.00  0.00    +0.029 A 
ATOM     18  F   UNL     1     -11.079   5.689   0.090  0.00  0.00    -0.205 F 
ENDBRANCH  11  12
BRANCH   5  19
ATOM     19  C   UNL     1      -0.051   1.142  -0.350  0.00  0.00    +0.387 C 
ATOM     20  O   UNL     1       0.013   0.016   0.098  0.00  0.00    -0.241 OA
ATOM     21  O   UNL     1       1.057   1.738  -0.832  0.00  0.00    -0.241 OA
ENDBRANCH   5  19
BRANCH   1  22
ATOM     22  S   UNL     1      -7.414   1.174   1.174  0.00  0.00    -0.078 S 
BRANCH  22  23
ATOM     23  C   UNL     1      -6.682  -0.406   1.668  0.00  0.00    +0.173 C 
BRANCH  23  28
ATOM     24  N   UNL     1      -8.072  -4.555   3.659  0.00  0.00    -0.296 N 
ATOM     25  C   UNL     1      -8.388  -3.321   3.220  0.00  0.00    +0.306 C 
ATOM     26  O   UNL     1      -9.534  -2.923   3.296  0.00  0.00    -0.252 OA
ATOM     27  N   UNL     1      -7.433  -2.527   2.695  0.00  0.00    -0.239 N 
ATOM     28  C   UNL     1      -7.749  -1.293   2.255  0.00  0.00    +0.231 C 
ATOM     29  O   UNL     1      -8.893  -0.897   2.331  0.00  0.00    -0.274 OA
ATOM     30  H   UNL     1      -7.157  -4.872   3.598  0.00  0.00    +0.151 HD
ATOM     31  H   UNL     1      -6.519  -2.844   2.634  0.00  0.00    +0.159 HD
BRANCH  24  32
ATOM     32  C   UNL     1      -9.110  -5.417   4.230  0.00  0.00    +0.132 C 
BRANCH  32  34
ATOM     33  C   UNL     1      -8.640  -7.163   5.870  0.00  0.00    +0.005 C 
ATOM     34  C   UNL     1      -8.500  -6.732   4.641  0.00  0.00    -0.016 C 
ENDBRANCH  32  34
ENDBRANCH  24  32
ENDBRANCH  23  28
ENDBRANCH  22  23
ENDBRANCH   1  22
TORSDOF 7
