REMARK  Name = ZINC49554686
REMARK  4 active torsions:
REMARK  status: ('A' for Active; 'I' for Inactive)
REMARK    1  A    between atoms: C_1  and  C_2
REMARK    2  A    between atoms: C_5  and  S_9
REMARK    3  A    between atoms: C_7  and  N_8
REMARK    4  A    between atoms: S_9  and  N_12
REMARK                            x       y       z     vdW  Elec       q    Type
REMARK                         _______ _______ _______ _____ _____    ______ ____
ROOT
ATOM      1  S   UNL     1       0.062  -4.535  -0.031  0.00  0.00    +0.101 S 
ATOM      2  O   UNL     1      -0.477  -4.960   1.213  0.00  0.00    -0.146 OA
ATOM      3  O   UNL     1      -0.490  -4.937  -1.277  0.00  0.00    -0.146 OA
ENDROOT
BRANCH   1   4
ATOM      4  N   UNL     1       1.650  -5.004  -0.044  0.00  0.00    -0.103 NA
ATOM      5  C   UNL     1       1.956  -6.278  -0.057  0.00  0.00    +0.192 A 
ATOM      6  N   UNL     1       1.128  -7.374  -0.069  0.00  0.00    -0.336 N 
ATOM      7  C   UNL     1       1.671  -8.642  -0.082  0.00  0.00    +0.028 A 
ATOM      8  C   UNL     1       3.006  -8.741  -0.084  0.00  0.00    +0.012 A 
ATOM      9  S   UNL     1       3.565  -7.057  -0.073  0.00  0.00    -0.053 S 
ATOM     10  C   UNL     1       3.834  -9.986  -0.097  0.00  0.00    +0.044 C 
ATOM     11  C   UNL     1       2.931 -11.175   0.259  0.00  0.00    +0.006 C 
ATOM     12  C   UNL     1       1.649 -11.080  -0.575  0.00  0.00    +0.006 C 
ATOM     13  C   UNL     1       0.805  -9.899  -0.095  0.00  0.00    +0.054 C 
ATOM     14  H   UNL     1       0.165  -7.257  -0.067  0.00  0.00    +0.168 HD
ENDBRANCH   1   4
BRANCH   1  19
ATOM     15  C   UNL     1      -0.018   1.503   0.010  0.00  0.00    +0.045 C 
ATOM     16  C   UNL     1       0.002  -0.004   0.002  0.00  0.00    -0.030 A 
ATOM     17  C   UNL     1       0.006  -0.689  -1.198  0.00  0.00    +0.007 A 
ATOM     18  C   UNL     1       0.024  -2.071  -1.206  0.00  0.00    +0.029 A 
ATOM     19  C   UNL     1       0.039  -2.773  -0.014  0.00  0.00    +0.114 A 
ATOM     20  C   UNL     1       0.036  -2.095   1.188  0.00  0.00    +0.052 A 
ATOM     21  C   UNL     1       0.023  -0.706   1.200  0.00  0.00    +0.029 A 
BRANCH  21  22
ATOM     22  N   UNL     1       0.025  -0.016   2.415  0.00  0.00    -0.358 N 
ATOM     23  H   UNL     1       0.012   0.954   2.422  0.00  0.00    +0.142 HD
ATOM     24  H   UNL     1       0.040  -0.507   3.252  0.00  0.00    +0.142 HD
ENDBRANCH  21  22
ENDBRANCH   1  19
TORSDOF 3
