REMARK  Name = ZINC49928410
REMARK  4 active torsions:
REMARK  status: ('A' for Active; 'I' for Inactive)
REMARK    1  A    between atoms: C_6  and  C_7
REMARK    2  A    between atoms: C_7  and  C_8
REMARK    3  A    between atoms: C_14  and  C_16
REMARK    4  A    between atoms: C_16  and  N_17
REMARK                            x       y       z     vdW  Elec       q    Type
REMARK                         _______ _______ _______ _____ _____    ______ ____
ROOT
ATOM      1  C   UNL     1      -1.739  -1.024  -1.407  0.00  0.00    +0.160 A 
ATOM      2  N   UNL     1      -2.500  -0.242  -2.119  0.00  0.00    -0.131 NA
ATOM      3  N   UNL     1      -2.687  -0.752  -3.287  0.00  0.00    -0.120 NA
ATOM      4  C   UNL     1      -2.052  -1.882  -3.370  0.00  0.00    +0.218 A 
ATOM      5  N   UNL     1      -1.407  -2.118  -2.181  0.00  0.00    -0.190 N 
ATOM      6  N   UNL     1      -0.669  -3.291  -2.099  0.00  0.00    -0.163 NA
ATOM      7  C   UNL     1      -0.595  -4.116  -3.101  0.00  0.00    +0.085 A 
ATOM      8  S   UNL     1      -1.609  -3.308  -4.330  0.00  0.00    -0.033 S 
ENDROOT
BRANCH   1   9
ATOM      9  C   UNL     1      -1.293  -0.775   0.011  0.00  0.00    +0.113 C 
BRANCH   9  15
ATOM     10  C   UNL     1      -0.017   1.378   0.010  0.00  0.00    +0.005 A 
ATOM     11  C   UNL     1       1.171   2.086   0.002  0.00  0.00    +0.022 A 
ATOM     12  C   UNL     1       2.378   1.412  -0.013  0.00  0.00    +0.059 A 
ATOM     13  C   UNL     1       2.397   0.027  -0.021  0.00  0.00    +0.060 A 
ATOM     14  C   UNL     1       1.208  -0.680  -0.013  0.00  0.00    +0.025 A 
ATOM     15  C   UNL     1       0.002  -0.004   0.002  0.00  0.00    -0.039 A 
ATOM     16 CL   UNL     1       3.912  -0.821  -0.040  0.00  0.00    -0.082 Cl
ATOM     17 CL   UNL     1       3.869   2.301  -0.023  0.00  0.00    -0.082 Cl
ENDBRANCH   9  15
ENDBRANCH   1   9
BRANCH   7  18
ATOM     18  C   UNL     1       0.148  -5.423  -3.198  0.00  0.00    -0.020 C 
BRANCH  18  19
ATOM     19  N   UNL     1       0.840  -5.688  -1.929  0.00  0.00    +0.382 N 
ATOM     20  H   UNL     1       1.493  -4.943  -1.740  0.00  0.00    -0.090 HD
ATOM     21  H   UNL     1       0.164  -5.740  -1.182  0.00  0.00    -0.090 HD
ATOM     22  H   UNL     1       1.338  -6.563  -1.994  0.00  0.00    -0.090 HD
ENDBRANCH  18  19
ENDBRANCH   7  18
TORSDOF 4
