REMARK  Name = ZINC14642060
REMARK  10 active torsions:
REMARK  status: ('A' for Active; 'I' for Inactive)
REMARK    1  A    between atoms: C_1  and  O_2
REMARK    2  A    between atoms: O_2  and  C_3
REMARK    3  A    between atoms: C_5  and  C_10
REMARK    4  A    between atoms: C_8  and  O_9
REMARK    5  A    between atoms: C_10  and  C_11
REMARK    6  A    between atoms: C_15  and  C_21
REMARK    7  A    between atoms: C_17  and  C_19
REMARK    8  A    between atoms: C_19  and  O_20
REMARK    9  A    between atoms: C_24  and  O_28
REMARK   10  A    between atoms: C_25  and  O_27
REMARK                            x       y       z     vdW  Elec       q    Type
REMARK                         _______ _______ _______ _____ _____    ______ ____
ROOT
ATOM      1  C   UNL     1       6.171   5.260  -1.061  0.00  0.00    +0.027 C 
ATOM      2  C   UNL     1       6.865   3.918  -1.385  0.00  0.00    +0.165 C 
ATOM      3  O   UNL     1       5.836   2.920  -1.212  0.00  0.00    -0.371 OA
ATOM      4  C   UNL     1       5.106   3.326  -0.034  0.00  0.00    +0.154 C 
ATOM      5  C   UNL     1       4.988   4.861  -0.151  0.00  0.00    +0.053 C 
ENDROOT
BRANCH   4   6
ATOM      6  C   UNL     1       3.738   2.693  -0.020  0.00  0.00    -0.015 A 
ATOM      7  C   UNL     1       3.098   2.410  -1.212  0.00  0.00    +0.010 A 
ATOM      8  C   UNL     1       1.843   1.830  -1.205  0.00  0.00    +0.049 A 
ATOM      9  C   UNL     1       1.224   1.533  -0.001  0.00  0.00    +0.158 A 
ATOM     10  C   UNL     1       1.866   1.824   1.198  0.00  0.00    +0.159 A 
ATOM     11  C   UNL     1       3.126   2.399   1.184  0.00  0.00    +0.055 A 
BRANCH  10  12
ATOM     12  O   UNL     1       1.260   1.539   2.382  0.00  0.00    -0.503 OA
ATOM     13  H   UNL     1       1.455   0.654   2.721  0.00  0.00    +0.292 HD
ENDBRANCH  10  12
BRANCH   9  14
ATOM     14  O   UNL     1      -0.011   0.963   0.007  0.00  0.00    -0.503 OA
ATOM     15  H   UNL     1       0.002  -0.004   0.002  0.00  0.00    +0.292 HD
ENDBRANCH   9  14
ENDBRANCH   4   6
BRANCH   1  16
ATOM     16  C   UNL     1       7.129   6.193  -0.316  0.00  0.00    +0.041 C 
BRANCH  16  19
ATOM     17  C   UNL     1      10.368   6.373  -2.253  0.00  0.00    +0.162 A 
ATOM     18  C   UNL     1       9.379   5.944  -1.382  0.00  0.00    +0.053 A 
ATOM     19  C   UNL     1       8.206   6.664  -1.259  0.00  0.00    -0.043 A 
ATOM     20  C   UNL     1       8.021   7.820  -1.995  0.00  0.00    +0.007 A 
ATOM     21  C   UNL     1       9.005   8.257  -2.861  0.00  0.00    +0.049 A 
ATOM     22  C   UNL     1      10.181   7.536  -2.994  0.00  0.00    +0.158 A 
BRANCH  17  24
ATOM     23  C   UNL     1      11.642   4.478  -1.589  0.00  0.00    +0.277 C 
ATOM     24  O   UNL     1      11.520   5.662  -2.380  0.00  0.00    -0.491 OA
ENDBRANCH  17  24
BRANCH  22  25
ATOM     25  O   UNL     1      11.151   7.964  -3.846  0.00  0.00    -0.503 OA
ATOM     26  H   UNL     1      11.794   8.561  -3.441  0.00  0.00    +0.292 HD
ENDBRANCH  22  25
ENDBRANCH  16  19
ENDBRANCH   1  16
BRANCH   5  27
ATOM     27  C   UNL     1       3.658   5.248  -0.802  0.00  0.00    +0.162 C 
BRANCH  27  28
ATOM     28  O   UNL     1       2.581   4.893   0.068  0.00  0.00    -0.395 OA
ATOM     29  H   UNL     1       1.706   5.110  -0.281  0.00  0.00    +0.209 HD
ENDBRANCH  27  28
ENDBRANCH   5  27
TORSDOF 9
