REMARK  Name = ZINC58005751
REMARK  8 active torsions:
REMARK  status: ('A' for Active; 'I' for Inactive)
REMARK    1  A    between atoms: C_1  and  C_2
REMARK    2  A    between atoms: C_2  and  C_3
REMARK    3  A    between atoms: C_3  and  C_19
REMARK    4  A    between atoms: N_5  and  C_14
REMARK    5  A    between atoms: C_14  and  C_16
REMARK    6  A    between atoms: C_14  and  C_17
REMARK    7  A    between atoms: C_17  and  N_18
REMARK    8  A    between atoms: C_19  and  C_20
REMARK                            x       y       z     vdW  Elec       q    Type
REMARK                         _______ _______ _______ _____ _____    ______ ____
ROOT
ATOM      1  C   UNL     1      -1.404  -0.835   0.569  0.00  0.00    +0.126 C 
ATOM      2  C   UNL     1      -1.442  -2.366   0.682  0.00  0.00    +0.153 C 
ATOM      3  N   UNL     1      -2.849  -2.787   0.566  0.00  0.00    -0.322 N 
ATOM      4  C   UNL     1      -3.641  -2.154  -0.405  0.00  0.00    +0.074 A 
ATOM      5  C   UNL     1      -4.868  -2.692  -0.758  0.00  0.00    +0.046 A 
ATOM      6  C   UNL     1      -5.647  -2.063  -1.713  0.00  0.00    +0.043 A 
ATOM      7  C   UNL     1      -5.201  -0.899  -2.314  0.00  0.00    +0.024 A 
ATOM      8  C   UNL     1      -3.976  -0.360  -1.966  0.00  0.00    +0.049 A 
ATOM      9  C   UNL     1      -3.188  -0.985  -1.011  0.00  0.00    +0.142 A 
ATOM     10  O   UNL     1      -1.982  -0.452  -0.681  0.00  0.00    -0.482 OA
ATOM     11 CL   UNL     1      -7.185  -2.734  -2.157  0.00  0.00    -0.083 Cl
ENDROOT
BRANCH   1  13
ATOM     12  C   UNL     1       0.083   1.171   0.487  0.00  0.00    +0.008 C 
ATOM     13  C   UNL     1       0.046  -0.352   0.633  0.00  0.00    +0.046 C 
ENDBRANCH   1  13
BRANCH   3  14
ATOM     14  C   UNL     1      -3.402  -3.830   1.433  0.00  0.00    +0.053 C 
ATOM     15  C   UNL     1      -3.171  -3.451   2.898  0.00  0.00    +0.026 C 
BRANCH  14  16
ATOM     16  C   UNL     1      -2.709  -5.161   1.135  0.00  0.00    -0.064 C 
BRANCH  16  17
ATOM     17  N   UNL     1      -2.843  -5.474  -0.294  0.00  0.00    +0.379 N 
ATOM     18  H   UNL     1      -2.343  -4.786  -0.837  0.00  0.00    -0.090 HD
ATOM     19  H   UNL     1      -2.460  -6.389  -0.475  0.00  0.00    -0.090 HD
ATOM     20  H   UNL     1      -3.819  -5.460  -0.551  0.00  0.00    -0.090 HD
ENDBRANCH  16  17
ENDBRANCH  14  16
ENDBRANCH   3  14
BRANCH   1  21
ATOM     21  C   UNL     1      -2.204  -0.213   1.716  0.00  0.00    +0.046 C 
ATOM     22  C   UNL     1      -1.501  -0.504   3.043  0.00  0.00    +0.008 C 
ENDBRANCH   1  21
TORSDOF 5
