REMARK  Name = ZINC03985241
REMARK  5 active torsions:
REMARK  status: ('A' for Active; 'I' for Inactive)
REMARK    1  A    between atoms: C_1  and  C_2
REMARK    2  A    between atoms: C_5  and  C_32
REMARK    3  A    between atoms: C_6  and  N_8
REMARK    4  A    between atoms: C_11  and  C_18
REMARK    5  A    between atoms: C_12  and  O_17
REMARK                            x       y       z     vdW  Elec       q    Type
REMARK                         _______ _______ _______ _____ _____    ______ ____
ROOT
ATOM      1  N   UNL     1       2.918   3.441   0.096  0.00  0.00    -0.229 N 
ATOM      2  C   UNL     1       1.648   2.991   0.108  0.00  0.00    +0.267 A 
ATOM      3  O   UNL     1       0.720   3.775   0.214  0.00  0.00    -0.267 OA
ATOM      4  C   UNL     1       1.400   1.611  -0.003  0.00  0.00    +0.069 A 
ATOM      5  C   UNL     1       2.455   0.755  -0.114  0.00  0.00    +0.201 A 
ATOM      6  N   UNL     1       3.732   1.256  -0.127  0.00  0.00    -0.278 N 
ATOM      7  H   UNL     1       4.509   0.633  -0.216  0.00  0.00    +0.173 HD
ATOM      8  C   UNL     1       3.946   2.581  -0.020  0.00  0.00    +0.337 A 
ATOM      9  O   UNL     1       5.085   3.006  -0.029  0.00  0.00    -0.246 OA
ENDROOT
BRANCH   4  10
ATOM     10  C   UNL     1      -0.013   1.086   0.008  0.00  0.00    +0.018 C 
ATOM     11  C   UNL     1      -0.751   1.590  -1.209  0.00  0.00    +0.011 A 
ATOM     12  C   UNL     1      -2.023   2.059  -1.153  0.00  0.00    -0.022 A 
ATOM     13  C   UNL     1      -2.391   2.449  -2.496  0.00  0.00    +0.003 A 
ATOM     14  C   UNL     1      -3.558   2.994  -3.042  0.00  0.00    +0.010 A 
ATOM     15  C   UNL     1      -3.554   3.243  -4.392  0.00  0.00    +0.001 A 
ATOM     16  C   UNL     1      -2.452   2.973  -5.188  0.00  0.00    +0.002 A 
ATOM     17  C   UNL     1      -1.285   2.435  -4.674  0.00  0.00    +0.026 A 
ATOM     18  C   UNL     1      -1.260   2.171  -3.307  0.00  0.00    +0.047 A 
ATOM     19  N   UNL     1      -0.293   1.652  -2.493  0.00  0.00    -0.359 N 
ATOM     20  H   UNL     1       0.589   1.371  -2.783  0.00  0.00    +0.166 HD
ATOM     21  C   UNL     1      -2.832   2.127   0.118  0.00  0.00    +0.018 C 
ATOM     22  C   UNL     1      -2.143   1.243   1.167  0.00  0.00    -0.076 C 
ATOM     23  N   UNL     1      -0.704   1.571   1.223  0.00  0.00    +0.388 N 
ATOM     24  H   UNL     1      -0.592   2.589   1.291  0.00  0.00    -0.084 HD
ATOM     25  H   UNL     1      -0.288   1.125   2.049  0.00  0.00    -0.084 HD
ENDBRANCH   4  10
BRANCH   1  31
ATOM     26  C   UNL     1       3.776   7.376   2.918  0.00  0.00    +0.044 C 
ATOM     27  C   UNL     1       3.590   6.748   1.562  0.00  0.00    -0.048 A 
ATOM     28  C   UNL     1       3.666   7.528   0.422  0.00  0.00    +0.004 A 
ATOM     29  C   UNL     1       3.495   6.955  -0.824  0.00  0.00    +0.005 A 
ATOM     30  C   UNL     1       3.247   5.601  -0.936  0.00  0.00    -0.026 A 
ATOM     31  C   UNL     1       3.170   4.815   0.206  0.00  0.00    +0.058 A 
ATOM     32  C   UNL     1       3.337   5.394   1.457  0.00  0.00    +0.030 A 
ATOM     33  C   UNL     1       3.060   4.978  -2.295  0.00  0.00    +0.046 C 
ENDBRANCH   1  31
BRANCH   5  34
ATOM     34  O   UNL     1       2.245  -0.574  -0.216  0.00  0.00    -0.493 OA
ATOM     35  H   UNL     1       3.055  -1.096  -0.290  0.00  0.00    +0.294 HD
ENDBRANCH   5  34
TORSDOF 3
