REMARK  Name = ZINC06300693
REMARK  6 active torsions:
REMARK  status: ('A' for Active; 'I' for Inactive)
REMARK    1  A    between atoms: C_1  and  C_2
REMARK    2  A    between atoms: C_4  and  C_33
REMARK    3  A    between atoms: C_9  and  C_14
REMARK    4  A    between atoms: C_14  and  C_16
REMARK    5  A    between atoms: C_14  and  N_66
REMARK    6  A    between atoms: N_20  and  C_21
REMARK                            x       y       z     vdW  Elec       q    Type
REMARK                         _______ _______ _______ _____ _____    ______ ____
ROOT
ATOM      1  C   UNL     1       3.733   2.135  -0.020  0.00  0.00    +0.039 C 
ENDROOT
BRANCH   1  10
ATOM      2  C   UNL     1      -3.715   2.379   0.271  0.00  0.00    +0.044 C 
ATOM      3  C   UNL     1      -2.429   1.601   0.167  0.00  0.00    -0.050 A 
ATOM      4  C   UNL     1      -2.468   0.217   0.066  0.00  0.00    +0.008 A 
ATOM      5  C   UNL     1      -1.304  -0.515  -0.030  0.00  0.00    -0.026 A 
ATOM      6  C   UNL     1      -0.076   0.139  -0.028  0.00  0.00    +0.052 A 
ATOM      7  C   UNL     1      -0.040   1.542   0.074  0.00  0.00    -0.001 A 
ATOM      8  C   UNL     1      -1.234   2.264   0.176  0.00  0.00    +0.013 A 
ATOM      9  C   UNL     1       1.257   2.220   0.075  0.00  0.00    +0.017 A 
ATOM     10  C   UNL     1       2.381   1.468  -0.020  0.00  0.00    +0.011 A 
ATOM     11  C   UNL     1       2.290   0.064  -0.120  0.00  0.00    +0.251 A 
ATOM     12  O   UNL     1       3.313  -0.593  -0.205  0.00  0.00    -0.268 OA
ATOM     13  N   UNL     1       1.104  -0.568  -0.123  0.00  0.00    -0.322 N 
ATOM     14  H   UNL     1       1.077  -1.535  -0.193  0.00  0.00    +0.169 HD
ATOM     15  C   UNL     1      -1.362  -2.017  -0.139  0.00  0.00    +0.046 C 
ENDBRANCH   1  10
BRANCH   1  22
ATOM     16  C   UNL     1       5.897   2.166  -1.126  0.00  0.00    -0.077 C 
ATOM     17  C   UNL     1       6.640   1.982  -2.421  0.00  0.00    -0.019 C 
ATOM     18  C   UNL     1       6.539   3.291  -3.233  0.00  0.00    -0.002 C 
ATOM     19  C   UNL     1       5.249   3.426  -3.900  0.00  0.00    -0.002 C 
ATOM     20  C   UNL     1       4.076   3.464  -2.899  0.00  0.00    -0.019 C 
ATOM     21  C   UNL     1       3.788   2.058  -2.448  0.00  0.00    -0.077 C 
ATOM     22  N   UNL     1       4.488   1.646  -1.184  0.00  0.00    +0.389 N 
ATOM     23  H   UNL     1       4.520   0.620  -1.151  0.00  0.00    -0.080 HD
ENDBRANCH   1  22
BRANCH   1  24
ATOM     24  C   UNL     1       4.481   1.754   1.231  0.00  0.00    +0.143 A 
ATOM     25  N   UNL     1       5.088   0.616   1.464  0.00  0.00    -0.115 NA
ATOM     26  N   UNL     1       5.609   0.676   2.641  0.00  0.00    -0.023 NA
ATOM     27  N   UNL     1       5.350   1.823   3.165  0.00  0.00    -0.044 NA
ATOM     28  N   UNL     1       4.661   2.518   2.325  0.00  0.00    -0.227 N 
BRANCH  28  29
ATOM     29  C   UNL     1       4.164   3.881   2.525  0.00  0.00    +0.111 C 
ATOM     30  C   UNL     1       5.345   4.825   2.758  0.00  0.00    +0.027 C 
ATOM     31  C   UNL     1       4.826   6.250   2.967  0.00  0.00    +0.002 C 
ATOM     32  C   UNL     1       3.899   6.282   4.184  0.00  0.00    +0.000 C 
ATOM     33  C   UNL     1       2.718   5.337   3.951  0.00  0.00    +0.002 C 
ATOM     34  C   UNL     1       3.237   3.913   3.742  0.00  0.00    +0.027 C 
ENDBRANCH  28  29
ENDBRANCH   1  24
TORSDOF 4
