REMARK  Name = ZINC62425614
REMARK  2 active torsions:
REMARK  status: ('A' for Active; 'I' for Inactive)
REMARK    1  A    between atoms: C_3  and  N_17
REMARK    2  A    between atoms: C_6  and  C_7
REMARK                            x       y       z     vdW  Elec       q    Type
REMARK                         _______ _______ _______ _____ _____    ______ ____
ROOT
ATOM      1  C   UNL     1      -1.282  -0.781   0.240  0.00  0.00    +0.097 A 
ATOM      2  C   UNL     1      -2.536  -0.254   0.150  0.00  0.00    +0.165 A 
ATOM      3  N   UNL     1      -3.396  -1.232  -0.124  0.00  0.00    -0.137 NA
ATOM      4  N   UNL     1      -2.776  -2.356  -0.216  0.00  0.00    -0.058 NA
ATOM      5  N   UNL     1      -1.410  -2.126   0.005  0.00  0.00    -0.188 N 
ATOM      6  C   UNL     1      -0.389  -3.074  -0.010  0.00  0.00    +0.196 A 
ATOM      7  N   UNL     1       0.909  -2.879   0.074  0.00  0.00    -0.229 NA
ATOM      8  C   UNL     1       1.755  -3.890   0.045  0.00  0.00    +0.121 A 
ATOM      9  C   UNL     1       1.226  -5.133  -0.075  0.00  0.00    +0.068 A 
ATOM     10  S   UNL     1      -0.517  -4.748  -0.133  0.00  0.00    -0.056 S 
ENDROOT
BRANCH   1  16
ATOM     11  C   UNL     1       0.990  -0.665   1.254  0.00  0.00    +0.012 A 
ATOM     12  C   UNL     1       2.155   0.021   1.521  0.00  0.00    +0.023 A 
ATOM     13  C   UNL     1       2.314   1.327   1.070  0.00  0.00    +0.025 A 
ATOM     14  C   UNL     1       1.298   1.944   0.349  0.00  0.00    +0.023 A 
ATOM     15  C   UNL     1       0.131   1.263   0.078  0.00  0.00    +0.012 A 
ATOM     16  C   UNL     1      -0.031  -0.048   0.529  0.00  0.00    +0.002 A 
BRANCH  13  17
ATOM     17  N   UNL     1       3.495   2.019   1.343  0.00  0.00    -0.358 N 
ATOM     18  H   UNL     1       4.204   1.589   1.846  0.00  0.00    +0.142 HD
ATOM     19  H   UNL     1       3.607   2.929   1.028  0.00  0.00    +0.142 HD
ENDBRANCH  13  17
ENDBRANCH   1  16
TORSDOF 2
