REMARK  Name = ZINC02492368
REMARK  6 active torsions:
REMARK  status: ('A' for Active; 'I' for Inactive)
REMARK    1  A    between atoms: C_1  and  C_2
REMARK    2  A    between atoms: C_4  and  C_10
REMARK    3  A    between atoms: C_6  and  C_9
REMARK    4  A    between atoms: C_7  and  O_8
REMARK    5  A    between atoms: C_10  and  C_18
REMARK    6  A    between atoms: C_14  and  C_17
REMARK                            x       y       z     vdW  Elec       q    Type
REMARK                         _______ _______ _______ _____ _____    ______ ____
ROOT
ATOM      1  C   UNL     1      -4.220   2.461   2.341  0.00  0.00    +0.132 C 
ATOM      2  C   UNL     1      -4.506   3.901   2.663  0.00  0.00    +0.215 C 
ATOM      3  O   UNL     1      -4.437   4.263   3.818  0.00  0.00    -0.277 OA
ATOM      4  N   UNL     1      -4.836   4.799   1.729  0.00  0.00    -0.315 N 
ATOM      5  C   UNL     1      -4.982   4.458   0.317  0.00  0.00    +0.053 C 
ATOM      6  C   UNL     1      -4.289   3.126   0.024  0.00  0.00    -0.058 C 
ATOM      7  C   UNL     1      -4.350   5.558  -0.539  0.00  0.00    +0.026 C 
ATOM      8  H   UNL     1      -4.984   5.718   2.002  0.00  0.00    +0.149 HD
ATOM      9  N   UNL     1      -4.746   2.127   1.008  0.00  0.00    +0.398 N 
ATOM     10  H   UNL     1      -5.772   2.123   1.038  0.00  0.00    -0.083 HD
ATOM     11  H   UNL     1      -4.408   1.197   0.732  0.00  0.00    -0.083 HD
ENDROOT
BRANCH   1  15
ATOM     12  C   UNL     1      -0.013   1.086   0.008  0.00  0.00    +0.047 C 
ATOM     13  C   UNL     1      -0.718   1.572   1.248  0.00  0.00    -0.009 A 
ATOM     14  C   UNL     1      -2.082   1.789   1.227  0.00  0.00    +0.010 A 
ATOM     15  C   UNL     1      -2.731   2.230   2.366  0.00  0.00    -0.040 A 
ATOM     16  C   UNL     1      -2.015   2.465   3.525  0.00  0.00    +0.010 A 
ATOM     17  C   UNL     1      -0.649   2.254   3.550  0.00  0.00    -0.009 A 
ATOM     18  C   UNL     1       0.003   1.807   2.410  0.00  0.00    +0.123 A 
ATOM     19  C   UNL     1       0.131   2.510   4.813  0.00  0.00    +0.047 C 
BRANCH  18  20
ATOM     20  O   UNL     1       1.346   1.599   2.431  0.00  0.00    -0.506 OA
ATOM     21  H   UNL     1       1.867   2.376   2.186  0.00  0.00    +0.292 HD
ENDBRANCH  18  20
ENDBRANCH   1  15
BRANCH   1  22
ATOM     22  C   UNL     1      -4.890   1.564   3.385  0.00  0.00    +0.393 C 
ATOM     23  F   UNL     1      -4.389   1.872   4.654  0.00  0.00    -0.171 F 
ATOM     24  F   UNL     1      -6.272   1.777   3.364  0.00  0.00    -0.171 F 
ATOM     25  F   UNL     1      -4.620   0.224   3.090  0.00  0.00    -0.171 F 
ENDBRANCH   1  22
TORSDOF 3
