REMARK  Name = ZINC62212689
REMARK  6 active torsions:
REMARK  status: ('A' for Active; 'I' for Inactive)
REMARK    1  A    between atoms: C_1  and  N_2
REMARK    2  A    between atoms: C_8  and  C_10
REMARK    3  A    between atoms: C_10  and  N_11
REMARK    4  A    between atoms: C_12  and  C_14
REMARK    5  A    between atoms: C_14  and  C_15
REMARK    6  A    between atoms: C_15  and  C_16
REMARK                            x       y       z     vdW  Elec       q    Type
REMARK                         _______ _______ _______ _____ _____    ______ ____
ROOT
ATOM      1  N   UNL     1       3.621  -5.105   0.964  0.00  0.00    -0.307 N 
ATOM      2  C   UNL     1       4.244  -5.740   1.976  0.00  0.00    +0.214 C 
ATOM      3  O   UNL     1       3.978  -5.455   3.125  0.00  0.00    -0.276 OA
ATOM      4  H   UNL     1       3.833  -5.333   0.045  0.00  0.00    +0.149 HD
ENDROOT
BRANCH   1   5
ATOM      5  C   UNL     1       2.623  -4.072   1.250  0.00  0.00    +0.200 C 
BRANCH   5  13
ATOM      6  C   UNL     1      -0.018   1.465   0.010  0.00  0.00    -0.096 C 
ATOM      7  N   UNL     1       0.002  -0.004   0.002  0.00  0.00    +0.380 N 
ATOM      8  C   UNL     1       0.680  -0.476  -1.212  0.00  0.00    -0.060 C 
ATOM      9  C   UNL     1       0.601  -2.005  -1.279  0.00  0.00    +0.089 C 
ATOM     10  N   UNL     1       1.144  -2.555  -0.027  0.00  0.00    -0.304 N 
ATOM     11  C   UNL     1       0.635  -2.018   1.245  0.00  0.00    +0.089 C 
ATOM     12  C   UNL     1       0.713  -0.489   1.192  0.00  0.00    -0.060 C 
ATOM     13  C   UNL     1       2.081  -3.523  -0.045  0.00  0.00    +0.233 C 
ATOM     14  O   UNL     1       2.489  -3.954  -1.103  0.00  0.00    -0.274 OA
ATOM     15  H   UNL     1      -0.945  -0.352   0.012  0.00  0.00    -0.082 HD
ENDBRANCH   5  13
ENDBRANCH   1   5
BRANCH   2  16
ATOM     16  C   UNL     1       5.270  -6.803   1.681  0.00  0.00    +0.100 C 
BRANCH  16  17
ATOM     17  C   UNL     1       5.820  -7.360   2.996  0.00  0.00    +0.050 C 
BRANCH  17  18
ATOM     18  C   UNL     1       6.846  -8.423   2.701  0.00  0.00    +0.018 A 
ATOM     19  C   UNL     1       8.164  -8.100   2.668  0.00  0.00    +0.019 A 
ATOM     20  C   UNL     1       9.135  -9.155   2.379  0.00  0.00    -0.001 A 
ATOM     21  C   UNL     1      10.507  -8.882   2.332  0.00  0.00    +0.013 A 
ATOM     22  C   UNL     1      11.389  -9.888   2.060  0.00  0.00    +0.039 A 
ATOM     23  C   UNL     1      10.935 -11.183   1.829  0.00  0.00    +0.125 A 
ATOM     24  C   UNL     1       9.586 -11.474   1.871  0.00  0.00    +0.064 A 
ATOM     25  C   UNL     1       8.671 -10.464   2.146  0.00  0.00    +0.052 A 
ATOM     26  N   UNL     1       7.319 -10.727   2.195  0.00  0.00    -0.322 N 
ATOM     27  H   UNL     1       7.001 -11.629   2.035  0.00  0.00    +0.169 HD
ATOM     28  C   UNL     1       6.434  -9.751   2.467  0.00  0.00    +0.252 A 
ATOM     29  O   UNL     1       5.246 -10.021   2.507  0.00  0.00    -0.268 OA
ATOM     30  F   UNL     1      11.824 -12.165   1.562  0.00  0.00    -0.205 F 
ENDBRANCH  17  18
ENDBRANCH  16  17
ENDBRANCH   2  16
TORSDOF 5
