REMARK  Name = ZINC36259973
REMARK  9 active torsions:
REMARK  status: ('A' for Active; 'I' for Inactive)
REMARK    1  A    between atoms: C_1  and  C_2
REMARK    2  A    between atoms: C_13  and  C_15
REMARK    3  A    between atoms: C_15  and  C_16
REMARK    4  A    between atoms: C_16  and  C_18
REMARK    5  A    between atoms: C_16  and  C_19
REMARK    6  A    between atoms: C_19  and  C_20
REMARK    7  A    between atoms: C_20  and  C_21
REMARK    8  A    between atoms: C_20  and  C_22
REMARK    9  A    between atoms: C_20  and  C_23
REMARK                            x       y       z     vdW  Elec       q    Type
REMARK                         _______ _______ _______ _____ _____    ______ ____
ROOT
ATOM      1  C   UNL     1      -0.557   0.180  -1.065  0.00  0.00    +0.028 C 
ATOM      2  C   UNL     1      -0.637  -1.230  -0.476  0.00  0.00    +0.073 C 
ATOM      3  C   UNL     1      -0.023  -2.264  -1.474  0.00  0.00    +0.025 C 
ATOM      4  C   UNL     1       0.661  -3.220  -0.509  0.00  0.00    -0.008 C 
ATOM      5  C   UNL     1       1.897  -4.006  -0.880  0.00  0.00    -0.077 C 
ATOM      6  N   UNL     1       2.767  -3.966   0.334  0.00  0.00    +0.380 N 
ATOM      7  C   UNL     1       2.134  -3.030   1.321  0.00  0.00    -0.060 C 
ATOM      8  C   UNL     1       1.294  -2.138   0.450  0.00  0.00    +0.061 C 
ATOM      9  N   UNL     1       0.180  -1.311   0.773  0.00  0.00    -0.297 N 
ATOM     10  C   UNL     1      -0.083  -0.724   1.957  0.00  0.00    +0.216 C 
ATOM     11  O   UNL     1       0.674  -0.877   2.892  0.00  0.00    -0.276 OA
ATOM     12  H   UNL     1       2.837  -4.889   0.735  0.00  0.00    -0.086 HD
ATOM     13  H   UNL     1       3.686  -3.631   0.085  0.00  0.00    -0.086 HD
ENDROOT
BRANCH  10  14
ATOM     14  C   UNL     1      -1.319   0.124   2.119  0.00  0.00    +0.099 C 
BRANCH  14  15
ATOM     15  C   UNL     1      -1.379   0.668   3.548  0.00  0.00    -0.005 C 
ATOM     16  C   UNL     1      -0.203   1.618   3.782  0.00  0.00    +0.008 C 
BRANCH  15  17
ATOM     17  C   UNL     1      -2.694   1.425   3.750  0.00  0.00    +0.010 C 
BRANCH  17  18
ATOM     18  C   UNL     1      -2.838   1.812   5.223  0.00  0.00    -0.037 C 
ATOM     19  C   UNL     1      -1.763   2.837   5.589  0.00  0.00    +0.010 C 
ATOM     20  C   UNL     1      -4.223   2.419   5.458  0.00  0.00    +0.010 C 
ATOM     21  C   UNL     1      -2.672   0.566   6.097  0.00  0.00    +0.010 C 
ENDBRANCH  17  18
ENDBRANCH  15  17
ENDBRANCH  14  15
ENDBRANCH  10  14
TORSDOF 4
