REMARK  Name = ZINC40452963
REMARK  4 active torsions:
REMARK  status: ('A' for Active; 'I' for Inactive)
REMARK    1  A    between atoms: C_4  and  C_16
REMARK    2  A    between atoms: C_6  and  N_7
REMARK    3  A    between atoms: C_11  and  C_14
REMARK    4  A    between atoms: C_14  and  O_15
REMARK                            x       y       z     vdW  Elec       q    Type
REMARK                         _______ _______ _______ _____ _____    ______ ____
ROOT
ATOM      1  C   UNL     1       1.238  -0.649   0.001  0.00  0.00    +0.040 A 
ATOM      2  C   UNL     1       2.395   0.108  -0.008  0.00  0.00    +0.085 A 
ATOM      3  N   UNL     1       2.345   1.423  -0.014  0.00  0.00    -0.357 N 
ATOM      4  C   UNL     1       1.190   2.080  -0.013  0.00  0.00    +0.103 A 
ATOM      5  C   UNL     1      -0.017   1.391  -0.004  0.00  0.00    +0.054 A 
ATOM      6  C   UNL     1       0.002  -0.004   0.002  0.00  0.00    +0.033 A 
ATOM      7  H   UNL     1       3.174   1.927  -0.020  0.00  0.00    +0.165 HD
ENDROOT
BRANCH   6   8
ATOM      8  N   UNL     1      -1.183  -0.734   0.010  0.00  0.00    -0.329 N 
ATOM      9  C   UNL     1      -1.161  -2.199  -0.102  0.00  0.00    +0.105 C 
ATOM     10  C   UNL     1      -1.951  -2.794   1.067  0.00  0.00    +0.019 C 
ATOM     11  C   UNL     1      -3.356  -2.187   1.091  0.00  0.00    +0.009 C 
ATOM     12  C   UNL     1      -3.255  -0.674   1.297  0.00  0.00    +0.032 C 
ATOM     13  C   UNL     1      -2.480  -0.054   0.137  0.00  0.00    +0.110 C 
BRANCH  12  14
ATOM     14  C   UNL     1      -4.661  -0.072   1.355  0.00  0.00    +0.160 C 
BRANCH  14  15
ATOM     15  O   UNL     1      -5.344  -0.566   2.509  0.00  0.00    -0.395 OA
ATOM     16  H   UNL     1      -6.243  -0.225   2.609  0.00  0.00    +0.209 HD
ENDBRANCH  14  15
ENDBRANCH  12  14
ENDBRANCH   6   8
BRANCH   4  17
ATOM     17  C   UNL     1       1.189   3.562  -0.021  0.00  0.00    +0.258 C 
ATOM     18  O   UNL     1       0.136   4.169  -0.020  0.00  0.00    -0.269 OA
ATOM     19  N   UNL     1       2.355   4.237  -0.029  0.00  0.00    -0.324 N 
ATOM     20  H   UNL     1       3.196   3.753  -0.029  0.00  0.00    +0.145 HD
ATOM     21  H   UNL     1       2.354   5.207  -0.034  0.00  0.00    +0.145 HD
ENDBRANCH   4  17
TORSDOF 4
