REMARK  Name = ZINC42553193
REMARK  8 active torsions:
REMARK  status: ('A' for Active; 'I' for Inactive)
REMARK    1  A    between atoms: C_1  and  C_2
REMARK    2  A    between atoms: C_2  and  C_3
REMARK    3  A    between atoms: C_3  and  C_5
REMARK    4  A    between atoms: C_3  and  C_6
REMARK    5  A    between atoms: C_6  and  C_8
REMARK    6  A    between atoms: C_6  and  N_9
REMARK    7  A    between atoms: N_9  and  C_10
REMARK    8  A    between atoms: C_10  and  C_11
REMARK                            x       y       z     vdW  Elec       q    Type
REMARK                         _______ _______ _______ _____ _____    ______ ____
ROOT
ATOM      1  C   UNL     1       1.072  -3.968   2.660  0.00  0.00    -0.046 C 
ENDROOT
BRANCH   1   2
ATOM      2  C   UNL     1       1.693  -4.459   3.942  0.00  0.00    -0.060 A 
ATOM      3  C   UNL     1       3.017  -4.857   3.958  0.00  0.00    +0.051 A 
ATOM      4  C   UNL     1       3.591  -5.309   5.136  0.00  0.00    +0.168 A 
ATOM      5  C   UNL     1       2.831  -5.361   6.301  0.00  0.00    +0.180 A 
ATOM      6  C   UNL     1       1.505  -4.960   6.278  0.00  0.00    +0.063 A 
ATOM      7  C   UNL     1       0.940  -4.505   5.100  0.00  0.00    +0.021 A 
ATOM      8 BR   UNL     1       0.469  -5.029   7.858  0.00  0.00    -0.046 Br
ATOM      9  O   UNL     1       3.616  -5.835   7.313  0.00  0.00    -0.451 OA
ATOM     10  C   UNL     1       4.742  -6.457   6.666  0.00  0.00    +0.466 C 
ATOM     11  O   UNL     1       4.852  -5.751   5.417  0.00  0.00    -0.453 OA
ENDBRANCH   1   2
BRANCH   1  12
ATOM     12  N   UNL     1       1.261  -2.516   2.549  0.00  0.00    +0.384 N 
ATOM     13  H   UNL     1       2.248  -2.304   2.546  0.00  0.00    -0.085 HD
ATOM     14  H   UNL     1       0.821  -2.058   3.332  0.00  0.00    -0.085 HD
BRANCH  12  15
ATOM     15  C   UNL     1       0.655  -2.037   1.299  0.00  0.00    -0.072 C 
ATOM     16  C   UNL     1       1.405  -2.636   0.107  0.00  0.00    -0.013 C 
BRANCH  15  17
ATOM     17  C   UNL     1       0.742  -0.511   1.242  0.00  0.00    -0.029 C 
ATOM     18  C   UNL     1       2.210  -0.086   1.169  0.00  0.00    +0.006 C 
BRANCH  17  20
ATOM     19  C   UNL     1      -0.019   1.526   0.010  0.00  0.00    +0.004 C 
ATOM     20  C   UNL     1       0.002  -0.004   0.002  0.00  0.00    -0.002 C 
ENDBRANCH  17  20
ENDBRANCH  15  17
ENDBRANCH  12  15
ENDBRANCH   1  12
TORSDOF 5
