REMARK  Name = ZINC64886838
REMARK  10 active torsions:
REMARK  status: ('A' for Active; 'I' for Inactive)
REMARK    1  A    between atoms: C_1  and  C_2
REMARK    2  A    between atoms: C_2  and  C_3
REMARK    3  A    between atoms: C_2  and  N_18
REMARK    4  A    between atoms: N_5  and  N_6
REMARK    5  A    between atoms: N_9  and  C_10
REMARK    6  A    between atoms: C_10  and  C_11
REMARK    7  A    between atoms: C_11  and  C_12
REMARK    8  A    between atoms: C_12  and  N_13
REMARK    9  A    between atoms: C_19  and  C_21
REMARK   10  A    between atoms: C_22  and  C_23
REMARK                            x       y       z     vdW  Elec       q    Type
REMARK                         _______ _______ _______ _____ _____    ______ ____
ROOT
ATOM      1  C   UNL     1       0.731  -0.503   1.223  0.00  0.00    +0.249 C 
ATOM      2  O   UNL     1       0.159  -1.213   2.023  0.00  0.00    -0.272 OA
ATOM      3  N   UNL     1       2.019  -0.161   1.426  0.00  0.00    -0.232 N 
ATOM      4  H   UNL     1       2.476   0.406   0.786  0.00  0.00    +0.173 HD
ENDROOT
BRANCH   3   5
ATOM      5  N   UNL     1       2.696  -0.625   2.561  0.00  0.00    -0.218 N 
ATOM      6  C   UNL     1       3.984  -0.283   2.764  0.00  0.00    +0.316 C 
ATOM      7  O   UNL     1       4.572  -0.686   3.749  0.00  0.00    -0.251 OA
ATOM      8  N   UNL     1       4.620   0.505   1.875  0.00  0.00    -0.298 N 
ATOM      9  H   UNL     1       2.239  -1.193   3.201  0.00  0.00    +0.174 HD
ATOM     10  H   UNL     1       4.151   0.826   1.089  0.00  0.00    +0.150 HD
BRANCH   8  11
ATOM     11  C   UNL     1       6.020   0.877   2.095  0.00  0.00    +0.107 C 
BRANCH  11  12
ATOM     12  C   UNL     1       6.497   1.769   0.948  0.00  0.00    +0.040 C 
BRANCH  12  13
ATOM     13  C   UNL     1       7.959   2.158   1.178  0.00  0.00    +0.124 C 
BRANCH  13  14
ATOM     14  N   UNL     1       8.416   3.012   0.079  0.00  0.00    -0.338 N 
ATOM     15  C   UNL     1       8.989   2.593  -1.091  0.00  0.00    +0.104 A 
ATOM     16  C   UNL     1       9.254   3.699  -1.813  0.00  0.00    +0.101 A 
ATOM     17  N   UNL     1       8.853   4.764  -1.103  0.00  0.00    -0.352 N 
ATOM     18  C   UNL     1       8.346   4.360   0.030  0.00  0.00    +0.173 A 
ATOM     19  H   UNL     1       8.925   5.688  -1.387  0.00  0.00    +0.166 HD
ENDBRANCH  13  14
ENDBRANCH  12  13
ENDBRANCH  11  12
ENDBRANCH   8  11
ENDBRANCH   3   5
BRANCH   1  21
ATOM     20  C   UNL     1      -0.019   1.526   0.010  0.00  0.00    +0.038 C 
ATOM     21  C   UNL     1       0.002  -0.004   0.002  0.00  0.00    +0.158 C 
BRANCH  21  22
ATOM     22  N   UNL     1      -1.372  -0.511   0.012  0.00  0.00    -0.301 N 
ATOM     23  C   UNL     1      -2.051  -0.643  -1.145  0.00  0.00    +0.237 C 
ATOM     24  O   UNL     1      -1.522  -0.340  -2.198  0.00  0.00    -0.271 OA
ATOM     25  H   UNL     1      -1.794  -0.752   0.852  0.00  0.00    +0.150 HD
BRANCH  23  26
ATOM     26  C   UNL     1      -3.425  -1.150  -1.134  0.00  0.00    +0.068 C 
ATOM     27  C   UNL     1      -4.103  -1.281  -2.292  0.00  0.00    +0.013 C 
BRANCH  27  28
ATOM     28  C   UNL     1      -5.484  -1.791  -2.281  0.00  0.00    -0.025 A 
ATOM     29  C   UNL     1      -6.098  -2.134  -1.072  0.00  0.00    +0.008 A 
ATOM     30  C   UNL     1      -7.391  -2.611  -1.071  0.00  0.00    +0.001 A 
ATOM     31  C   UNL     1      -8.083  -2.750  -2.261  0.00  0.00    +0.000 A 
ATOM     32  C   UNL     1      -7.483  -2.412  -3.462  0.00  0.00    +0.001 A 
ATOM     33  C   UNL     1      -6.191  -1.929  -3.479  0.00  0.00    +0.008 A 
ENDBRANCH  27  28
ENDBRANCH  23  26
ENDBRANCH  21  22
ENDBRANCH   1  21
TORSDOF 9
