REMARK  Name = ZINC38062352
REMARK  4 active torsions:
REMARK  status: ('A' for Active; 'I' for Inactive)
REMARK    1  A    between atoms: C_1  and  N_2
REMARK    2  A    between atoms: C_6  and  C_7
REMARK    3  A    between atoms: N_9  and  C_10
REMARK    4  A    between atoms: C_10  and  C_11
REMARK                            x       y       z     vdW  Elec       q    Type
REMARK                         _______ _______ _______ _____ _____    ______ ____
ROOT
ATOM      1  C   UNL     1      -0.189  -0.374   2.507  0.00  0.00    +0.261 C 
ATOM      2  O   UNL     1      -0.102  -1.183   3.412  0.00  0.00    -0.269 OA
ATOM      3  N   UNL     1      -0.393   0.929   2.785  0.00  0.00    -0.308 N 
ATOM      4  H   UNL     1      -0.537   1.562   2.064  0.00  0.00    +0.149 HD
ENDROOT
BRANCH   1  10
ATOM      5  C   UNL     1       0.070  -3.305   1.538  0.00  0.00    +0.149 C 
ATOM      6  N   UNL     1       0.044  -2.118   0.680  0.00  0.00    -0.345 N 
ATOM      7  C   UNL     1       0.123  -2.119  -0.673  0.00  0.00    +0.101 A 
ATOM      8  C   UNL     1       0.066  -0.840  -1.117  0.00  0.00    +0.036 A 
ATOM      9  C   UNL     1      -0.054  -0.004  -0.001  0.00  0.00    +0.047 A 
ATOM     10  C   UNL     1      -0.072  -0.817   1.113  0.00  0.00    +0.105 A 
ATOM     11 BR   UNL     1       0.136  -0.283  -2.922  0.00  0.00    -0.049 Br
ENDBRANCH   1  10
BRANCH   3  12
ATOM     12  C   UNL     1      -0.399   1.389   4.176  0.00  0.00    +0.138 C 
BRANCH  12  13
ATOM     13  C   UNL     1      -0.651   2.897   4.213  0.00  0.00    +0.161 C 
ATOM     14  C   UNL     1      -0.536   3.400   5.655  0.00  0.00    +0.193 C 
ATOM     15  O   UNL     1      -0.882   4.788   5.698  0.00  0.00    -0.375 OA
ATOM     16  C   UNL     1      -2.197   5.065   5.207  0.00  0.00    +0.188 C 
ATOM     17  C   UNL     1      -2.311   4.563   3.764  0.00  0.00    +0.188 C 
ATOM     18  O   UNL     1      -1.965   3.175   3.721  0.00  0.00    -0.370 OA
ENDBRANCH  12  13
ENDBRANCH   3  12
TORSDOF 3
