REMARK  Name = ZINC13638599
REMARK  3 active torsions:
REMARK  status: ('A' for Active; 'I' for Inactive)
REMARK    1  A    between atoms: C_11  and  C_16
REMARK    2  A    between atoms: C_12  and  O_15
REMARK    3  A    between atoms: N_17  and  N_18
REMARK                            x       y       z     vdW  Elec       q    Type
REMARK                         _______ _______ _______ _____ _____    ______ ____
ROOT
ATOM      1  C   UNL     1      -0.017   1.376   0.010  0.00  0.00    +0.065 A 
ATOM      2  C   UNL     1       1.172   2.096   0.002  0.00  0.00    +0.137 A 
ATOM      3  C   UNL     1       2.397   1.410  -0.013  0.00  0.00    +0.036 A 
ATOM      4  C   UNL     1       3.421   2.448  -0.018  0.00  0.00    +0.002 A 
ATOM      5  C   UNL     1       2.776   3.629  -0.006  0.00  0.00    +0.109 A 
ATOM      6  O   UNL     1       1.450   3.418   0.006  0.00  0.00    -0.459 OA
ATOM      7  C   UNL     1       3.481   4.966  -0.006  0.00  0.00    +0.075 C 
ATOM      8  C   UNL     1       4.942   4.746   0.402  0.00  0.00    +0.008 C 
ATOM      9  C   UNL     1       5.547   3.623  -0.445  0.00  0.00    +0.005 C 
ATOM     10  C   UNL     1       4.918   2.285  -0.036  0.00  0.00    +0.039 C 
ATOM     11  C   UNL     1       2.415   0.002  -0.020  0.00  0.00    +0.048 A 
ATOM     12  C   UNL     1       1.205  -0.698  -0.013  0.00  0.00    +0.140 A 
ATOM     13  C   UNL     1       0.002  -0.004   0.002  0.00  0.00    +0.063 A 
ATOM     14 BR   UNL     1      -1.629  -0.961   0.012  0.00  0.00    -0.046 Br
ENDROOT
BRANCH  12  15
ATOM     15  O   UNL     1       1.206  -2.057  -0.020  0.00  0.00    -0.505 OA
ATOM     16  H   UNL     1       1.214  -2.455   0.861  0.00  0.00    +0.292 HD
ENDBRANCH  12  15
BRANCH  11  17
ATOM     17  C   UNL     1       3.693  -0.725  -0.036  0.00  0.00    +0.145 C 
ATOM     18  N   UNL     1       3.702  -2.024  -0.042  0.00  0.00    -0.180 NA
BRANCH  18  19
ATOM     19  N   UNL     1       4.920  -2.716  -0.057  0.00  0.00    -0.258 N 
ATOM     20  C   UNL     1       4.929  -4.083  -0.064  0.00  0.00    +0.156 C 
ATOM     21  N   UNL     1       3.750  -4.775  -0.056  0.00  0.00    -0.338 N 
ATOM     22  S   UNL     1       6.373  -4.904  -0.082  0.00  0.00    -0.015 SA
ATOM     23  H   UNL     1       2.906  -4.296  -0.046  0.00  0.00    +0.144 HD
ATOM     24  H   UNL     1       3.756  -5.745  -0.061  0.00  0.00    +0.144 HD
ATOM     25  H   UNL     1       5.757  -2.226  -0.063  0.00  0.00    +0.191 HD
ENDBRANCH  18  19
ENDBRANCH  11  17
TORSDOF 3
