REMARK  Name = ZINC40713580
REMARK  11 active torsions:
REMARK  status: ('A' for Active; 'I' for Inactive)
REMARK    1  A    between atoms: C_1  and  C_2
REMARK    2  A    between atoms: C_2  and  N_3
REMARK    3  A    between atoms: N_3  and  C_4
REMARK    4  A    between atoms: N_3  and  C_6
REMARK    5  A    between atoms: C_4  and  C_5
REMARK    6  A    between atoms: C_6  and  C_7
REMARK    7  A    between atoms: C_7  and  C_8
REMARK    8  A    between atoms: C_8  and  C_9
REMARK    9  A    between atoms: C_9  and  C_11
REMARK   10  A    between atoms: C_9  and  N_12
REMARK   11  A    between atoms: C_14  and  N_20
REMARK                            x       y       z     vdW  Elec       q    Type
REMARK                         _______ _______ _______ _____ _____    ______ ____
ROOT
ATOM      1  N   UNL     1       3.729  -4.002   3.866  0.00  0.00    -0.325 N 
ATOM      2  C   UNL     1       4.303  -3.854   5.127  0.00  0.00    +0.140 A 
ATOM      3  C   UNL     1       5.588  -3.319   5.245  0.00  0.00    +0.066 A 
ATOM      4  C   UNL     1       6.146  -3.179   6.509  0.00  0.00    +0.043 A 
ATOM      5  C   UNL     1       5.397  -3.579   7.610  0.00  0.00    +0.038 A 
ATOM      6  C   UNL     1       4.133  -4.099   7.416  0.00  0.00    +0.128 A 
ATOM      7  N   UNL     1       3.625  -4.217   6.203  0.00  0.00    -0.238 NA
ATOM      8 BR   UNL     1       6.104  -3.413   9.356  0.00  0.00    -0.049 Br
ATOM      9  H   UNL     1       4.223  -3.737   3.075  0.00  0.00    +0.148 HD
ENDROOT
BRANCH   3  10
ATOM     10  N   UNL     1       6.304  -2.930   4.106  0.00  0.00    -0.355 N 
ATOM     11  H   UNL     1       5.908  -3.032   3.227  0.00  0.00    +0.142 HD
ATOM     12  H   UNL     1       7.196  -2.560   4.197  0.00  0.00    +0.142 HD
ENDBRANCH   3  10
BRANCH   1  13
ATOM     13  C   UNL     1       2.379  -4.556   3.736  0.00  0.00    +0.069 C 
ATOM     14  C   UNL     1       2.455  -6.084   3.719  0.00  0.00    +0.028 C 
BRANCH  13  15
ATOM     15  C   UNL     1       1.748  -4.062   2.433  0.00  0.00    +0.020 C 
BRANCH  15  16
ATOM     16  C   UNL     1       1.558  -2.546   2.502  0.00  0.00    -0.017 C 
BRANCH  16  17
ATOM     17  C   UNL     1       0.926  -2.051   1.199  0.00  0.00    -0.079 C 
BRANCH  17  18
ATOM     18  N   UNL     1       0.643  -0.614   1.306  0.00  0.00    +0.379 N 
ATOM     19  H   UNL     1       0.074  -0.444   2.122  0.00  0.00    -0.082 HD
BRANCH  18  21
ATOM     20  C   UNL     1       1.607   1.609   1.663  0.00  0.00    -0.017 C 
ATOM     21  C   UNL     1       1.905   0.127   1.426  0.00  0.00    -0.082 C 
ENDBRANCH  18  21
BRANCH  18  22
ATOM     22  C   UNL     1      -0.076  -0.166   0.106  0.00  0.00    -0.082 C 
ATOM     23  C   UNL     1      -1.460  -0.817   0.068  0.00  0.00    -0.017 C 
ENDBRANCH  18  22
ENDBRANCH  17  18
ENDBRANCH  16  17
ENDBRANCH  15  16
ENDBRANCH  13  15
ENDBRANCH   1  13
TORSDOF 8
