REMARK  Name = ZINC08170877
REMARK  11 active torsions:
REMARK  status: ('A' for Active; 'I' for Inactive)
REMARK    1  A    between atoms: C_1  and  C_2
REMARK    2  A    between atoms: C_2  and  C_3
REMARK    3  A    between atoms: C_8  and  N_9
REMARK    4  A    between atoms: C_10  and  C_12
REMARK    5  A    between atoms: C_12  and  N_57
REMARK    6  A    between atoms: C_13  and  N_57
REMARK    7  A    between atoms: C_14  and  C_15
REMARK    8  A    between atoms: C_14  and  N_57
REMARK    9  A    between atoms: N_20  and  C_21
REMARK   10  A    between atoms: C_24  and  C_28
REMARK   11  A    between atoms: C_26  and  C_27
REMARK                            x       y       z     vdW  Elec       q    Type
REMARK                         _______ _______ _______ _____ _____    ______ ____
ROOT
ATOM      1  C   UNL     1       3.659   2.104   0.057  0.00  0.00    +0.019 C 
ENDROOT
BRANCH   1   2
ATOM      2  C   UNL     1       4.803   1.134   0.205  0.00  0.00    +0.204 C 
ATOM      3  O   UNL     1       4.596  -0.059   0.153  0.00  0.00    -0.277 OA
ATOM      4  N   UNL     1       6.056   1.593   0.394  0.00  0.00    -0.241 N 
ATOM      5  C   UNL     1       7.079   0.725   0.525  0.00  0.00    +0.310 C 
ATOM      6  O   UNL     1       6.872  -0.471   0.474  0.00  0.00    -0.252 OA
ATOM      7  N   UNL     1       8.332   1.185   0.714  0.00  0.00    -0.269 N 
ATOM      8  H   UNL     1       6.222   2.548   0.435  0.00  0.00    +0.159 HD
ATOM      9  H   UNL     1       8.490   2.136   0.811  0.00  0.00    +0.156 HD
BRANCH   7  10
ATOM     10  C   UNL     1       9.405   0.288   0.770  0.00  0.00    +0.038 A 
ATOM     11  C   UNL     1       9.193  -1.028   1.161  0.00  0.00    +0.024 A 
ATOM     12  C   UNL     1      10.253  -1.910   1.215  0.00  0.00    +0.005 A 
ATOM     13  C   UNL     1      11.526  -1.486   0.880  0.00  0.00    -0.050 A 
ATOM     14  C   UNL     1      11.741  -0.177   0.490  0.00  0.00    +0.008 A 
ATOM     15  C   UNL     1      10.683   0.710   0.429  0.00  0.00    -0.029 A 
ATOM     16  C   UNL     1      10.917   2.135  -0.002  0.00  0.00    +0.045 C 
ATOM     17  C   UNL     1      12.681  -2.452   0.939  0.00  0.00    +0.044 C 
ENDBRANCH   7  10
ENDBRANCH   1   2
BRANCH   1  19
ATOM     18  C   UNL     1       2.419   0.636  -1.415  0.00  0.00    -0.095 C 
ATOM     19  N   UNL     1       2.406   1.340  -0.115  0.00  0.00    +0.389 N 
ATOM     20  H   UNL     1       2.330   0.648   0.639  0.00  0.00    -0.081 HD
BRANCH  19  21
ATOM     21  C   UNL     1       1.245   2.253  -0.047  0.00  0.00    +0.019 C 
BRANCH  21  23
ATOM     22  N   UNL     1      -1.216   2.042   0.073  0.00  0.00    -0.287 N 
ATOM     23  C   UNL     1      -0.017   1.431  -0.004  0.00  0.00    +0.201 C 
ATOM     24  O   UNL     1       0.045   0.221  -0.044  0.00  0.00    -0.278 OA
ATOM     25  H   UNL     1      -1.265   3.004   0.185  0.00  0.00    +0.155 HD
BRANCH  22  31
ATOM     26  C   UNL     1      -3.514   1.665   0.717  0.00  0.00    -0.026 A 
ATOM     27  C   UNL     1      -4.673   0.919   0.634  0.00  0.00    +0.005 A 
ATOM     28  C   UNL     1      -4.717  -0.204  -0.172  0.00  0.00    +0.000 A 
ATOM     29  C   UNL     1      -3.602  -0.584  -0.896  0.00  0.00    +0.002 A 
ATOM     30  C   UNL     1      -2.442   0.161  -0.821  0.00  0.00    +0.023 A 
ATOM     31  C   UNL     1      -2.392   1.287  -0.009  0.00  0.00    +0.036 A 
BRANCH  26  33
ATOM     32  C   UNL     1      -3.772   4.131   0.755  0.00  0.00    +0.009 C 
ATOM     33  C   UNL     1      -3.466   2.890   1.595  0.00  0.00    +0.033 C 
ENDBRANCH  26  33
ENDBRANCH  22  31
ENDBRANCH  21  23
ENDBRANCH  19  21
ENDBRANCH   1  19
TORSDOF 7
