REMARK  Name = ZINC20595917
REMARK  4 active torsions:
REMARK  status: ('A' for Active; 'I' for Inactive)
REMARK    1  A    between atoms: C_1  and  C_2
REMARK    2  A    between atoms: C_2  and  C_3
REMARK    3  A    between atoms: C_3  and  C_4
REMARK    4  A    between atoms: N_15  and  N_18
REMARK                            x       y       z     vdW  Elec       q    Type
REMARK                         _______ _______ _______ _____ _____    ______ ____
ROOT
ATOM      1  C   UNL     1       5.167   3.616  -0.028  0.00  0.00    +0.154 A 
ATOM      2  N   UNL     1       5.698   2.400  -0.040  0.00  0.00    -0.194 NA
ATOM      3  C   UNL     1       4.734   1.487  -0.036  0.00  0.00    +0.254 A 
ATOM      4  N   UNL     1       4.770   0.145  -0.043  0.00  0.00    -0.218 NA
ATOM      5  C   UNL     1       3.675  -0.579  -0.037  0.00  0.00    +0.130 A 
ATOM      6  C   UNL     1       2.421   0.056  -0.021  0.00  0.00    +0.085 A 
ATOM      7  C   UNL     1       2.368   1.462  -0.013  0.00  0.00    +0.084 A 
ATOM      8  N   UNL     1       3.544   2.161  -0.020  0.00  0.00    -0.196 N 
ATOM      9  N   UNL     1       3.860   3.525  -0.016  0.00  0.00    -0.148 NA
ATOM     10  C   UNL     1       1.114   2.093   0.003  0.00  0.00    +0.048 A 
ATOM     11  C   UNL     1      -0.016   1.355   0.009  0.00  0.00    +0.113 A 
ATOM     12  N   UNL     1       0.002  -0.004   0.002  0.00  0.00    -0.240 N 
ATOM     13  C   UNL     1       1.164  -0.692  -0.013  0.00  0.00    +0.278 A 
ATOM     14  O   UNL     1       1.166  -1.910  -0.021  0.00  0.00    -0.265 OA
ENDROOT
BRANCH  12  15
ATOM     15  N   UNL     1      -1.180  -0.689   0.010  0.00  0.00    -0.296 N 
ATOM     16  H   UNL     1      -1.178  -1.789   0.004  0.00  0.00    +0.163 HD
ATOM     17  H   UNL     1      -2.133  -0.140   0.022  0.00  0.00    +0.163 HD
ENDBRANCH  12  15
BRANCH   1  18
ATOM     18  C   UNL     1       5.948   4.905  -0.029  0.00  0.00    +0.078 C 
BRANCH  18  20
ATOM     19  C   UNL     1       6.992   6.657  -1.471  0.00  0.00    +0.004 C 
ATOM     20  C   UNL     1       6.199   5.349  -1.471  0.00  0.00    +0.004 C 
ENDBRANCH  18  20
ENDBRANCH   1  18
TORSDOF 3
