REMARK  Name = ZINC57946110
REMARK  6 active torsions:
REMARK  status: ('A' for Active; 'I' for Inactive)
REMARK    1  A    between atoms: C_1  and  C_2
REMARK    2  A    between atoms: C_3  and  C_9
REMARK    3  A    between atoms: C_4  and  C_8
REMARK    4  A    between atoms: N_5  and  C_7
REMARK    5  A    between atoms: N_20  and  C_21
REMARK    6  A    between atoms: C_21  and  C_22
REMARK                            x       y       z     vdW  Elec       q    Type
REMARK                         _______ _______ _______ _____ _____    ______ ____
ROOT
ATOM      1  C   UNL     1      -0.277  -0.161  -2.233  0.00  0.00    +0.196 C 
ATOM      2  N   UNL     1       0.054  -1.248  -3.162  0.00  0.00    -0.321 N 
ATOM      3  C   UNL     1       1.393  -1.512  -3.426  0.00  0.00    +0.041 A 
ATOM      4  C   UNL     1       1.840  -2.781  -3.749  0.00  0.00    +0.024 A 
ATOM      5  C   UNL     1       3.183  -2.990  -3.999  0.00  0.00    +0.002 A 
ATOM      6  C   UNL     1       4.085  -1.939  -3.928  0.00  0.00    +0.001 A 
ATOM      7  C   UNL     1       3.655  -0.668  -3.608  0.00  0.00    +0.015 A 
ATOM      8  C   UNL     1       2.304  -0.443  -3.356  0.00  0.00    +0.058 A 
ATOM      9  C   UNL     1       1.790   0.896  -3.018  0.00  0.00    +0.250 C 
ATOM     10  O   UNL     1       2.482   1.881  -3.187  0.00  0.00    -0.270 OA
ATOM     11  N   UNL     1       0.545   1.014  -2.520  0.00  0.00    -0.271 N 
ATOM     12  H   UNL     1      -0.647  -1.772  -3.582  0.00  0.00    +0.148 HD
ENDROOT
BRANCH   1  15
ATOM     13  C   UNL     1       2.276   0.532  -0.487  0.00  0.00    +0.068 C 
ATOM     14  C   UNL     1       1.106  -0.311  -0.048  0.00  0.00    +0.067 A 
ATOM     15  C   UNL     1      -0.020  -0.617  -0.820  0.00  0.00    +0.034 A 
ATOM     16  C   UNL     1      -0.838  -1.393  -0.072  0.00  0.00    +0.043 A 
ATOM     17  N   UNL     1      -0.250  -1.573   1.129  0.00  0.00    -0.271 N 
ATOM     18  N   UNL     1       0.971  -0.888   1.118  0.00  0.00    -0.176 NA
ATOM     19  C   UNL     1      -0.792  -2.351   2.246  0.00  0.00    +0.172 C 
ATOM     20  C   UNL     1      -2.167  -1.957  -0.504  0.00  0.00    +0.065 C 
ENDBRANCH   1  15
BRANCH  11  21
ATOM     21  C   UNL     1       0.005   2.351  -2.260  0.00  0.00    +0.137 C 
BRANCH  21  22
ATOM     22  C   UNL     1       0.214   2.704  -0.809  0.00  0.00    -0.016 C 
ATOM     23  C   UNL     1       0.833   3.813  -0.488  0.00  0.00    +0.005 C 
ENDBRANCH  21  22
ENDBRANCH  11  21
TORSDOF 3
