REMARK  Name = ZINC09512203
REMARK  10 active torsions:
REMARK  status: ('A' for Active; 'I' for Inactive)
REMARK    1  A    between atoms: C_1  and  C_2
REMARK    2  A    between atoms: C_2  and  O_3
REMARK    3  A    between atoms: O_3  and  C_4
REMARK    4  A    between atoms: C_7  and  C_12
REMARK    5  A    between atoms: C_9  and  O_10
REMARK    6  A    between atoms: O_10  and  C_11
REMARK    7  A    between atoms: C_12  and  N_63
REMARK    8  A    between atoms: C_13  and  N_63
REMARK    9  A    between atoms: C_14  and  C_15
REMARK   10  A    between atoms: C_14  and  N_63
REMARK                            x       y       z     vdW  Elec       q    Type
REMARK                         _______ _______ _______ _____ _____    ______ ____
ROOT
ATOM      1  C   UNL     1       3.478   3.442   0.542  0.00  0.00    +0.204 C 
ATOM      2  O   UNL     1       4.528   4.016   0.343  0.00  0.00    -0.277 OA
ATOM      3  N   UNL     1       2.325   3.970   0.088  0.00  0.00    -0.256 N 
ATOM      4  C   UNL     1       1.146   3.207   0.024  0.00  0.00    +0.058 A 
ATOM      5  C   UNL     1       1.188   1.841  -0.190  0.00  0.00    +0.025 A 
ATOM      6  C   UNL     1       0.008   1.122  -0.262  0.00  0.00    +0.002 A 
ATOM      7  C   UNL     1      -1.208   1.767  -0.130  0.00  0.00    +0.002 A 
ATOM      8  C   UNL     1      -1.256   3.131   0.091  0.00  0.00    +0.025 A 
ATOM      9  C   UNL     1      -0.080   3.859   0.171  0.00  0.00    +0.055 A 
ATOM     10  N   UNL     1      -0.105   5.238   0.406  0.00  0.00    -0.282 N 
ATOM     11  C   UNL     1       0.983   5.995   0.155  0.00  0.00    +0.241 C 
ATOM     12  O   UNL     1       0.940   7.192   0.346  0.00  0.00    -0.273 OA
ATOM     13  C   UNL     1       2.248   5.365  -0.359  0.00  0.00    +0.118 C 
ATOM     14  C   UNL     1       2.277   5.421  -1.897  0.00  0.00    +0.036 C 
ATOM     15  C   UNL     1       3.121   6.682  -2.213  0.00  0.00    +0.003 C 
ATOM     16  C   UNL     1       4.213   6.649  -1.115  0.00  0.00    +0.003 C 
ATOM     17  C   UNL     1       3.471   6.145   0.142  0.00  0.00    +0.036 C 
ATOM     18  H   UNL     1      -0.911   5.653   0.751  0.00  0.00    +0.155 HD
ENDROOT
BRANCH   1  19
ATOM     19  C   UNL     1       3.464   2.138   1.298  0.00  0.00    +0.019 C 
BRANCH  19  21
ATOM     20  C   UNL     1       5.076   2.906   2.933  0.00  0.00    -0.095 C 
ATOM     21  N   UNL     1       4.804   1.908   1.877  0.00  0.00    +0.386 N 
ATOM     22  H   UNL     1       5.509   2.006   1.137  0.00  0.00    -0.081 HD
BRANCH  21  23
ATOM     23  C   UNL     1       4.884   0.543   2.439  0.00  0.00    -0.043 C 
BRANCH  23  27
ATOM     24  C   UNL     1       8.942  -0.268   3.518  0.00  0.00    +0.162 A 
ATOM     25  C   UNL     1       8.491  -0.558   2.241  0.00  0.00    +0.049 A 
ATOM     26  C   UNL     1       7.177  -0.300   1.897  0.00  0.00    +0.005 A 
ATOM     27  C   UNL     1       6.314   0.258   2.822  0.00  0.00    -0.060 A 
ATOM     28  C   UNL     1       6.758   0.550   4.098  0.00  0.00    +0.051 A 
ATOM     29  C   UNL     1       8.072   0.288   4.451  0.00  0.00    +0.162 A 
BRANCH  29  30
ATOM     30  O   UNL     1       8.510   0.575   5.706  0.00  0.00    -0.491 OA
ATOM     31  C   UNL     1       7.562   1.145   6.610  0.00  0.00    +0.277 C 
ENDBRANCH  29  30
BRANCH  24  32
ATOM     32  O   UNL     1      10.233  -0.527   3.860  0.00  0.00    -0.489 OA
BRANCH  32  34
ATOM     33  C   UNL     1      12.474  -1.317   3.418  0.00  0.00    +0.048 C 
ATOM     34  C   UNL     1      11.069  -1.098   2.852  0.00  0.00    +0.226 C 
ENDBRANCH  32  34
ENDBRANCH  24  32
ENDBRANCH  23  27
ENDBRANCH  21  23
ENDBRANCH  19  21
ENDBRANCH   1  19
TORSDOF 7
