REMARK  Name = ZINC47628580
REMARK  9 active torsions:
REMARK  status: ('A' for Active; 'I' for Inactive)
REMARK    1  A    between atoms: C_1  and  C_2
REMARK    2  A    between atoms: C_2  and  C_3
REMARK    3  A    between atoms: C_3  and  C_20
REMARK    4  A    between atoms: N_6  and  N_10
REMARK    5  A    between atoms: C_11  and  C_13
REMARK    6  A    between atoms: C_13  and  N_14
REMARK    7  A    between atoms: N_14  and  C_15
REMARK    8  A    between atoms: N_14  and  C_16
REMARK    9  A    between atoms: C_16  and  C_17
REMARK                            x       y       z     vdW  Elec       q    Type
REMARK                         _______ _______ _______ _____ _____    ______ ____
ROOT
ATOM      1  N   UNL     1      -0.454  -3.426  -3.095  0.00  0.00    -0.225 N 
ATOM      2  C   UNL     1      -1.734  -3.843  -3.038  0.00  0.00    +0.213 C 
ATOM      3  O   UNL     1      -2.581  -3.134  -2.535  0.00  0.00    -0.276 OA
ATOM      4  H   UNL     1       0.223  -3.993  -3.497  0.00  0.00    +0.173 HD
ENDROOT
BRANCH   1   8
ATOM      5  C   UNL     1       0.718  -0.497  -1.257  0.00  0.00    +0.111 C 
ATOM      6  C   UNL     1       0.555  -1.997  -1.410  0.00  0.00    +0.263 C 
ATOM      7  O   UNL     1       0.935  -2.857  -0.645  0.00  0.00    -0.271 OA
ATOM      8  N   UNL     1      -0.101  -2.175  -2.574  0.00  0.00    -0.137 N 
ATOM      9  C   UNL     1      -0.371  -1.008  -3.171  0.00  0.00    +0.326 C 
ATOM     10  O   UNL     1      -0.955  -0.913  -4.233  0.00  0.00    -0.251 OA
ATOM     11  N   UNL     1       0.075   0.046  -2.466  0.00  0.00    -0.284 N 
ATOM     12  C   UNL     1       2.199  -0.115  -1.216  0.00  0.00    +0.041 C 
ATOM     13  H   UNL     1      -0.010   0.982  -2.706  0.00  0.00    +0.151 HD
BRANCH   5  15
ATOM     14  C   UNL     1      -0.019   1.526   0.010  0.00  0.00    +0.006 C 
ATOM     15  C   UNL     1       0.002  -0.004   0.002  0.00  0.00    +0.032 C 
ENDBRANCH   5  15
ENDBRANCH   1   8
BRANCH   2  16
ATOM     16  C   UNL     1      -2.115  -5.189  -3.598  0.00  0.00    +0.020 C 
BRANCH  16  17
ATOM     17  N   UNL     1      -3.556  -5.407  -3.415  0.00  0.00    +0.389 N 
ATOM     18  C   UNL     1      -3.861  -5.482  -1.980  0.00  0.00    -0.095 C 
ATOM     19  H   UNL     1      -4.067  -4.640  -3.827  0.00  0.00    -0.081 HD
BRANCH  17  20
ATOM     20  C   UNL     1      -3.948  -6.663  -4.066  0.00  0.00    +0.019 C 
BRANCH  20  21
ATOM     21  C   UNL     1      -5.444  -6.826  -3.985  0.00  0.00    +0.194 C 
ATOM     22  O   UNL     1      -6.117  -5.978  -3.438  0.00  0.00    -0.278 OA
ATOM     23  N   UNL     1      -6.034  -7.913  -4.519  0.00  0.00    -0.331 N 
ATOM     24  H   UNL     1      -5.496  -8.591  -4.957  0.00  0.00    +0.145 HD
ATOM     25  H   UNL     1      -6.997  -8.018  -4.467  0.00  0.00    +0.145 HD
ENDBRANCH  20  21
ENDBRANCH  17  20
ENDBRANCH  16  17
ENDBRANCH   2  16
TORSDOF 6
