REMARK  Name = ZINC50618964
REMARK  7 active torsions:
REMARK  status: ('A' for Active; 'I' for Inactive)
REMARK    1  A    between atoms: C_1  and  C_2
REMARK    2  A    between atoms: C_2  and  N_3
REMARK    3  A    between atoms: N_3  and  C_4
REMARK    4  A    between atoms: C_4  and  C_6
REMARK    5  A    between atoms: C_4  and  C_7
REMARK    6  A    between atoms: C_10  and  C_12
REMARK    7  A    between atoms: C_17  and  C_18
REMARK                            x       y       z     vdW  Elec       q    Type
REMARK                         _______ _______ _______ _____ _____    ______ ____
ROOT
ATOM      1  C   UNL     1      -2.763  -2.504   0.139  0.00  0.00    +0.204 A 
ATOM      2  N   UNL     1      -3.809  -2.073  -0.509  0.00  0.00    -0.114 NA
ATOM      3  N   UNL     1      -4.846  -2.745  -0.148  0.00  0.00    -0.107 NA
ATOM      4  C   UNL     1      -4.493  -3.634   0.750  0.00  0.00    +0.248 A 
ATOM      5  O   UNL     1      -3.166  -3.501   0.945  0.00  0.00    -0.422 OA
ENDROOT
BRANCH   4   6
ATOM      6  C   UNL     1      -5.385  -4.604   1.421  0.00  0.00    +0.041 A 
ATOM      7  C   UNL     1      -4.870  -5.492   2.366  0.00  0.00    +0.014 A 
ATOM      8  C   UNL     1      -5.707  -6.395   2.988  0.00  0.00    +0.016 A 
ATOM      9  C   UNL     1      -7.055  -6.422   2.676  0.00  0.00    +0.018 A 
ATOM     10  C   UNL     1      -7.572  -5.544   1.739  0.00  0.00    +0.019 A 
ATOM     11  C   UNL     1      -6.746  -4.632   1.114  0.00  0.00    -0.037 A 
ATOM     12  C   UNL     1      -7.312  -3.672   0.100  0.00  0.00    +0.044 C 
ATOM     13 BR   UNL     1      -8.196  -7.663   3.533  0.00  0.00    -0.050 Br
ENDBRANCH   4   6
BRANCH   1  14
ATOM     14  C   UNL     1      -1.356  -1.981   0.004  0.00  0.00    +0.015 C 
ATOM     15  C   UNL     1      -0.752  -2.476  -1.312  0.00  0.00    -0.004 C 
BRANCH  14  16
ATOM     16  N   UNL     1      -1.376  -0.512   0.012  0.00  0.00    +0.386 N 
ATOM     17  H   UNL     1      -1.848  -0.187   0.843  0.00  0.00    -0.085 HD
ATOM     18  H   UNL     1      -1.864  -0.178  -0.805  0.00  0.00    -0.085 HD
BRANCH  16  20
ATOM     19  C   UNL     1      -0.019   1.526   0.010  0.00  0.00    -0.017 C 
ATOM     20  C   UNL     1       0.002  -0.004   0.002  0.00  0.00    -0.085 C 
ENDBRANCH  16  20
ENDBRANCH  14  16
ENDBRANCH   1  14
TORSDOF 4
