REMARK  Name = ZINC51765484
REMARK  6 active torsions:
REMARK  status: ('A' for Active; 'I' for Inactive)
REMARK    1  A    between atoms: C_1  and  C_2
REMARK    2  A    between atoms: C_2  and  C_3
REMARK    3  A    between atoms: C_3  and  N_4
REMARK    4  A    between atoms: C_8  and  C_10
REMARK    5  A    between atoms: C_10  and  N_11
REMARK    6  A    between atoms: C_14  and  C_24
REMARK                            x       y       z     vdW  Elec       q    Type
REMARK                         _______ _______ _______ _____ _____    ______ ____
ROOT
ATOM      1  C   UNL     1       1.943  -6.138  -3.321  0.00  0.00    +0.019 C 
ENDROOT
BRANCH   1   2
ATOM      2  N   UNL     1       2.630  -6.611  -4.529  0.00  0.00    +0.387 N 
ATOM      3  C   UNL     1       4.037  -6.196  -4.484  0.00  0.00    -0.077 C 
ATOM      4  C   UNL     1       4.739  -6.617  -5.777  0.00  0.00    -0.015 C 
ATOM      5  C   UNL     1       4.659  -8.139  -5.923  0.00  0.00    -0.014 C 
ATOM      6  C   UNL     1       3.189  -8.568  -5.894  0.00  0.00    -0.022 C 
ATOM      7  C   UNL     1       2.545  -8.075  -4.597  0.00  0.00    -0.065 C 
ATOM      8  C   UNL     1       1.077  -8.505  -4.562  0.00  0.00    -0.015 C 
ATOM      9  C   UNL     1       0.991 -10.031  -4.627  0.00  0.00    -0.002 C 
ATOM     10  C   UNL     1       1.635 -10.523  -5.925  0.00  0.00    +0.000 C 
ATOM     11  C   UNL     1       3.103 -10.094  -5.963  0.00  0.00    +0.002 C 
ATOM     12  C   UNL     1       5.411  -8.804  -4.768  0.00  0.00    +0.007 C 
ATOM     13  H   UNL     1       2.189  -6.212  -5.344  0.00  0.00    -0.081 HD
ENDBRANCH   1   2
BRANCH   1  18
ATOM     14  N   UNL     1       0.738  -1.962  -1.265  0.00  0.00    -0.299 N 
ATOM     15  C   UNL     1       1.321  -2.623  -2.285  0.00  0.00    +0.306 C 
ATOM     16  O   UNL     1       1.830  -2.003  -3.198  0.00  0.00    -0.252 OA
ATOM     17  N   UNL     1       1.339  -3.970  -2.292  0.00  0.00    -0.242 N 
ATOM     18  C   UNL     1       1.922  -4.631  -3.312  0.00  0.00    +0.204 C 
ATOM     19  O   UNL     1       2.430  -4.013  -4.223  0.00  0.00    -0.277 OA
ATOM     20  H   UNL     1       0.332  -2.457  -0.536  0.00  0.00    +0.150 HD
ATOM     21  H   UNL     1       0.933  -4.465  -1.563  0.00  0.00    +0.159 HD
BRANCH  14  22
ATOM     22  C   UNL     1       0.718  -0.497  -1.257  0.00  0.00    +0.105 C 
BRANCH  22  24
ATOM     23  C   UNL     1      -0.019   1.526   0.010  0.00  0.00    +0.005 C 
ATOM     24  C   UNL     1       0.002  -0.004   0.002  0.00  0.00    +0.015 C 
ENDBRANCH  22  24
ENDBRANCH  14  22
ENDBRANCH   1  18
TORSDOF 4
