REMARK  Name = ZINC62527270
REMARK  11 active torsions:
REMARK  status: ('A' for Active; 'I' for Inactive)
REMARK    1  A    between atoms: C_1  and  C_2
REMARK    2  A    between atoms: C_2  and  C_3
REMARK    3  A    between atoms: C_3  and  C_4
REMARK    4  A    between atoms: C_3  and  N_5
REMARK    5  A    between atoms: C_6  and  C_8
REMARK    6  A    between atoms: C_8  and  C_9
REMARK    7  A    between atoms: C_8  and  N_10
REMARK    8  A    between atoms: N_13  and  C_14
REMARK    9  A    between atoms: C_14  and  C_15
REMARK   10  A    between atoms: C_15  and  C_16
REMARK   11  A    between atoms: C_15  and  N_21
REMARK                            x       y       z     vdW  Elec       q    Type
REMARK                         _______ _______ _______ _____ _____    ______ ____
ROOT
ATOM      1  N   UNL     1      -5.735  -0.265  -3.188  0.00  0.00    -0.288 N 
ATOM      2  C   UNL     1      -6.566   0.537  -3.882  0.00  0.00    +0.300 C 
ATOM      3  O   UNL     1      -6.231   0.964  -4.971  0.00  0.00    -0.253 OA
ATOM      4  N   UNL     1      -7.769   0.867  -3.370  0.00  0.00    -0.301 N 
ATOM      5  H   UNL     1      -6.002  -0.605  -2.320  0.00  0.00    +0.151 HD
ATOM      6  H   UNL     1      -8.036   0.527  -2.502  0.00  0.00    +0.150 HD
ENDROOT
BRANCH   1   7
ATOM      7  C   UNL     1      -4.428  -0.623  -3.745  0.00  0.00    +0.157 C 
ATOM      8  C   UNL     1      -4.582  -1.831  -4.672  0.00  0.00    +0.038 C 
BRANCH   7  10
ATOM      9  N   UNL     1      -2.214  -1.331  -2.900  0.00  0.00    -0.311 N 
ATOM     10  C   UNL     1      -3.482  -0.968  -2.624  0.00  0.00    +0.233 C 
ATOM     11  O   UNL     1      -3.862  -0.919  -1.473  0.00  0.00    -0.274 OA
ATOM     12  H   UNL     1      -1.910  -1.370  -3.821  0.00  0.00    +0.149 HD
BRANCH   9  13
ATOM     13  C   UNL     1      -1.294  -1.666  -1.810  0.00  0.00    +0.070 C 
ATOM     14  C   UNL     1      -1.475  -3.136  -1.424  0.00  0.00    +0.028 C 
BRANCH  13  16
ATOM     15  C   UNL     1       0.362   0.058  -2.536  0.00  0.00    +0.005 C 
ATOM     16  C   UNL     1       0.147  -1.433  -2.269  0.00  0.00    +0.018 C 
ENDBRANCH  13  16
ENDBRANCH   9  13
ENDBRANCH   7  10
ENDBRANCH   1   7
BRANCH   4  17
ATOM     17  C   UNL     1      -8.672   1.739  -4.125  0.00  0.00    +0.098 C 
BRANCH  17  18
ATOM     18  C   UNL     1     -10.008   1.849  -3.388  0.00  0.00    +0.016 C 
BRANCH  18  19
ATOM     19  N   UNL     1     -10.571   0.506  -3.192  0.00  0.00    +0.387 N 
ATOM     20  C   UNL     1     -10.678  -0.172  -4.490  0.00  0.00    -0.078 C 
ATOM     21  C   UNL     1     -11.188  -1.600  -4.283  0.00  0.00    -0.019 C 
ATOM     22  C   UNL     1     -12.565  -1.553  -3.615  0.00  0.00    -0.004 C 
ATOM     23  C   UNL     1     -12.456  -0.779  -2.298  0.00  0.00    -0.019 C 
ATOM     24  C   UNL     1     -11.900   0.619  -2.578  0.00  0.00    -0.078 C 
ATOM     25  H   UNL     1      -9.966  -0.026  -2.586  0.00  0.00    -0.081 HD
ENDBRANCH  18  19
BRANCH  18  26
ATOM     26  C   UNL     1     -10.965   2.680  -4.203  0.00  0.00    +0.093 A 
ATOM     27  C   UNL     1     -11.372   3.928  -3.907  0.00  0.00    +0.043 A 
ATOM     28  C   UNL     1     -12.259   4.324  -4.934  0.00  0.00    +0.041 A 
ATOM     29  C   UNL     1     -12.341   3.294  -5.797  0.00  0.00    +0.195 A 
ATOM     30  O   UNL     1     -11.551   2.304  -5.352  0.00  0.00    -0.469 OA
ENDBRANCH  18  26
ENDBRANCH  17  18
ENDBRANCH   4  17
TORSDOF 8
