REMARK  Name = ZINC39685824
REMARK  14 active torsions:
REMARK  status: ('A' for Active; 'I' for Inactive)
REMARK    1  A    between atoms: C_1  and  C_2
REMARK    2  A    between atoms: C_2  and  C_3
REMARK    3  A    between atoms: C_3  and  C_5
REMARK    4  A    between atoms: C_3  and  C_11
REMARK    5  A    between atoms: C_15  and  C_24
REMARK    6  A    between atoms: N_26  and  C_27
REMARK    7  A    between atoms: C_27  and  C_29
REMARK    8  A    between atoms: C_27  and  C_32
REMARK    9  A    between atoms: C_29  and  C_30
REMARK   10  A    between atoms: C_29  and  C_31
REMARK   11  A    between atoms: N_34  and  C_35
REMARK   12  A    between atoms: C_35  and  C_36
REMARK   13  A    between atoms: C_35  and  C_37
REMARK   14  A    between atoms: C_35  and  C_38
REMARK                            x       y       z     vdW  Elec       q    Type
REMARK                         _______ _______ _______ _____ _____    ______ ____
ROOT
ATOM      1  C   UNL     1      -0.852  -2.640  -0.346  0.00  0.00    +0.223 C 
ATOM      2  O   UNL     1      -1.018  -3.428  -1.254  0.00  0.00    -0.275 OA
ATOM      3  N   UNL     1      -0.261  -3.044   0.796  0.00  0.00    -0.300 N 
ATOM      4  C   UNL     1       0.021  -2.238   2.007  0.00  0.00    +0.121 C 
ATOM      5  C   UNL     1      -0.280  -3.189   3.188  0.00  0.00    +0.100 C 
ATOM      6  C   UNL     1      -0.122  -4.602   2.603  0.00  0.00    -0.004 C 
ATOM      7  C   UNL     1       0.249  -4.396   1.127  0.00  0.00    +0.115 C 
ATOM      8  C   UNL     1       0.989  -5.354   3.329  0.00  0.00    -0.010 C 
ATOM      9  C   UNL     1       1.087  -6.776   2.769  0.00  0.00    -0.082 C 
ATOM     10  N   UNL     1      -0.196  -7.465   2.950  0.00  0.00    +0.379 N 
ATOM     11  C   UNL     1      -1.242  -6.788   2.173  0.00  0.00    -0.082 C 
ATOM     12  C   UNL     1      -1.439  -5.367   2.708  0.00  0.00    -0.010 C 
ATOM     13  H   UNL     1      -0.111  -8.420   2.636  0.00  0.00    -0.086 HD
ATOM     14  H   UNL     1      -0.446  -7.456   3.927  0.00  0.00    -0.086 HD
ENDROOT
BRANCH   5  15
ATOM     15  C   UNL     1       0.708  -2.967   4.304  0.00  0.00    +0.219 C 
ATOM     16  O   UNL     1       1.823  -2.559   4.056  0.00  0.00    -0.275 OA
ATOM     17  N   UNL     1       0.352  -3.223   5.579  0.00  0.00    -0.303 N 
ATOM     18  H   UNL     1      -0.539  -3.549   5.778  0.00  0.00    +0.149 HD
BRANCH  17  19
ATOM     19  C   UNL     1       1.312  -3.008   6.664  0.00  0.00    +0.161 C 
BRANCH  19  20
ATOM     20  C   UNL     1       0.956  -3.890   7.833  0.00  0.00    +0.234 C 
ATOM     21  O   UNL     1      -0.176  -4.308   7.954  0.00  0.00    -0.274 OA
ATOM     22  N   UNL     1       1.895  -4.215   8.744  0.00  0.00    -0.309 N 
ATOM     23  H   UNL     1       2.779  -3.820   8.690  0.00  0.00    +0.149 HD
BRANCH  22  24
ATOM     24  C   UNL     1       1.579  -5.162   9.815  0.00  0.00    +0.026 C 
ATOM     25  C   UNL     1       1.176  -6.506   9.205  0.00  0.00    +0.031 C 
ATOM     26  C   UNL     1       2.809  -5.355  10.704  0.00  0.00    +0.031 C 
ATOM     27  C   UNL     1       0.423  -4.617  10.655  0.00  0.00    +0.031 C 
ENDBRANCH  22  24
ENDBRANCH  19  20
BRANCH  19  28
ATOM     28  C   UNL     1       1.269  -1.542   7.101  0.00  0.00    +0.012 C 
ATOM     29  C   UNL     1       1.757  -0.654   5.954  0.00  0.00    +0.009 C 
ATOM     30  C   UNL     1      -0.167  -1.160   7.465  0.00  0.00    +0.009 C 
ENDBRANCH  19  28
ENDBRANCH  17  19
ENDBRANCH   5  15
BRANCH   1  31
ATOM     31  C   UNL     1      -1.306  -1.211  -0.495  0.00  0.00    +0.105 C 
BRANCH  31  32
ATOM     32  C   UNL     1      -1.929  -1.022  -1.854  0.00  0.00    -0.036 A 
ATOM     33  C   UNL     1      -1.187  -1.262  -2.994  0.00  0.00    +0.004 A 
ATOM     34  C   UNL     1      -1.759  -1.088  -4.241  0.00  0.00    +0.000 A 
ATOM     35  C   UNL     1      -3.074  -0.674  -4.346  0.00  0.00    +0.000 A 
ATOM     36  C   UNL     1      -3.817  -0.435  -3.205  0.00  0.00    +0.000 A 
ATOM     37  C   UNL     1      -3.246  -0.613  -1.959  0.00  0.00    +0.004 A 
ENDBRANCH  31  32
BRANCH  31  39
ATOM     38  C   UNL     1      -0.582   1.177  -0.377  0.00  0.00    +0.005 C 
ATOM     39  C   UNL     1      -0.104  -0.276  -0.350  0.00  0.00    +0.014 C 
ENDBRANCH  31  39
ENDBRANCH   1  31
TORSDOF 8
