REMARK  Name = ZINC62565594
REMARK  5 active torsions:
REMARK  status: ('A' for Active; 'I' for Inactive)
REMARK    1  A    between atoms: C_1  and  C_2
REMARK    2  A    between atoms: C_5  and  S_8
REMARK    3  A    between atoms: S_8  and  N_11
REMARK    4  A    between atoms: N_11  and  C_12
REMARK    5  A    between atoms: C_17  and  C_18
REMARK                            x       y       z     vdW  Elec       q    Type
REMARK                         _______ _______ _______ _____ _____    ______ ____
ROOT
ATOM      1  C   UNL     1       2.471  -4.547   0.998  0.00  0.00    +0.058 A 
ATOM      2  C   UNL     1       2.011  -4.565   2.309  0.00  0.00    +0.025 A 
ATOM      3  C   UNL     1       2.871  -4.268   3.347  0.00  0.00    +0.002 A 
ATOM      4  C   UNL     1       4.196  -3.952   3.092  0.00  0.00    +0.001 A 
ATOM      5  C   UNL     1       4.670  -3.930   1.798  0.00  0.00    +0.013 A 
ATOM      6  C   UNL     1       3.813  -4.233   0.737  0.00  0.00    +0.035 A 
ENDROOT
BRANCH   6   7
ATOM      7  C   UNL     1       4.315  -4.218  -0.650  0.00  0.00    +0.101 C 
ATOM      8  N   UNL     1       5.354  -4.983  -0.956  0.00  0.00    -0.373 N 
ATOM      9  C   UNL     1       5.903  -5.022  -2.312  0.00  0.00    +0.115 C 
ATOM     10  C   UNL     1       5.648  -3.675  -2.995  0.00  0.00    +0.040 C 
ATOM     11  C   UNL     1       4.146  -3.375  -2.929  0.00  0.00    +0.104 C 
ATOM     12  N   UNL     1       3.704  -3.442  -1.535  0.00  0.00    -0.330 N 
ATOM     13  H   UNL     1       2.948  -2.905  -1.251  0.00  0.00    +0.147 HD
ATOM     14  H   UNL     1       5.759  -5.530  -0.264  0.00  0.00    +0.161 HD
ENDBRANCH   6   7
BRANCH   1  15
ATOM     15  N   UNL     1       1.607  -4.845  -0.048  0.00  0.00    -0.216 N 
ATOM     16  H   UNL     1       1.934  -5.326  -0.825  0.00  0.00    +0.174 HD
BRANCH  15  17
ATOM     17  S   UNL     1       0.020  -4.379   0.030  0.00  0.00    +0.072 S 
ATOM     18  O   UNL     1      -0.490  -4.880   1.258  0.00  0.00    -0.150 OA
ATOM     19  O   UNL     1      -0.561  -4.703  -1.226  0.00  0.00    -0.150 OA
BRANCH  17  24
ATOM     20  C   UNL     1      -0.056   1.639   0.462  0.00  0.00    +0.044 C 
ATOM     21  C   UNL     1      -0.036   0.136   0.354  0.00  0.00    -0.050 A 
ATOM     22  C   UNL     1      -0.060  -0.468  -0.889  0.00  0.00    +0.005 A 
ATOM     23  C   UNL     1      -0.043  -1.847  -0.988  0.00  0.00    +0.029 A 
ATOM     24  C   UNL     1      -0.001  -2.622   0.156  0.00  0.00    +0.109 A 
ATOM     25  C   UNL     1       0.024  -2.018   1.399  0.00  0.00    +0.029 A 
ATOM     26  C   UNL     1       0.011  -0.639   1.498  0.00  0.00    +0.005 A 
ENDBRANCH  17  24
ENDBRANCH  15  17
ENDBRANCH   1  15
TORSDOF 4
