REMARK  Name = ZINC37977770
REMARK  7 active torsions:
REMARK  status: ('A' for Active; 'I' for Inactive)
REMARK    1  A    between atoms: C_1  and  C_2
REMARK    2  A    between atoms: C_2  and  C_3
REMARK    3  A    between atoms: C_6  and  C_9
REMARK    4  A    between atoms: C_9  and  C_11
REMARK    5  A    between atoms: C_9  and  N_12
REMARK    6  A    between atoms: N_12  and  C_13
REMARK    7  A    between atoms: C_13  and  C_14
REMARK                            x       y       z     vdW  Elec       q    Type
REMARK                         _______ _______ _______ _____ _____    ______ ____
ROOT
ATOM      1  N   UNL     1      -6.196  -1.338  -1.010  0.00  0.00    +0.387 N 
ATOM      2  H   UNL     1      -6.136  -0.338  -0.891  0.00  0.00    -0.085 HD
ATOM      3  H   UNL     1      -5.824  -1.591  -1.914  0.00  0.00    -0.085 HD
ENDROOT
BRANCH   1   4
ATOM      4  C   UNL     1      -5.419  -2.005   0.043  0.00  0.00    -0.044 C 
ATOM      5  C   UNL     1      -5.407  -3.514  -0.210  0.00  0.00    -0.009 C 
BRANCH   4   9
ATOM      6  C   UNL     1      -1.412  -0.526   0.013  0.00  0.00    -0.048 A 
ATOM      7  C   UNL     1      -2.051  -0.766   1.215  0.00  0.00    +0.004 A 
ATOM      8  C   UNL     1      -3.348  -1.244   1.225  0.00  0.00    +0.002 A 
ATOM      9  C   UNL     1      -4.006  -1.482   0.032  0.00  0.00    -0.062 A 
ATOM     10  C   UNL     1      -3.367  -1.241  -1.170  0.00  0.00    +0.002 A 
ATOM     11  C   UNL     1      -2.072  -0.758  -1.179  0.00  0.00    +0.004 A 
BRANCH   6  13
ATOM     12  C   UNL     1      -0.019   1.526   0.010  0.00  0.00    +0.009 C 
ATOM     13  C   UNL     1       0.002  -0.004   0.002  0.00  0.00    +0.032 C 
ENDBRANCH   6  13
ENDBRANCH   4   9
ENDBRANCH   1   4
BRANCH   1  14
ATOM     14  C   UNL     1      -7.601  -1.758  -0.923  0.00  0.00    -0.024 C 
BRANCH  14  15
ATOM     15  C   UNL     1      -8.397  -1.074  -2.004  0.00  0.00    +0.043 A 
ATOM     16  C   UNL     1      -8.691  -1.594  -3.216  0.00  0.00    +0.114 A 
ATOM     17  N   UNL     1      -9.427  -0.658  -3.890  0.00  0.00    -0.306 N 
ATOM     18  C   UNL     1      -9.985  -0.644  -5.136  0.00  0.00    +0.092 A 
ATOM     19  C   UNL     1     -10.677   0.431  -5.566  0.00  0.00    +0.018 A 
ATOM     20  C   UNL     1     -10.832   1.554  -4.736  0.00  0.00    +0.005 A 
ATOM     21  C   UNL     1     -10.281   1.553  -3.493  0.00  0.00    +0.047 A 
ATOM     22  C   UNL     1      -9.561   0.422  -3.057  0.00  0.00    +0.138 A 
ATOM     23  N   UNL     1      -8.935   0.145  -1.922  0.00  0.00    -0.235 NA
ENDBRANCH  14  15
ENDBRANCH   1  14
TORSDOF 5
