REMARK  Name = ZINC62978324
REMARK  11 active torsions:
REMARK  status: ('A' for Active; 'I' for Inactive)
REMARK    1  A    between atoms: C_1  and  C_2
REMARK    2  A    between atoms: C_2  and  N_3
REMARK    3  A    between atoms: N_3  and  C_4
REMARK    4  A    between atoms: N_3  and  C_6
REMARK    5  A    between atoms: C_4  and  C_5
REMARK    6  A    between atoms: N_10  and  C_12
REMARK    7  A    between atoms: C_12  and  C_22
REMARK    8  A    between atoms: C_14  and  C_21
REMARK    9  A    between atoms: C_17  and  C_19
REMARK   10  A    between atoms: C_17  and  C_20
REMARK   11  A    between atoms: C_22  and  N_23
REMARK                            x       y       z     vdW  Elec       q    Type
REMARK                         _______ _______ _______ _____ _____    ______ ____
ROOT
ATOM      1  C   UNL     1       0.298  -3.213  -4.754  0.00  0.00    +0.007 C 
ATOM      2  C   UNL     1      -0.578  -1.963  -4.860  0.00  0.00    +0.023 C 
ATOM      3  C   UNL     1      -0.721  -1.563  -6.329  0.00  0.00    -0.012 C 
ATOM      4  C   UNL     1      -1.371  -2.708  -7.109  0.00  0.00    +0.009 C 
ATOM      5  C   UNL     1      -0.495  -3.958  -7.003  0.00  0.00    -0.033 C 
ATOM      6  C   UNL     1      -0.351  -4.358  -5.534  0.00  0.00    +0.026 C 
ATOM      7  C   UNL     1       0.888  -3.663  -7.589  0.00  0.00    +0.011 C 
ATOM      8  C   UNL     1      -1.144  -5.103  -7.783  0.00  0.00    +0.011 C 
ATOM      9  C   UNL     1      -1.597  -0.313  -6.435  0.00  0.00    +0.007 C 
ENDROOT
BRANCH   1  13
ATOM     10  C   UNL     1      -0.435  -4.897  -1.551  0.00  0.00    -0.053 C 
ATOM     11  C   UNL     1       0.865  -5.589  -2.023  0.00  0.00    +0.001 C 
ATOM     12  C   UNL     1       1.379  -4.726  -3.191  0.00  0.00    +0.083 C 
ATOM     13  N   UNL     1       0.436  -3.597  -3.343  0.00  0.00    -0.300 NA
ATOM     14  C   UNL     1      -0.861  -4.070  -2.790  0.00  0.00    +0.069 C 
BRANCH  10  15
ATOM     15  N   UNL     1      -1.460  -5.893  -1.213  0.00  0.00    +0.382 N 
ATOM     16  H   UNL     1      -1.577  -6.531  -1.986  0.00  0.00    -0.081 HD
BRANCH  15  18
ATOM     17  C   UNL     1      -2.047  -7.760   0.259  0.00  0.00    -0.017 C 
ATOM     18  C   UNL     1      -1.041  -6.641  -0.020  0.00  0.00    -0.082 C 
ENDBRANCH  15  18
BRANCH  15  19
ATOM     19  C   UNL     1      -2.733  -5.213  -0.942  0.00  0.00    -0.082 C 
ATOM     20  C   UNL     1      -2.528  -4.164   0.153  0.00  0.00    -0.017 C 
ENDBRANCH  15  19
ENDBRANCH  10  15
ENDBRANCH   1  13
BRANCH   1  21
ATOM     21  C   UNL     1       1.681  -2.917  -5.339  0.00  0.00    -0.064 C 
BRANCH  21  22
ATOM     22  N   UNL     1       2.390  -1.972  -4.467  0.00  0.00    +0.379 N 
ATOM     23  H   UNL     1       2.567  -2.407  -3.574  0.00  0.00    -0.090 HD
ATOM     24  H   UNL     1       3.266  -1.712  -4.894  0.00  0.00    -0.090 HD
ATOM     25  H   UNL     1       1.824  -1.148  -4.333  0.00  0.00    -0.090 HD
ENDBRANCH  21  22
ENDBRANCH   1  21
TORSDOF 6
