REMARK  Name = ZINC06530765
REMARK  9 active torsions:
REMARK  status: ('A' for Active; 'I' for Inactive)
REMARK    1  A    between atoms: C_1  and  C_2
REMARK    2  A    between atoms: C_2  and  C_21
REMARK    3  A    between atoms: C_4  and  N_9
REMARK    4  A    between atoms: C_6  and  C_7
REMARK    5  A    between atoms: C_6  and  C_8
REMARK    6  A    between atoms: C_10  and  C_11
REMARK    7  A    between atoms: C_12  and  O_20
REMARK    8  A    between atoms: C_14  and  C_18
REMARK    9  A    between atoms: C_14  and  C_19
REMARK                            x       y       z     vdW  Elec       q    Type
REMARK                         _______ _______ _______ _____ _____    ______ ____
ROOT
ATOM      1  N   UNL     1       0.389   5.051  -1.207  0.00  0.00    -0.288 NA
ATOM      2  C   UNL     1       0.797   5.682  -2.262  0.00  0.00    +0.119 C 
ENDROOT
BRANCH   1   6
ATOM      3  C   UNL     1      -0.944   0.975  -2.269  0.00  0.00    -0.010 C 
ATOM      4  C   UNL     1      -1.042   1.551  -0.852  0.00  0.00    -0.071 C 
ATOM      5  C   UNL     1      -1.022   3.076  -0.918  0.00  0.00    +0.014 C 
ATOM      6  C   UNL     1       0.396   3.583  -1.181  0.00  0.00    +0.103 C 
ATOM      7  C   UNL     1       1.298   3.104  -0.042  0.00  0.00    +0.014 C 
ATOM      8  C   UNL     1       1.320   1.577  -0.002  0.00  0.00    -0.071 C 
ATOM      9  C   UNL     1       2.035   1.156   1.301  0.00  0.00    -0.010 C 
ATOM     10  C   UNL     1       2.151   1.041  -1.172  0.00  0.00    -0.010 C 
ATOM     11  C   UNL     1      -2.415   1.129  -0.282  0.00  0.00    -0.010 C 
ATOM     12  N   UNL     1      -0.027   0.947   0.053  0.00  0.00    +0.386 N 
ATOM     13  H   UNL     1       0.074  -0.044  -0.199  0.00  0.00    -0.084 HD
ATOM     14  H   UNL     1      -0.375   1.022   1.016  0.00  0.00    -0.084 HD
ENDBRANCH   1   6
BRANCH   2  15
ATOM     15  C   UNL     1       0.789   7.154  -2.287  0.00  0.00    +0.072 C 
ATOM     16  C   UNL     1       1.222   7.822  -3.405  0.00  0.00    +0.106 C 
ATOM     17  C   UNL     1       1.250   9.320  -3.490  0.00  0.00    +0.081 C 
ATOM     18  C   UNL     1       0.285   9.946  -2.486  0.00  0.00    -0.021 C 
ATOM     19  C   UNL     1       0.583   9.394  -1.086  0.00  0.00    +0.086 C 
ATOM     20  C   UNL     1       0.314   7.903  -1.120  0.00  0.00    +0.168 C 
ATOM     21  O   UNL     1      -0.271   7.348  -0.213  0.00  0.00    -0.292 OA
ATOM     22  C   UNL     1       0.463  11.466  -2.485  0.00  0.00    +0.012 C 
ATOM     23  C   UNL     1      -1.154   9.601  -2.877  0.00  0.00    +0.012 C 
BRANCH  16  24
ATOM     24  O   UNL     1       1.635   7.107  -4.464  0.00  0.00    -0.510 OA
ATOM     25  H   UNL     1       1.917   7.728  -5.195  0.00  0.00    +0.292 HD
ENDBRANCH  16  24
ENDBRANCH   2  15
TORSDOF 3
