REMARK  Name = ZINC50887347
REMARK  8 active torsions:
REMARK  status: ('A' for Active; 'I' for Inactive)
REMARK    1  A    between atoms: C_1  and  C_2
REMARK    2  A    between atoms: C_2  and  C_3
REMARK    3  A    between atoms: C_3  and  C_4
REMARK    4  A    between atoms: C_4  and  C_5
REMARK    5  A    between atoms: C_5  and  C_7
REMARK    6  A    between atoms: C_5  and  N_8
REMARK    7  A    between atoms: N_8  and  C_9
REMARK    8  A    between atoms: C_9  and  C_10
REMARK                            x       y       z     vdW  Elec       q    Type
REMARK                         _______ _______ _______ _____ _____    ______ ____
ROOT
ATOM      1  C   UNL     1       1.425  -2.503  -4.923  0.00  0.00    -0.045 C 
ENDROOT
BRANCH   1   2
ATOM      2  C   UNL     1       0.629  -2.109  -6.140  0.00  0.00    -0.047 A 
ATOM      3  C   UNL     1       1.007  -1.005  -6.883  0.00  0.00    +0.052 A 
ATOM      4  C   UNL     1       0.277  -0.640  -8.002  0.00  0.00    +0.166 A 
ATOM      5  C   UNL     1      -0.837  -1.388  -8.378  0.00  0.00    +0.167 A 
ATOM      6  C   UNL     1      -1.209  -2.492  -7.630  0.00  0.00    +0.065 A 
ATOM      7  C   UNL     1      -0.473  -2.855  -6.516  0.00  0.00    +0.023 A 
ATOM      8 BR   UNL     1      -0.979  -4.368  -5.501  0.00  0.00    -0.050 Br
ATOM      9  O   UNL     1      -1.378  -0.831  -9.500  0.00  0.00    -0.453 OA
ATOM     10  C   UNL     1      -0.829   0.499  -9.572  0.00  0.00    +0.466 C 
ATOM     11  O   UNL     1       0.433   0.385  -8.890  0.00  0.00    -0.453 OA
ENDBRANCH   1   2
BRANCH   1  12
ATOM     12  N   UNL     1       0.680  -2.136  -3.711  0.00  0.00    +0.383 N 
ATOM     13  H   UNL     1      -0.208  -2.616  -3.703  0.00  0.00    -0.085 HD
ATOM     14  H   UNL     1       0.523  -1.139  -3.702  0.00  0.00    -0.085 HD
BRANCH  12  15
ATOM     15  C   UNL     1       1.455  -2.521  -2.524  0.00  0.00    -0.075 C 
ATOM     16  C   UNL     1       1.586  -4.044  -2.472  0.00  0.00    -0.014 C 
BRANCH  15  17
ATOM     17  C   UNL     1       0.739  -2.027  -1.265  0.00  0.00    -0.016 C 
BRANCH  17  18
ATOM     18  C   UNL     1       0.718  -0.497  -1.257  0.00  0.00    -0.002 C 
BRANCH  18  20
ATOM     19  C   UNL     1      -0.019   1.526   0.010  0.00  0.00    +0.004 C 
ATOM     20  C   UNL     1       0.002  -0.004   0.002  0.00  0.00    -0.003 C 
ENDBRANCH  18  20
ENDBRANCH  17  18
ENDBRANCH  15  17
ENDBRANCH  12  15
ENDBRANCH   1  12
TORSDOF 6
