REMARK  Name = ZINC38819109
REMARK  7 active torsions:
REMARK  status: ('A' for Active; 'I' for Inactive)
REMARK    1  A    between atoms: C_1  and  C_2
REMARK    2  A    between atoms: C_7  and  C_12
REMARK    3  A    between atoms: C_13  and  N_28
REMARK    4  A    between atoms: N_14  and  C_18
REMARK    5  A    between atoms: C_22  and  C_24
REMARK    6  A    between atoms: C_24  and  O_26
REMARK    7  A    between atoms: O_26  and  C_27
REMARK                            x       y       z     vdW  Elec       q    Type
REMARK                         _______ _______ _______ _____ _____    ______ ____
ROOT
ATOM      1  C   UNL     1      -1.166  -5.036   2.112  0.00  0.00    +0.074 C 
ATOM      2  C   UNL     1      -1.164  -6.219   2.814  0.00  0.00    +0.099 C 
ATOM      3  N   UNL     1      -2.404  -6.790   2.843  0.00  0.00    -0.281 N 
ATOM      4  C   UNL     1      -3.314  -5.910   2.095  0.00  0.00    +0.191 C 
ATOM      5  C   UNL     1      -2.443  -4.759   1.637  0.00  0.00    +0.183 C 
ATOM      6  O   UNL     1      -2.789  -3.791   0.986  0.00  0.00    -0.290 OA
ENDROOT
BRANCH   1  13
ATOM      7  C   UNL     1      -0.255   1.601   0.124  0.00  0.00    +0.044 C 
ATOM      8  C   UNL     1      -0.104   0.103   0.185  0.00  0.00    -0.048 A 
ATOM      9  C   UNL     1       0.187  -0.594  -1.001  0.00  0.00    +0.005 A 
ATOM     10  C   UNL     1       0.338  -1.933  -1.038  0.00  0.00    +0.027 A 
ATOM     11  C   UNL     1       0.196  -2.713   0.199  0.00  0.00    +0.060 A 
ATOM     12  N   UNL     1       0.285  -3.986   0.458  0.00  0.00    -0.359 N 
ATOM     13  C   UNL     1       0.042  -4.161   1.895  0.00  0.00    +0.212 C 
ATOM     14  N   UNL     1      -0.202  -2.820   2.441  0.00  0.00    -0.359 N 
ATOM     15  C   UNL     1      -0.112  -1.975   1.454  0.00  0.00    +0.061 A 
ATOM     16  C   UNL     1      -0.249  -0.514   1.374  0.00  0.00    +0.030 A 
ATOM     17  H   UNL     1       0.477  -4.690  -0.182  0.00  0.00    +0.162 HD
ATOM     18  H   UNL     1      -0.394  -2.603   3.366  0.00  0.00    +0.162 HD
ENDBRANCH   1  13
BRANCH   3  19
ATOM     19  C   UNL     1      -2.746  -7.993   3.470  0.00  0.00    +0.036 A 
ATOM     20  C   UNL     1      -3.603  -7.987   4.565  0.00  0.00    +0.023 A 
ATOM     21  C   UNL     1      -3.944  -9.173   5.187  0.00  0.00    +0.003 A 
ATOM     22  C   UNL     1      -3.438 -10.371   4.726  0.00  0.00    +0.015 A 
ATOM     23  C   UNL     1      -2.576 -10.388   3.627  0.00  0.00    +0.061 A 
ATOM     24  C   UNL     1      -2.236  -9.191   2.995  0.00  0.00    +0.038 A 
BRANCH  23  25
ATOM     25  C   UNL     1      -2.032 -11.669   3.132  0.00  0.00    +0.339 C 
ATOM     26  O   UNL     1      -1.283 -11.681   2.175  0.00  0.00    -0.245 OA
BRANCH  25  27
ATOM     27  O   UNL     1      -2.366 -12.823   3.740  0.00  0.00    -0.464 OA
ATOM     28  C   UNL     1      -1.803 -14.024   3.208  0.00  0.00    +0.280 C 
ENDBRANCH  25  27
ENDBRANCH  23  25
ENDBRANCH   3  19
BRANCH   2  29
ATOM     29  N   UNL     1      -0.055  -6.758   3.409  0.00  0.00    -0.346 N 
ATOM     30  H   UNL     1       0.813  -6.345   3.279  0.00  0.00    +0.143 HD
ATOM     31  H   UNL     1      -0.138  -7.552   3.959  0.00  0.00    +0.143 HD
ENDBRANCH   2  29
TORSDOF 5
