REMARK  Name = ZINC44786336
REMARK  10 active torsions:
REMARK  status: ('A' for Active; 'I' for Inactive)
REMARK    1  A    between atoms: C_1  and  C_2
REMARK    2  A    between atoms: C_3  and  C_8
REMARK    3  A    between atoms: C_5  and  C_7
REMARK    4  A    between atoms: C_8  and  C_10
REMARK    5  A    between atoms: C_8  and  N_11
REMARK    6  A    between atoms: C_12  and  C_14
REMARK    7  A    between atoms: C_14  and  C_15
REMARK    8  A    between atoms: C_14  and  C_16
REMARK    9  A    between atoms: C_14  and  C_17
REMARK   10  A    between atoms: N_18  and  O_19
REMARK                            x       y       z     vdW  Elec       q    Type
REMARK                         _______ _______ _______ _____ _____    ______ ____
ROOT
ATOM      1  N   UNL     1      -0.978  -0.991  -3.359  0.00  0.00    -0.307 N 
ATOM      2  C   UNL     1      -1.540  -0.459  -4.462  0.00  0.00    +0.226 C 
ATOM      3  O   UNL     1      -1.243   0.664  -4.813  0.00  0.00    -0.275 OA
ATOM      4  H   UNL     1      -1.216  -1.889  -3.079  0.00  0.00    +0.149 HD
ENDROOT
BRANCH   2   5
ATOM      5  C   UNL     1      -2.538  -1.258  -5.261  0.00  0.00    +0.099 C 
ATOM      6  C   UNL     1      -1.876  -2.541  -5.766  0.00  0.00    +0.028 C 
ATOM      7  C   UNL     1      -3.732  -1.615  -4.373  0.00  0.00    +0.028 C 
BRANCH   5   8
ATOM      8  C   UNL     1      -3.011  -0.440  -6.435  0.00  0.00    +0.146 C 
ATOM      9  N   UNL     1      -2.825  -0.871  -7.639  0.00  0.00    -0.076 NA
ATOM     10  N   UNL     1      -3.642   0.766  -6.225  0.00  0.00    -0.343 N 
ATOM     11  H   UNL     1      -3.782   1.089  -5.321  0.00  0.00    +0.144 HD
ATOM     12  H   UNL     1      -3.947   1.292  -6.981  0.00  0.00    +0.144 HD
BRANCH   9  13
ATOM     13  O   UNL     1      -3.270  -0.103  -8.742  0.00  0.00    -0.408 OA
ATOM     14  H   UNL     1      -3.086  -0.507  -9.601  0.00  0.00    +0.328 HD
ENDBRANCH   9  13
ENDBRANCH   5   8
ENDBRANCH   2   5
BRANCH   1  15
ATOM     15  C   UNL     1      -0.008  -0.215  -2.583  0.00  0.00    +0.109 C 
ATOM     16  C   UNL     1       1.384  -0.381  -3.194  0.00  0.00    +0.033 C 
BRANCH  15  19
ATOM     17  C   UNL     1      -0.018   1.503   0.010  0.00  0.00    +0.066 C 
ATOM     18  C   UNL     1       0.002  -0.004   0.002  0.00  0.00    +0.051 A 
ATOM     19  C   UNL     1       0.006  -0.708  -1.159  0.00  0.00    +0.032 A 
ATOM     20  S   UNL     1       0.032  -2.379  -0.531  0.00  0.00    -0.075 S 
ATOM     21  C   UNL     1       0.036  -2.009   1.111  0.00  0.00    +0.076 A 
ATOM     22  N   UNL     1       0.023  -0.699   1.122  0.00  0.00    -0.249 NA
ATOM     23  C   UNL     1       0.055  -2.955   2.284  0.00  0.00    +0.073 C 
ENDBRANCH  15  19
ENDBRANCH   1  15
TORSDOF 5
