REMARK  Name = ZINC46054768
REMARK  5 active torsions:
REMARK  status: ('A' for Active; 'I' for Inactive)
REMARK    1  A    between atoms: C_1  and  C_2
REMARK    2  A    between atoms: C_2  and  C_3
REMARK    3  A    between atoms: N_12  and  C_13
REMARK    4  A    between atoms: C_13  and  C_14
REMARK    5  A    between atoms: N_16  and  C_17
REMARK                            x       y       z     vdW  Elec       q    Type
REMARK                         _______ _______ _______ _____ _____    ______ ____
ROOT
ATOM      1  C   UNL     1       2.143   1.262   1.450  0.00  0.00    +0.019 C 
ENDROOT
BRANCH   1  10
ATOM      2  C   UNL     1       0.648  -0.600   1.281  0.00  0.00    -0.036 C 
ATOM      3  C   UNL     1       0.571  -2.121   1.201  0.00  0.00    -0.051 A 
ATOM      4  C   UNL     1      -0.562  -2.825   0.802  0.00  0.00    +0.010 A 
ATOM      5  C   UNL     1      -0.538  -4.178   0.759  0.00  0.00    +0.045 A 
ATOM      6  S   UNL     1       1.129  -4.535   1.294  0.00  0.00    -0.101 S 
ATOM      7  C   UNL     1       1.663  -2.866   1.534  0.00  0.00    -0.010 A 
ATOM      8  C   UNL     1       2.985  -2.344   1.995  0.00  0.00    +0.024 C 
ATOM      9  C   UNL     1       2.798  -0.860   2.355  0.00  0.00    -0.072 C 
ATOM     10  N   UNL     1       2.058  -0.194   1.274  0.00  0.00    +0.390 N 
ATOM     11  H   UNL     1       2.471  -0.445   0.388  0.00  0.00    -0.080 HD
BRANCH   2  13
ATOM     12  C   UNL     1       0.582  -0.489  -1.214  0.00  0.00    +0.002 C 
ATOM     13  C   UNL     1      -0.069   0.013   0.076  0.00  0.00    -0.014 C 
ENDBRANCH   2  13
ENDBRANCH   1  10
BRANCH   1  14
ATOM     14  C   UNL     1       3.571   1.707   1.265  0.00  0.00    +0.197 C 
ATOM     15  O   UNL     1       4.433   0.892   1.012  0.00  0.00    -0.278 OA
ATOM     16  N   UNL     1       3.890   3.011   1.382  0.00  0.00    -0.306 N 
ATOM     17  H   UNL     1       3.201   3.663   1.585  0.00  0.00    +0.149 HD
BRANCH  16  18
ATOM     18  C   UNL     1       5.278   3.445   1.202  0.00  0.00    +0.159 C 
ATOM     19  C   UNL     1       5.467   4.833   1.817  0.00  0.00    +0.032 C 
ATOM     20  C   UNL     1       4.214   5.673   1.644  0.00  0.00    +0.004 C 
ATOM     21  C   UNL     1       3.910   6.029   0.200  0.00  0.00    +0.019 C 
ATOM     22  C   UNL     1       3.537   4.781  -0.602  0.00  0.00    +0.104 C 
ATOM     23  N   UNL     1       4.771   4.160  -1.108  0.00  0.00    -0.314 N 
ATOM     24  C   UNL     1       5.600   3.521  -0.276  0.00  0.00    +0.233 C 
ATOM     25  O   UNL     1       6.613   3.007  -0.701  0.00  0.00    -0.274 OA
ATOM     26  H   UNL     1       4.985   4.211  -2.053  0.00  0.00    +0.149 HD
ENDBRANCH  16  18
ENDBRANCH   1  14
TORSDOF 4
