REMARK  Name = ZINC37270347
REMARK  6 active torsions:
REMARK  status: ('A' for Active; 'I' for Inactive)
REMARK    1  A    between atoms: C_1  and  C_2
REMARK    2  A    between atoms: C_3  and  C_10
REMARK    3  A    between atoms: C_10  and  N_11
REMARK    4  A    between atoms: N_11  and  C_12
REMARK    5  A    between atoms: N_15  and  S_18
REMARK    6  A    between atoms: S_18  and  C_21
REMARK                            x       y       z     vdW  Elec       q    Type
REMARK                         _______ _______ _______ _____ _____    ______ ____
ROOT
ATOM      1  N   UNL     1      -1.396  -0.174  -2.979  0.00  0.00    +0.385 N 
ATOM      2  H   UNL     1      -1.859  -1.068  -2.917  0.00  0.00    -0.085 HD
ATOM      3  H   UNL     1      -1.878   0.495  -2.398  0.00  0.00    -0.085 HD
ENDROOT
BRANCH   1   4
ATOM      4  C   UNL     1      -1.410   0.289  -4.373  0.00  0.00    -0.069 C 
ATOM      5  C   UNL     1      -0.818   1.698  -4.449  0.00  0.00    +0.001 C 
ATOM      6  C   UNL     1      -0.802   2.164  -5.908  0.00  0.00    +0.107 C 
ATOM      7  N   UNL     1      -2.161   2.050  -6.455  0.00  0.00    -0.182 NA
ATOM      8  C   UNL     1      -2.857   0.760  -6.354  0.00  0.00    +0.107 C 
ATOM      9  C   UNL     1      -2.850   0.310  -4.889  0.00  0.00    +0.001 C 
BRANCH   7  10
ATOM     10  S   UNL     1      -2.893   3.350  -7.173  0.00  0.00    +0.029 S 
ATOM     11  O   UNL     1      -4.286   3.114  -7.016  0.00  0.00    -0.158 OA
ATOM     12  O   UNL     1      -2.279   4.486  -6.580  0.00  0.00    -0.158 OA
ATOM     13  C   UNL     1      -2.434   3.235  -8.925  0.00  0.00    +0.215 C 
ENDBRANCH   7  10
ENDBRANCH   1   4
BRANCH   1  14
ATOM     14  C   UNL     1      -0.006  -0.309  -2.522  0.00  0.00    -0.026 C 
BRANCH  14  17
ATOM     15  C   UNL     1      -0.018   1.503   0.010  0.00  0.00    +0.067 C 
ATOM     16  C   UNL     1       0.002  -0.004   0.002  0.00  0.00    +0.059 A 
ATOM     17  C   UNL     1       0.008  -0.784  -1.092  0.00  0.00    +0.030 A 
ATOM     18  N   UNL     1       0.028  -2.110  -0.667  0.00  0.00    -0.299 N 
ATOM     19  C   UNL     1       0.043  -3.369  -1.226  0.00  0.00    +0.100 A 
ATOM     20  C   UNL     1       0.061  -4.457  -0.458  0.00  0.00    +0.067 A 
ATOM     21  S   UNL     1       0.059  -3.749   1.182  0.00  0.00    -0.058 S 
ATOM     22  C   UNL     1       0.034  -2.038   0.701  0.00  0.00    +0.178 A 
ATOM     23  N   UNL     1       0.024  -0.795   1.086  0.00  0.00    -0.226 NA
ENDBRANCH  14  17
ENDBRANCH   1  14
TORSDOF 4
