REMARK  Name = ZINC01009630
REMARK  6 active torsions:
REMARK  status: ('A' for Active; 'I' for Inactive)
REMARK    1  A    between atoms: C_4  and  C_7
REMARK    2  A    between atoms: C_7  and  C_9
REMARK    3  A    between atoms: C_11  and  C_23
REMARK    4  A    between atoms: C_17  and  C_18
REMARK    5  A    between atoms: C_17  and  O_22
REMARK    6  A    between atoms: C_26  and  O_29
REMARK                            x       y       z     vdW  Elec       q    Type
REMARK                         _______ _______ _______ _____ _____    ______ ____
ROOT
ATOM      1  C   UNL     1      -1.978   5.934  -0.043  0.00  0.00    +0.144 C 
ATOM      2  C   UNL     1      -1.583   7.292   0.546  0.00  0.00    +0.120 C 
ATOM      3  N   UNL     1      -0.381   7.778  -0.142  0.00  0.00    -0.292 N 
ATOM      4  C   UNL     1      -0.118   7.441  -1.413  0.00  0.00    +0.302 C 
ATOM      5  O   UNL     1       0.887   7.880  -1.938  0.00  0.00    -0.253 OA
ATOM      6  N   UNL     1      -0.919   6.637  -2.128  0.00  0.00    -0.264 N 
ATOM      7  C   UNL     1      -2.150   6.086  -1.559  0.00  0.00    +0.243 C 
ATOM      8  H   UNL     1       0.236   8.357   0.334  0.00  0.00    +0.151 HD
ATOM      9  H   UNL     1      -0.678   6.417  -3.042  0.00  0.00    +0.153 HD
ENDROOT
BRANCH   2  10
ATOM     10  C   UNL     1      -1.301   7.139   2.018  0.00  0.00    -0.026 A 
ATOM     11  C   UNL     1      -0.044   6.752   2.444  0.00  0.00    +0.009 A 
ATOM     12  C   UNL     1       0.218   6.617   3.793  0.00  0.00    +0.046 A 
ATOM     13  C   UNL     1      -0.784   6.859   4.721  0.00  0.00    +0.117 A 
ATOM     14  C   UNL     1      -2.046   7.242   4.292  0.00  0.00    +0.046 A 
ATOM     15  C   UNL     1      -2.302   7.381   2.941  0.00  0.00    +0.009 A 
BRANCH  13  16
ATOM     16  O   UNL     1      -0.530   6.722   6.049  0.00  0.00    -0.507 OA
ATOM     17  H   UNL     1      -0.699   5.834   6.393  0.00  0.00    +0.292 HD
ENDBRANCH  13  16
ENDBRANCH   2  10
BRANCH   7  18
ATOM     18  C   UNL     1      -2.434   4.718  -2.181  0.00  0.00    +0.436 C 
ATOM     19  F   UNL     1      -3.529   4.130  -1.538  0.00  0.00    -0.166 F 
ATOM     20  F   UNL     1      -2.721   4.875  -3.541  0.00  0.00    -0.166 F 
ATOM     21  F   UNL     1      -1.311   3.896  -2.034  0.00  0.00    -0.166 F 
ENDBRANCH   7  18
BRANCH   1  22
ATOM     22  C   UNL     1      -0.897   4.923   0.244  0.00  0.00    +0.173 C 
ATOM     23  O   UNL     1       0.218   5.084  -0.205  0.00  0.00    -0.292 OA
BRANCH  22  27
ATOM     24  C   UNL     1      -1.754   1.519   2.625  0.00  0.00    +0.000 A 
ATOM     25  C   UNL     1      -2.715   2.501   2.457  0.00  0.00    +0.001 A 
ATOM     26  C   UNL     1      -2.443   3.613   1.688  0.00  0.00    +0.011 A 
ATOM     27  C   UNL     1      -1.195   3.742   1.070  0.00  0.00    +0.018 A 
ATOM     28  C   UNL     1      -0.231   2.743   1.241  0.00  0.00    +0.011 A 
ATOM     29  C   UNL     1      -0.517   1.640   2.016  0.00  0.00    +0.001 A 
ENDBRANCH  22  27
ENDBRANCH   1  22
BRANCH   7  30
ATOM     30  O   UNL     1      -3.239   6.971  -1.829  0.00  0.00    -0.364 OA
ATOM     31  H   UNL     1      -3.405   7.113  -2.771  0.00  0.00    +0.212 HD
ENDBRANCH   7  30
TORSDOF 6
