REMARK  Name = ZINC45606084
REMARK  5 active torsions:
REMARK  status: ('A' for Active; 'I' for Inactive)
REMARK    1  A    between atoms: N_7  and  C_13
REMARK    2  A    between atoms: C_13  and  C_14
REMARK    3  A    between atoms: C_14  and  C_16
REMARK    4  A    between atoms: C_17  and  N_28
REMARK    5  A    between atoms: N_18  and  C_25
REMARK                            x       y       z     vdW  Elec       q    Type
REMARK                         _______ _______ _______ _____ _____    ______ ____
ROOT
ATOM      1  C   UNL     1       4.309  -4.800   4.576  0.00  0.00    +0.118 A 
ATOM      2  C   UNL     1       4.723  -6.109   4.274  0.00  0.00    +0.116 A 
ATOM      3  N   UNL     1       5.689  -6.690   5.045  0.00  0.00    -0.278 N 
ATOM      4  C   UNL     1       6.245  -6.037   6.077  0.00  0.00    +0.331 A 
ATOM      5  O   UNL     1       7.101  -6.598   6.733  0.00  0.00    -0.246 OA
ATOM      6  N   UNL     1       5.890  -4.786   6.413  0.00  0.00    -0.274 N 
ATOM      7  H   UNL     1       6.319  -4.353   7.168  0.00  0.00    +0.173 HD
ATOM      8  C   UNL     1       4.949  -4.122   5.711  0.00  0.00    +0.266 A 
ATOM      9  O   UNL     1       4.633  -2.986   6.014  0.00  0.00    -0.267 OA
ENDROOT
BRANCH   3  10
ATOM     10  C   UNL     1       6.128  -8.054   4.739  0.00  0.00    +0.094 C 
ATOM     11  C   UNL     1       7.634  -8.316   4.681  0.00  0.00    +0.027 C 
ATOM     12  C   UNL     1       6.812  -8.290   3.391  0.00  0.00    +0.027 C 
ENDBRANCH   3  10
BRANCH   2  13
ATOM     13  N   UNL     1       4.170  -6.786   3.232  0.00  0.00    -0.344 N 
ATOM     14  H   UNL     1       3.812  -6.300   2.473  0.00  0.00    +0.144 HD
ATOM     15  H   UNL     1       4.133  -7.755   3.248  0.00  0.00    +0.144 HD
ENDBRANCH   2  13
BRANCH   1  16
ATOM     16  C   UNL     1       3.314  -4.156   3.810  0.00  0.00    +0.155 C 
ATOM     17  O   UNL     1       2.886  -4.684   2.804  0.00  0.00    -0.294 OA
BRANCH  16  18
ATOM     18  C   UNL     1       2.784  -2.812   4.240  0.00  0.00    +0.002 C 
BRANCH  18  24
ATOM     19  C   UNL     1      -2.326   0.468   1.850  0.00  0.00    +0.000 C 
ATOM     20  C   UNL     1      -1.115   1.403   1.884  0.00  0.00    +0.000 C 
ATOM     21  C   UNL     1      -0.120   0.920   2.942  0.00  0.00    +0.002 C 
ATOM     22  C   UNL     1       0.334  -0.498   2.597  0.00  0.00    -0.025 C 
ATOM     23  C   UNL     1       1.337  -0.999   3.636  0.00  0.00    -0.075 C 
ATOM     24  N   UNL     1       1.766  -2.359   3.283  0.00  0.00    +0.385 N 
ATOM     25  C   UNL     1       0.620  -3.274   3.321  0.00  0.00    -0.078 C 
ATOM     26  C   UNL     1      -0.417  -2.852   2.277  0.00  0.00    -0.015 C 
ATOM     27  C   UNL     1      -0.883  -1.428   2.587  0.00  0.00    -0.011 C 
ATOM     28  C   UNL     1      -1.870  -0.955   1.519  0.00  0.00    +0.004 C 
ATOM     29  H   UNL     1       2.160  -2.355   2.354  0.00  0.00    -0.081 HD
ENDBRANCH  18  24
ENDBRANCH  16  18
ENDBRANCH   1  16
TORSDOF 5
