REMARK  Name = ZINC08935389
REMARK  6 active torsions:
REMARK  status: ('A' for Active; 'I' for Inactive)
REMARK    1  A    between atoms: C_1  and  C_2
REMARK    2  A    between atoms: C_2  and  C_4
REMARK    3  A    between atoms: C_2  and  O_24
REMARK    4  A    between atoms: C_4  and  N_5
REMARK    5  A    between atoms: C_13  and  C_15
REMARK    6  A    between atoms: C_15  and  N_50
REMARK                            x       y       z     vdW  Elec       q    Type
REMARK                         _______ _______ _______ _____ _____    ______ ____
ROOT
ATOM      1  N   UNL     1       7.545  -0.124   0.812  0.00  0.00    -0.326 N 
ATOM      2  C   UNL     1       6.502   0.357   1.582  0.00  0.00    +0.131 A 
ATOM      3  C   UNL     1       6.679   1.505   2.402  0.00  0.00    +0.051 A 
ATOM      4  C   UNL     1       7.889   2.326   2.577  0.00  0.00    -0.025 A 
ATOM      5  C   UNL     1       7.797   3.370   3.415  0.00  0.00    -0.004 A 
ATOM      6  S   UNL     1       6.126   3.332   4.022  0.00  0.00    -0.073 S 
ATOM      7  C   UNL     1       5.552   1.905   3.141  0.00  0.00    +0.114 A 
ATOM      8  N   UNL     1       4.411   1.246   3.069  0.00  0.00    -0.227 NA
ATOM      9  C   UNL     1       4.305   0.186   2.291  0.00  0.00    +0.116 A 
ATOM     10  N   UNL     1       5.325  -0.248   1.573  0.00  0.00    -0.219 NA
ATOM     11  C   UNL     1       9.088   4.138   3.511  0.00  0.00    +0.043 C 
ATOM     12  C   UNL     1       9.899   3.687   2.276  0.00  0.00    +0.010 C 
ATOM     13  C   UNL     1       9.311   2.288   2.009  0.00  0.00    +0.037 C 
ATOM     14  H   UNL     1       8.406   0.322   0.828  0.00  0.00    +0.148 HD
ENDROOT
BRANCH   1  15
ATOM     15  C   UNL     1       7.350  -1.308  -0.029  0.00  0.00    +0.134 C 
BRANCH  15  17
ATOM     16  C   UNL     1       8.445  -2.862  -1.650  0.00  0.00    +0.039 C 
ATOM     17  C   UNL     1       8.649  -1.626  -0.772  0.00  0.00    +0.128 C 
BRANCH  17  18
ATOM     18  O   UNL     1       9.014  -0.514  -1.592  0.00  0.00    -0.391 OA
ATOM     19  H   UNL     1       8.353  -0.284  -2.259  0.00  0.00    +0.210 HD
ENDBRANCH  17  18
ENDBRANCH  15  17
ENDBRANCH   1  15
BRANCH   9  20
ATOM     20  C   UNL     1       2.991  -0.550   2.226  0.00  0.00    -0.001 C 
BRANCH  20  26
ATOM     21  C   UNL     1       0.793  -0.505   1.212  0.00  0.00    -0.078 C 
ATOM     22  C   UNL     1       0.002  -0.004   0.002  0.00  0.00    -0.019 C 
ATOM     23  C   UNL     1      -0.019   1.527   0.010  0.00  0.00    -0.004 C 
ATOM     24  C   UNL     1       1.421   2.049  -0.001  0.00  0.00    -0.019 C 
ATOM     25  C   UNL     1       2.171   1.488   1.210  0.00  0.00    -0.078 C 
ATOM     26  N   UNL     1       2.176   0.012   1.129  0.00  0.00    +0.384 N 
ATOM     27  H   UNL     1       2.584  -0.271   0.231  0.00  0.00    -0.081 HD
ENDBRANCH  20  26
ENDBRANCH   9  20
TORSDOF 5
