REMARK  Name = ZINC36249138
REMARK  7 active torsions:
REMARK  status: ('A' for Active; 'I' for Inactive)
REMARK    1  A    between atoms: C_1  and  C_2
REMARK    2  A    between atoms: C_2  and  C_3
REMARK    3  A    between atoms: C_2  and  C_4
REMARK    4  A    between atoms: C_4  and  C_5
REMARK    5  A    between atoms: C_5  and  N_6
REMARK    6  A    between atoms: N_6  and  C_7
REMARK    7  A    between atoms: C_7  and  C_8
REMARK                            x       y       z     vdW  Elec       q    Type
REMARK                         _______ _______ _______ _____ _____    ______ ____
ROOT
ATOM      1  C   UNL     1      -4.191  -4.551  -0.229  0.00  0.00    +0.094 A 
ATOM      2  N   UNL     1      -4.409  -5.887  -0.332  0.00  0.00    -0.312 N 
ATOM      3  H   UNL     1      -3.651  -6.488  -0.409  0.00  0.00    +0.170 HD
ATOM      4  C   UNL     1      -5.656  -6.396  -0.327  0.00  0.00    +0.260 A 
ATOM      5  O   UNL     1      -5.835  -7.598  -0.419  0.00  0.00    -0.267 OA
ATOM      6  C   UNL     1      -6.768  -5.498  -0.210  0.00  0.00    +0.075 A 
ATOM      7  C   UNL     1      -8.196  -5.827  -0.183  0.00  0.00    -0.023 A 
ATOM      8  C   UNL     1      -9.053  -4.791  -0.070  0.00  0.00    -0.004 A 
ATOM      9  S   UNL     1      -8.027  -3.347   0.018  0.00  0.00    -0.073 S 
ATOM     10  C   UNL     1      -6.444  -4.138  -0.109  0.00  0.00    +0.116 A 
ATOM     11  N   UNL     1      -5.184  -3.710  -0.116  0.00  0.00    -0.229 NA
ATOM     12  C   UNL     1     -10.550  -4.837  -0.038  0.00  0.00    +0.043 C 
ATOM     13  C   UNL     1     -11.002  -5.894   0.978  0.00  0.00    +0.005 C 
ATOM     14  C   UNL     1     -11.125  -7.232   0.256  0.00  0.00    +0.001 C 
ATOM     15  C   UNL     1     -10.079  -7.326  -0.853  0.00  0.00    +0.005 C 
ATOM     16  C   UNL     1      -8.673  -7.274  -0.269  0.00  0.00    +0.037 C 
ENDROOT
BRANCH   1  17
ATOM     17  C   UNL     1      -2.777  -4.029  -0.239  0.00  0.00    -0.007 C 
BRANCH  17  18
ATOM     18  N   UNL     1      -2.794  -2.566  -0.111  0.00  0.00    +0.384 N 
ATOM     19  H   UNL     1      -3.240  -2.310   0.757  0.00  0.00    -0.085 HD
ATOM     20  H   UNL     1      -3.306  -2.167  -0.883  0.00  0.00    -0.085 HD
BRANCH  18  21
ATOM     21  C   UNL     1      -1.416  -2.058  -0.121  0.00  0.00    -0.082 C 
BRANCH  21  22
ATOM     22  C   UNL     1      -1.433  -0.534   0.013  0.00  0.00    -0.016 C 
BRANCH  22  24
ATOM     23  C   UNL     1      -0.019   1.526   0.010  0.00  0.00    +0.007 C 
ATOM     24  C   UNL     1       0.002  -0.004   0.002  0.00  0.00    -0.019 C 
ATOM     25  C   UNL     1       0.742  -0.511   1.242  0.00  0.00    +0.007 C 
ENDBRANCH  22  24
ENDBRANCH  21  22
ENDBRANCH  18  21
ENDBRANCH  17  18
ENDBRANCH   1  17
TORSDOF 5
