REMARK  Name = ZINC36814027
REMARK  3 active torsions:
REMARK  status: ('A' for Active; 'I' for Inactive)
REMARK    1  A    between atoms: C_2  and  O_9
REMARK    2  A    between atoms: O_9  and  C_10
REMARK    3  A    between atoms: C_15  and  N_16
REMARK                            x       y       z     vdW  Elec       q    Type
REMARK                         _______ _______ _______ _____ _____    ______ ____
ROOT
ATOM      1  C   UNL     1       2.350   4.098   0.106  0.00  0.00    +0.151 A 
ATOM      2  C   UNL     1       3.536   3.382   0.083  0.00  0.00    +0.075 A 
ATOM      3  C   UNL     1       4.747   4.048   0.182  0.00  0.00    +0.079 A 
ATOM      4  C   UNL     1       4.773   5.436   0.304  0.00  0.00    +0.144 A 
ATOM      5  C   UNL     1       3.589   6.152   0.326  0.00  0.00    +0.074 A 
ATOM      6  C   UNL     1       2.376   5.486   0.222  0.00  0.00    +0.071 A 
ATOM      7  O   UNL     1       5.970   6.076   0.403  0.00  0.00    -0.481 OA
ATOM      8  C   UNL     1       7.020   5.376   1.075  0.00  0.00    +0.325 C 
ATOM      9  C   UNL     1       7.087   3.957   0.570  0.00  0.00    +0.255 C 
ATOM     10  O   UNL     1       8.150   3.373   0.532  0.00  0.00    -0.272 OA
ATOM     11  N   UNL     1       5.958   3.338   0.160  0.00  0.00    -0.280 N 
ATOM     12  H   UNL     1       5.984   2.418  -0.144  0.00  0.00    +0.155 HD
ENDROOT
BRANCH   6  13
ATOM     13  N   UNL     1       1.176   6.209   0.238  0.00  0.00    -0.355 N 
ATOM     14  H   UNL     1       0.328   5.744   0.169  0.00  0.00    +0.142 HD
ATOM     15  H   UNL     1       1.194   7.176   0.319  0.00  0.00    +0.142 HD
ENDBRANCH   6  13
BRANCH   1  16
ATOM     16  O   UNL     1       1.160   3.446   0.009  0.00  0.00    -0.454 OA
BRANCH  16  18
ATOM     17  C   UNL     1       1.541   1.407   1.174  0.00  0.00    +0.066 A 
ATOM     18  C   UNL     1       1.174   2.087   0.022  0.00  0.00    +0.131 A 
ATOM     19  C   UNL     1       0.821   1.378  -1.117  0.00  0.00    +0.066 A 
ATOM     20  C   UNL     1       0.835  -0.004  -1.102  0.00  0.00    +0.046 A 
ATOM     21  C   UNL     1       1.202  -0.680   0.048  0.00  0.00    +0.040 A 
ATOM     22  C   UNL     1       1.554   0.025   1.185  0.00  0.00    +0.046 A 
ATOM     23 CL   UNL     1       2.014  -0.827   2.626  0.00  0.00    -0.083 Cl
ATOM     24 CL   UNL     1       0.393  -0.892  -2.527  0.00  0.00    -0.083 Cl
ENDBRANCH  16  18
ENDBRANCH   1  16
TORSDOF 3
