REMARK  Name = ZINC40267909
REMARK  5 active torsions:
REMARK  status: ('A' for Active; 'I' for Inactive)
REMARK    1  A    between atoms: C_1  and  C_2
REMARK    2  A    between atoms: C_2  and  C_4
REMARK    3  A    between atoms: C_4  and  N_5
REMARK    4  A    between atoms: C_13  and  C_15
REMARK    5  A    between atoms: C_13  and  C_16
REMARK                            x       y       z     vdW  Elec       q    Type
REMARK                         _______ _______ _______ _____ _____    ______ ____
ROOT
ATOM      1  N   UNL     1      -1.742  -0.921   1.397  0.00  0.00    -0.282 N 
ATOM      2  C   UNL     1      -1.651  -2.128   2.018  0.00  0.00    +0.095 A 
ATOM      3  C   UNL     1      -2.107  -2.312   3.327  0.00  0.00    +0.049 A 
ATOM      4  C   UNL     1      -1.948  -3.659   3.873  0.00  0.00    -0.020 A 
ATOM      5  C   UNL     1      -1.382  -4.585   3.069  0.00  0.00    +0.021 A 
ATOM      6  S   UNL     1      -1.034  -3.727   1.560  0.00  0.00    -0.073 S 
ATOM      7  C   UNL     1      -1.120  -6.018   3.414  0.00  0.00    +0.203 C 
ATOM      8  O   UNL     1      -1.276  -6.166   4.835  0.00  0.00    -0.368 OA
ATOM      9  C   UNL     1      -2.479  -5.580   5.340  0.00  0.00    +0.068 C 
ATOM     10  C   UNL     1      -2.387  -4.052   5.281  0.00  0.00    +0.071 C 
ATOM     11  C   UNL     1      -2.687  -6.020   6.791  0.00  0.00    +0.041 C 
ATOM     12  C   UNL     1      -3.666  -6.050   4.496  0.00  0.00    +0.041 C 
ATOM     13  C   UNL     1      -2.669  -1.154   3.956  0.00  0.00    +0.132 A 
ATOM     14  N   UNL     1      -2.731  -0.010   3.301  0.00  0.00    -0.178 NA
ATOM     15  C   UNL     1      -2.280   0.128   2.056  0.00  0.00    +0.351 A 
ATOM     16  O   UNL     1      -2.358   1.212   1.502  0.00  0.00    -0.244 OA
ATOM     17  N   UNL     1      -3.144  -1.235   5.243  0.00  0.00    -0.342 N 
ATOM     18  H   UNL     1      -2.955  -2.019   5.782  0.00  0.00    +0.144 HD
ATOM     19  H   UNL     1      -3.670  -0.508   5.612  0.00  0.00    +0.144 HD
ENDROOT
BRANCH   1  20
ATOM     20  C   UNL     1      -1.255  -0.759   0.025  0.00  0.00    +0.157 C 
BRANCH  20  22
ATOM     21  C   UNL     1       0.574   1.095   0.204  0.00  0.00    +0.040 C 
ATOM     22  C   UNL     1       0.197  -0.356   0.052  0.00  0.00    -0.060 C 
ATOM     23  C   UNL     1       1.131  -1.268  -0.057  0.00  0.00    +0.009 C 
ENDBRANCH  20  22
ENDBRANCH   1  20
TORSDOF 2
