REMARK  Name = ZINC38507133
REMARK  6 active torsions:
REMARK  status: ('A' for Active; 'I' for Inactive)
REMARK    1  A    between atoms: C_1  and  C_2
REMARK    2  A    between atoms: N_5  and  C_23
REMARK    3  A    between atoms: C_6  and  C_7
REMARK    4  A    between atoms: N_9  and  C_10
REMARK    5  A    between atoms: C_11  and  C_20
REMARK    6  A    between atoms: N_16  and  C_19
REMARK                            x       y       z     vdW  Elec       q    Type
REMARK                         _______ _______ _______ _____ _____    ______ ____
ROOT
ATOM      1  C   UNL     1       0.018  -1.052   4.808  0.00  0.00    +0.085 A 
ATOM      2  C   UNL     1       0.123  -1.879   5.918  0.00  0.00    +0.068 A 
ATOM      3  C   UNL     1      -0.033  -1.260   7.219  0.00  0.00    -0.027 A 
ATOM      4  C   UNL     1      -0.267   0.072   7.177  0.00  0.00    -0.021 A 
ATOM      5  S   UNL     1      -0.266   0.471   5.455  0.00  0.00    -0.079 S 
ATOM      6  C   UNL     1      -0.473   0.970   8.356  0.00  0.00    -0.036 C 
ATOM      7  N   UNL     1      -0.760   0.130   9.533  0.00  0.00    +0.381 N 
ATOM      8  C   UNL     1       0.257  -0.923   9.648  0.00  0.00    -0.074 C 
ATOM      9  C   UNL     1       0.050  -1.980   8.557  0.00  0.00    +0.018 C 
ATOM     10  C   UNL     1      -0.742   0.962  10.744  0.00  0.00    -0.096 C 
ATOM     11  H   UNL     1      -1.671  -0.293   9.430  0.00  0.00    -0.082 HD
ENDROOT
BRANCH   2  12
ATOM     12  C   UNL     1       0.380  -3.315   5.780  0.00  0.00    +0.244 C 
ATOM     13  O   UNL     1       1.525  -3.730   5.761  0.00  0.00    -0.270 OA
ATOM     14  N   UNL     1      -0.650  -4.177   5.675  0.00  0.00    -0.325 N 
ATOM     15  H   UNL     1      -1.562  -3.847   5.690  0.00  0.00    +0.145 HD
ATOM     16  H   UNL     1      -0.480  -5.128   5.584  0.00  0.00    +0.145 HD
ENDBRANCH   2  12
BRANCH   1  19
ATOM     17  C   UNL     1       0.004  -0.461   2.516  0.00  0.00    +0.267 C 
ATOM     18  O   UNL     1      -0.110   0.710   2.826  0.00  0.00    -0.268 OA
ATOM     19  N   UNL     1       0.129  -1.403   3.472  0.00  0.00    -0.274 N 
ATOM     20  H   UNL     1       0.296  -2.325   3.225  0.00  0.00    +0.156 HD
BRANCH  17  26
ATOM     21  C   UNL     1       2.547  -0.675   0.616  0.00  0.00    +0.048 C 
ATOM     22  C   UNL     1       1.107  -0.944   0.263  0.00  0.00    -0.001 A 
ATOM     23  C   UNL     1       0.600  -1.350  -0.974  0.00  0.00    +0.138 A 
ATOM     24  N   UNL     1      -0.698  -1.471  -0.855  0.00  0.00    -0.179 NA
ATOM     25  N   UNL     1      -1.079  -1.183   0.337  0.00  0.00    -0.262 N 
ATOM     26  C   UNL     1       0.006  -0.849   1.097  0.00  0.00    +0.126 A 
ATOM     27  C   UNL     1      -2.465  -1.216   0.811  0.00  0.00    +0.173 C 
ENDBRANCH  17  26
ENDBRANCH   1  19
TORSDOF 3
