REMARK  Name = ZINC62364673
REMARK  4 active torsions:
REMARK  status: ('A' for Active; 'I' for Inactive)
REMARK    1  A    between atoms: C_1  and  N_2
REMARK    2  A    between atoms: N_2  and  C_3
REMARK    3  A    between atoms: C_6  and  C_9
REMARK    4  A    between atoms: C_12  and  N_18
REMARK                            x       y       z     vdW  Elec       q    Type
REMARK                         _______ _______ _______ _____ _____    ______ ____
ROOT
ATOM      1  C   UNL     1      -0.020   1.462   0.021  0.00  0.00    +0.137 C 
ATOM      2  N   UNL     1      -0.003  -0.002   0.003  0.00  0.00    -0.287 N 
ATOM      3  C   UNL     1      -0.105  -0.683  -1.204  0.00  0.00    +0.151 A 
ATOM      4  C   UNL     1      -1.361  -0.957  -1.763  0.00  0.00    +0.103 A 
ATOM      5  C   UNL     1      -1.407  -1.641  -2.970  0.00  0.00    +0.155 A 
ATOM      6  N   UNL     1      -0.270  -2.007  -3.548  0.00  0.00    -0.222 NA
ATOM      7  C   UNL     1       0.893  -1.732  -2.993  0.00  0.00    +0.225 A 
ATOM      8  N   UNL     1       0.985  -1.081  -1.851  0.00  0.00    -0.218 NA
ATOM      9 CL   UNL     1      -2.931  -2.011  -3.715  0.00  0.00    -0.060 Cl
ENDROOT
BRANCH   2  10
ATOM     10  C   UNL     1       0.117  -0.713   1.195  0.00  0.00    +0.035 A 
ATOM     11  C   UNL     1       0.241  -2.098   1.168  0.00  0.00    +0.025 A 
ATOM     12  C   UNL     1       0.359  -2.803   2.345  0.00  0.00    +0.020 A 
ATOM     13  C   UNL     1       0.354  -2.125   3.567  0.00  0.00    +0.052 A 
ATOM     14  C   UNL     1       0.229  -0.733   3.591  0.00  0.00    +0.020 A 
ATOM     15  C   UNL     1       0.117  -0.034   2.410  0.00  0.00    +0.025 A 
BRANCH  13  16
ATOM     16  C   UNL     1       0.476  -2.855   4.793  0.00  0.00    +0.099 C 
ATOM     17  N   UNL     1       0.573  -3.435   5.766  0.00  0.00    -0.191 NA
ENDBRANCH  13  16
ENDBRANCH   2  10
BRANCH   4  18
ATOM     18  N   UNL     1      -2.538  -0.553  -1.120  0.00  0.00    -0.353 N 
ATOM     19  H   UNL     1      -2.495  -0.142  -0.242  0.00  0.00    +0.143 HD
ATOM     20  H   UNL     1      -3.396  -0.684  -1.552  0.00  0.00    +0.143 HD
ENDBRANCH   4  18
TORSDOF 3
