REMARK  Name = ZINC56524474
REMARK  9 active torsions:
REMARK  status: ('A' for Active; 'I' for Inactive)
REMARK    1  A    between atoms: C_1  and  C_2
REMARK    2  A    between atoms: C_8  and  N_10
REMARK    3  A    between atoms: C_14  and  C_16
REMARK    4  A    between atoms: C_16  and  N_17
REMARK    5  A    between atoms: C_20  and  C_23
REMARK    6  A    between atoms: C_23  and  C_24
REMARK    7  A    between atoms: C_24  and  N_25
REMARK    8  A    between atoms: N_25  and  C_26
REMARK    9  A    between atoms: N_25  and  C_27
REMARK                            x       y       z     vdW  Elec       q    Type
REMARK                         _______ _______ _______ _____ _____    ______ ____
ROOT
ATOM      1  N   UNL     1       0.056  -0.038   2.447  0.00  0.00    -0.296 N 
ATOM      2  C   UNL     1       0.738   0.093   3.602  0.00  0.00    +0.306 C 
ATOM      3  O   UNL     1       1.921  -0.180   3.644  0.00  0.00    -0.252 OA
ATOM      4  N   UNL     1       0.107   0.528   4.711  0.00  0.00    -0.242 N 
ATOM      5  C   UNL     1       0.789   0.659   5.866  0.00  0.00    +0.204 C 
ATOM      6  O   UNL     1       1.969   0.387   5.908  0.00  0.00    -0.277 OA
ATOM      7  H   UNL     1      -0.888   0.180   2.413  0.00  0.00    +0.151 HD
ATOM      8  H   UNL     1      -0.838   0.746   4.678  0.00  0.00    +0.159 HD
ENDROOT
BRANCH   1  15
ATOM      9  C   UNL     1      -0.019   1.526   0.010  0.00  0.00    +0.009 C 
ATOM     10  C   UNL     1       0.002  -0.004   0.002  0.00  0.00    +0.006 C 
ATOM     11  C   UNL     1       0.718  -0.497  -1.257  0.00  0.00    +0.005 C 
ATOM     12  C   UNL     1       0.739  -2.027  -1.265  0.00  0.00    +0.000 C 
ATOM     13  C   UNL     1       1.479  -2.534  -0.026  0.00  0.00    +0.002 C 
ATOM     14  C   UNL     1       0.763  -2.041   1.233  0.00  0.00    +0.022 C 
ATOM     15  C   UNL     1       0.742  -0.511   1.242  0.00  0.00    +0.077 C 
ENDBRANCH   1  15
BRANCH   5  16
ATOM     16  C   UNL     1       0.083   1.145   7.106  0.00  0.00    +0.019 C 
BRANCH  16  17
ATOM     17  N   UNL     1       1.037   1.202   8.222  0.00  0.00    +0.385 N 
ATOM     18  C   UNL     1       2.068   2.206   7.932  0.00  0.00    -0.078 C 
ATOM     19  C   UNL     1       3.109   2.212   9.054  0.00  0.00    -0.015 C 
ATOM     20  C   UNL     1       2.422   2.551  10.380  0.00  0.00    -0.016 C 
ATOM     21  C   UNL     1       1.300   1.540  10.634  0.00  0.00    -0.015 C 
ATOM     22  C   UNL     1       0.325   1.560   9.455  0.00  0.00    -0.078 C 
ATOM     23  H   UNL     1       1.473   0.299   8.336  0.00  0.00    -0.081 HD
BRANCH  20  24
ATOM     24  C   UNL     1       3.442   2.481  11.518  0.00  0.00    -0.015 C 
BRANCH  24  25
ATOM     25  C   UNL     1       2.785   2.940  12.821  0.00  0.00    -0.079 C 
BRANCH  25  26
ATOM     26  N   UNL     1       3.764   2.872  13.913  0.00  0.00    +0.376 N 
ATOM     27  C   UNL     1       4.845   3.835  13.662  0.00  0.00    -0.097 C 
ATOM     28  C   UNL     1       3.103   3.198  15.184  0.00  0.00    -0.097 C 
ATOM     29  H   UNL     1       4.149   1.941  13.963  0.00  0.00    -0.083 HD
ENDBRANCH  25  26
ENDBRANCH  24  25
ENDBRANCH  20  24
ENDBRANCH  16  17
ENDBRANCH   5  16
TORSDOF 6
