REMARK  Name = ZINC07667856
REMARK  6 active torsions:
REMARK  status: ('A' for Active; 'I' for Inactive)
REMARK    1  A    between atoms: C_1  and  C_2
REMARK    2  A    between atoms: C_2  and  C_3
REMARK    3  A    between atoms: C_2  and  N_4
REMARK    4  A    between atoms: N_4  and  C_5
REMARK    5  A    between atoms: N_4  and  S_6
REMARK    6  A    between atoms: S_6  and  C_9
REMARK                            x       y       z     vdW  Elec       q    Type
REMARK                         _______ _______ _______ _____ _____    ______ ____
ROOT
ATOM      1  C   UNL     1       1.145   6.053   0.082  0.00  0.00    +0.106 A 
ATOM      2  C   UNL     1       2.276   5.372  -0.330  0.00  0.00    +0.030 A 
ATOM      3  C   UNL     1       2.281   3.992  -0.359  0.00  0.00    +0.025 A 
ATOM      4  C   UNL     1       1.148   3.288   0.027  0.00  0.00    +0.037 A 
ATOM      5  C   UNL     1       0.014   3.974   0.441  0.00  0.00    -0.024 A 
ATOM      6  C   UNL     1       0.015   5.355   0.467  0.00  0.00    +0.034 A 
ATOM      7  C   UNL     1      -1.214   3.210   0.860  0.00  0.00    +0.046 C 
ATOM      8  C   UNL     1      -1.333   1.935   0.019  0.00  0.00    +0.101 C 
ATOM      9  C   UNL     1      -0.014   1.209   0.009  0.00  0.00    +0.218 C 
ATOM     10  O   UNL     1       0.002  -0.004   0.002  0.00  0.00    -0.275 OA
ATOM     11  N   UNL     1       1.146   1.889   0.001  0.00  0.00    -0.285 N 
ATOM     12  H   UNL     1       1.988   1.407  -0.022  0.00  0.00    +0.155 HD
ENDROOT
BRANCH   1  13
ATOM     13  S   UNL     1       1.144   7.815   0.117  0.00  0.00    +0.061 S 
ATOM     14  O   UNL     1       2.135   8.240  -0.808  0.00  0.00    -0.153 OA
ATOM     15  O   UNL     1      -0.214   8.222   0.019  0.00  0.00    -0.153 OA
BRANCH  13  16
ATOM     16  N   UNL     1       1.669   8.276   1.618  0.00  0.00    -0.177 NA
ATOM     17  C   UNL     1       0.705   8.470   2.704  0.00  0.00    +0.132 C 
BRANCH  16  19
ATOM     18  C   UNL     1       3.330   9.934   2.306  0.00  0.00    +0.025 C 
ATOM     19  C   UNL     1       3.099   8.489   1.861  0.00  0.00    +0.073 C 
ATOM     20  C   UNL     1       3.578   7.534   2.956  0.00  0.00    +0.025 C 
ENDBRANCH  16  19
ENDBRANCH  13  16
ENDBRANCH   1  13
TORSDOF 3
