REMARK  Name = ZINC37816895
REMARK  9 active torsions:
REMARK  status: ('A' for Active; 'I' for Inactive)
REMARK    1  A    between atoms: C_1  and  O_2
REMARK    2  A    between atoms: O_2  and  C_3
REMARK    3  A    between atoms: C_8  and  C_9
REMARK    4  A    between atoms: C_9  and  N_10
REMARK    5  A    between atoms: N_10  and  C_11
REMARK    6  A    between atoms: C_14  and  C_16
REMARK    7  A    between atoms: C_16  and  C_18
REMARK    8  A    between atoms: C_16  and  N_22
REMARK    9  A    between atoms: C_18  and  C_19
REMARK                            x       y       z     vdW  Elec       q    Type
REMARK                         _______ _______ _______ _____ _____    ______ ____
ROOT
ATOM      1  N   UNL     1      -1.077  -2.682  -0.912  0.00  0.00    -0.295 N 
ATOM      2  C   UNL     1      -1.701  -1.512  -0.674  0.00  0.00    +0.202 C 
ATOM      3  O   UNL     1      -1.542  -0.945   0.386  0.00  0.00    -0.277 OA
ENDROOT
BRANCH   1   4
ATOM      4  C   UNL     1      -1.200  -3.325  -2.223  0.00  0.00    +0.076 C 
ATOM      5  C   UNL     1      -2.611  -3.541  -2.774  0.00  0.00    +0.024 C 
ATOM      6  C   UNL     1      -1.797  -4.733  -2.267  0.00  0.00    +0.024 C 
ENDBRANCH   1   4
BRANCH   1   7
ATOM      7  C   UNL     1      -0.275  -3.312   0.140  0.00  0.00    +0.146 C 
BRANCH   7  13
ATOM      8  C   UNL     1       1.493  -1.587   0.573  0.00  0.00    +0.125 A 
ATOM      9  C   UNL     1       2.805  -1.143   0.491  0.00  0.00    +0.046 A 
ATOM     10  C   UNL     1       3.763  -1.930  -0.118  0.00  0.00    +0.004 A 
ATOM     11  C   UNL     1       3.415  -3.160  -0.646  0.00  0.00    +0.001 A 
ATOM     12  C   UNL     1       2.108  -3.605  -0.566  0.00  0.00    +0.009 A 
ATOM     13  C   UNL     1       1.148  -2.824   0.047  0.00  0.00    +0.011 A 
BRANCH   8  15
ATOM     14  C   UNL     1       0.976   0.446   1.692  0.00  0.00    +0.277 C 
ATOM     15  O   UNL     1       0.549  -0.816   1.173  0.00  0.00    -0.495 OA
ENDBRANCH   8  15
ENDBRANCH   7  13
ENDBRANCH   1   7
BRANCH   2  16
ATOM     16  C   UNL     1      -2.596  -0.908  -1.725  0.00  0.00    +0.022 C 
BRANCH  16  17
ATOM     17  N   UNL     1      -2.050   0.389  -2.147  0.00  0.00    +0.386 N 
ATOM     18  H   UNL     1      -1.126   0.257  -2.528  0.00  0.00    -0.089 HD
ATOM     19  H   UNL     1      -2.650   0.794  -2.850  0.00  0.00    -0.089 HD
ATOM     20  H   UNL     1      -2.001   1.008  -1.351  0.00  0.00    -0.089 HD
ENDBRANCH  16  17
BRANCH  16  21
ATOM     21  C   UNL     1      -3.998  -0.707  -1.146  0.00  0.00    +0.088 C 
BRANCH  21  22
ATOM     22  C   UNL     1      -4.931  -0.247  -2.237  0.00  0.00    +0.209 C 
ATOM     23  O   UNL     1      -4.515  -0.095  -3.366  0.00  0.00    -0.276 OA
ATOM     24  N   UNL     1      -6.227  -0.005  -1.958  0.00  0.00    -0.329 N 
ATOM     25  H   UNL     1      -6.560  -0.127  -1.055  0.00  0.00    +0.145 HD
ATOM     26  H   UNL     1      -6.827   0.290  -2.661  0.00  0.00    +0.145 HD
ENDBRANCH  21  22
ENDBRANCH  16  21
ENDBRANCH   2  16
TORSDOF 8
