REMARK  Name = ZINC32266930
REMARK  5 active torsions:
REMARK  status: ('A' for Active; 'I' for Inactive)
REMARK    1  A    between atoms: C_1  and  N_2
REMARK    2  A    between atoms: N_5  and  C_25
REMARK    3  A    between atoms: C_6  and  C_19
REMARK    4  A    between atoms: C_7  and  C_13
REMARK    5  A    between atoms: N_11  and  N_12
REMARK                            x       y       z     vdW  Elec       q    Type
REMARK                         _______ _______ _______ _____ _____    ______ ____
ROOT
ATOM      1  C   UNL     1      -0.254   0.938  -0.703  0.00  0.00    +0.136 C 
ATOM      2  N   UNL     1      -0.167  -0.440  -0.211  0.00  0.00    -0.260 N 
ATOM      3  C   UNL     1      -0.251  -1.593  -0.949  0.00  0.00    +0.308 C 
ATOM      4  O   UNL     1      -0.202  -1.625  -2.163  0.00  0.00    -0.252 OA
ATOM      5  N   UNL     1      -0.393  -2.699  -0.163  0.00  0.00    -0.259 N 
ATOM      6  C   UNL     1      -0.760  -2.222   1.160  0.00  0.00    +0.189 C 
ATOM      7  C   UNL     1       0.024  -0.857   1.108  0.00  0.00    +0.175 C 
ATOM      8  N   UNL     1       0.033  -0.445   2.444  0.00  0.00    -0.288 N 
ATOM      9  C   UNL     1      -0.004  -1.624   3.203  0.00  0.00    +0.193 C 
ATOM     10  N   UNL     1       0.043  -1.675   4.504  0.00  0.00    -0.271 NA
ATOM     11  N   UNL     1      -0.107  -2.739   2.358  0.00  0.00    -0.210 N 
ATOM     12  C   UNL     1      -0.213  -4.094  -0.572  0.00  0.00    +0.136 C 
ATOM     13  H   UNL     1       0.059   0.466   2.776  0.00  0.00    +0.151 HD
ATOM     14  H   UNL     1       0.108  -0.857   5.020  0.00  0.00    +0.189 HD
ENDROOT
BRANCH   7  15
ATOM     15  C   UNL     1       1.442  -1.358   1.006  0.00  0.00    -0.002 A 
ATOM     16  C   UNL     1       2.019  -1.549  -0.236  0.00  0.00    +0.007 A 
ATOM     17  C   UNL     1       3.319  -2.009  -0.330  0.00  0.00    +0.000 A 
ATOM     18  C   UNL     1       4.042  -2.277   0.818  0.00  0.00    +0.000 A 
ATOM     19  C   UNL     1       3.465  -2.085   2.059  0.00  0.00    +0.000 A 
ATOM     20  C   UNL     1       2.166  -1.621   2.153  0.00  0.00    +0.007 A 
ENDBRANCH   7  15
BRANCH   6  21
ATOM     21  C   UNL     1      -2.251  -2.083   1.329  0.00  0.00    -0.001 A 
ATOM     22  C   UNL     1      -3.049  -1.810   0.234  0.00  0.00    +0.007 A 
ATOM     23  C   UNL     1      -4.417  -1.683   0.390  0.00  0.00    +0.000 A 
ATOM     24  C   UNL     1      -4.987  -1.829   1.641  0.00  0.00    +0.000 A 
ATOM     25  C   UNL     1      -4.189  -2.103   2.736  0.00  0.00    +0.000 A 
ATOM     26  C   UNL     1      -2.821  -2.235   2.580  0.00  0.00    +0.007 A 
ENDBRANCH   6  21
BRANCH  11  27
ATOM     27  N   UNL     1       0.319  -4.014   2.600  0.00  0.00    -0.249 NA
ATOM     28  H   UNL     1       0.738  -4.088   3.515  0.00  0.00    +0.141 HD
ATOM     29  H   UNL     1      -0.436  -4.674   2.493  0.00  0.00    +0.141 HD
ENDBRANCH  11  27
TORSDOF 3
