REMARK  Name = ZINC38011171
REMARK  8 active torsions:
REMARK  status: ('A' for Active; 'I' for Inactive)
REMARK    1  A    between atoms: C_1  and  C_2
REMARK    2  A    between atoms: C_2  and  C_3
REMARK    3  A    between atoms: C_3  and  C_5
REMARK    4  A    between atoms: C_3  and  N_13
REMARK    5  A    between atoms: C_10  and  O_11
REMARK    6  A    between atoms: N_13  and  C_14
REMARK    7  A    between atoms: C_14  and  C_15
REMARK    8  A    between atoms: C_20  and  C_21
REMARK                            x       y       z     vdW  Elec       q    Type
REMARK                         _______ _______ _______ _____ _____    ______ ____
ROOT
ATOM      1  C   UNL     1       0.727  -0.288  -1.337  0.00  0.00    -0.037 C 
ENDROOT
BRANCH   1   2
ATOM      2  C   UNL     1       0.861  -1.778  -1.151  0.00  0.00    -0.019 A 
ATOM      3  C   UNL     1      -0.109  -2.626  -1.650  0.00  0.00    +0.020 A 
ATOM      4  C   UNL     1       0.013  -3.994  -1.480  0.00  0.00    +0.018 A 
ATOM      5  C   UNL     1       1.106  -4.514  -0.810  0.00  0.00    +0.019 A 
ATOM      6  C   UNL     1       2.078  -3.670  -0.310  0.00  0.00    +0.047 A 
ATOM      7  C   UNL     1       1.960  -2.298  -0.484  0.00  0.00    +0.119 A 
ATOM      8 BR   UNL     1      -1.316  -5.152  -2.163  0.00  0.00    -0.050 Br
BRANCH   7   9
ATOM      9  O   UNL     1       2.917  -1.466   0.003  0.00  0.00    -0.507 OA
ATOM     10  H   UNL     1       2.757  -1.169   0.909  0.00  0.00    +0.292 HD
ENDBRANCH   7   9
ENDBRANCH   1   2
BRANCH   1  11
ATOM     11  N   UNL     1      -0.206  -0.014  -2.438  0.00  0.00    +0.386 N 
ATOM     12  H   UNL     1      -1.077  -0.492  -2.267  0.00  0.00    -0.085 HD
ATOM     13  H   UNL     1      -0.373   0.979  -2.497  0.00  0.00    -0.085 HD
BRANCH  11  14
ATOM     14  C   UNL     1       0.374  -0.489  -3.701  0.00  0.00    -0.043 C 
BRANCH  14  15
ATOM     15  C   UNL     1      -0.524  -0.096  -4.846  0.00  0.00    -0.024 A 
ATOM     16  C   UNL     1      -1.421  -0.898  -5.466  0.00  0.00    +0.106 A 
ATOM     17  N   UNL     1      -2.021  -0.173  -6.433  0.00  0.00    -0.284 N 
ATOM     18  H   UNL     1      -2.709  -0.490  -7.039  0.00  0.00    +0.188 HD
ATOM     19  N   UNL     1      -1.477   1.117  -6.406  0.00  0.00    -0.179 NA
ATOM     20  C   UNL     1      -0.584   1.164  -5.450  0.00  0.00    +0.061 A 
ATOM     21  C   UNL     1       0.241   2.366  -5.070  0.00  0.00    +0.068 C 
ENDBRANCH  14  15
ENDBRANCH  11  14
ENDBRANCH   1  11
BRANCH   1  23
ATOM     22  C   UNL     1       0.189   1.864  -0.189  0.00  0.00    +0.002 C 
ATOM     23  C   UNL     1       0.195   0.341  -0.048  0.00  0.00    -0.014 C 
ENDBRANCH   1  23
TORSDOF 6
