REMARK  Name = ZINC51547100
REMARK  5 active torsions:
REMARK  status: ('A' for Active; 'I' for Inactive)
REMARK    1  A    between atoms: C_1  and  N_2
REMARK    2  A    between atoms: N_2  and  C_3
REMARK    3  A    between atoms: C_3  and  C_4
REMARK    4  A    between atoms: C_8  and  O_10
REMARK    5  A    between atoms: O_10  and  C_11
REMARK                            x       y       z     vdW  Elec       q    Type
REMARK                         _______ _______ _______ _____ _____    ______ ____
ROOT
ATOM      1  C   UNL     1      -1.238  -2.025  -0.002  0.00  0.00    +0.046 A 
ATOM      2  C   UNL     1      -1.234  -2.704  -1.206  0.00  0.00    +0.061 A 
ATOM      3  C   UNL     1      -1.257  -4.093  -1.202  0.00  0.00    +0.027 A 
ATOM      4  C   UNL     1      -1.282  -4.749   0.016  0.00  0.00    +0.069 A 
ATOM      5  C   UNL     1      -1.284  -4.002   1.187  0.00  0.00    +0.221 A 
ATOM      6  N   UNL     1      -1.257  -2.680   1.143  0.00  0.00    -0.218 NA
ATOM      7 CL   UNL     1      -1.203  -1.831  -2.706  0.00  0.00    -0.082 Cl
ENDROOT
BRANCH   1   8
ATOM      8  C   UNL     1      -1.214  -0.519   0.003  0.00  0.00    -0.025 C 
BRANCH   8  10
ATOM      9  C   UNL     1       0.201   1.418   0.019  0.00  0.00    -0.100 C 
ATOM     10  N   UNL     1       0.178  -0.051   0.015  0.00  0.00    +0.381 N 
ATOM     11  H   UNL     1       0.654  -0.392  -0.807  0.00  0.00    -0.086 HD
ATOM     12  H   UNL     1       0.642  -0.397   0.841  0.00  0.00    -0.086 HD
ENDBRANCH   8  10
ENDBRANCH   1   8
BRANCH   5  13
ATOM     13  O   UNL     1      -1.309  -4.634   2.387  0.00  0.00    -0.438 OA
BRANCH  13  14
ATOM     14  C   UNL     1      -1.210  -3.875   3.510  0.00  0.00    +0.130 A 
ATOM     15  C   UNL     1      -2.308  -3.161   3.966  0.00  0.00    +0.047 A 
ATOM     16  C   UNL     1      -2.205  -2.390   5.107  0.00  0.00    +0.019 A 
ATOM     17  C   UNL     1      -1.007  -2.330   5.796  0.00  0.00    +0.018 A 
ATOM     18  C   UNL     1       0.090  -3.042   5.344  0.00  0.00    +0.019 A 
ATOM     19  C   UNL     1      -0.011  -3.818   4.206  0.00  0.00    +0.047 A 
ATOM     20 BR   UNL     1      -0.868  -1.273   7.358  0.00  0.00    -0.050 Br
ENDBRANCH  13  14
ENDBRANCH   5  13
TORSDOF 4
