REMARK  Name = ZINC63086946
REMARK  7 active torsions:
REMARK  status: ('A' for Active; 'I' for Inactive)
REMARK    1  A    between atoms: C_1  and  C_2
REMARK    2  A    between atoms: C_2  and  C_4
REMARK    3  A    between atoms: C_2  and  N_7
REMARK    4  A    between atoms: C_4  and  C_5
REMARK    5  A    between atoms: N_7  and  C_8
REMARK    6  A    between atoms: N_7  and  C_9
REMARK    7  A    between atoms: C_18  and  N_19
REMARK                            x       y       z     vdW  Elec       q    Type
REMARK                         _______ _______ _______ _____ _____    ______ ____
ROOT
ATOM      1  C   UNL     1       0.173  -1.453  -2.327  0.00  0.00    +0.061 A 
ATOM      2  C   UNL     1       0.179  -2.842  -2.068  0.00  0.00    +0.022 A 
ATOM      3  C   UNL     1       0.768  -3.364  -0.906  0.00  0.00    +0.027 A 
ATOM      4  C   UNL     1       0.754  -4.709  -0.690  0.00  0.00    +0.019 A 
ATOM      5  C   UNL     1       0.162  -5.574  -1.609  0.00  0.00    +0.017 A 
ATOM      6  C   UNL     1      -0.418  -5.101  -2.746  0.00  0.00    +0.027 A 
ATOM      7  C   UNL     1      -0.423  -3.718  -3.003  0.00  0.00    +0.048 A 
ATOM      8  N   UNL     1      -0.987  -3.228  -4.113  0.00  0.00    -0.359 N 
ATOM      9  C   UNL     1      -1.002  -1.941  -4.369  0.00  0.00    +0.107 A 
ATOM     10  C   UNL     1      -0.436  -1.013  -3.497  0.00  0.00    +0.063 A 
ATOM     11 BR   UNL     1       1.549  -5.412   0.875  0.00  0.00    -0.050 Br
ATOM     12  H   UNL     1      -1.396  -3.841  -4.744  0.00  0.00    +0.165 HD
ENDROOT
BRANCH  10  13
ATOM     13  N   UNL     1      -0.475   0.356  -3.800  0.00  0.00    -0.355 N 
ATOM     14  H   UNL     1      -0.193   1.007  -3.140  0.00  0.00    +0.142 HD
ATOM     15  H   UNL     1      -0.785   0.651  -4.671  0.00  0.00    +0.142 HD
ENDBRANCH  10  13
BRANCH   1  16
ATOM     16  N   UNL     1       0.753  -0.554  -1.438  0.00  0.00    -0.327 N 
ATOM     17  C   UNL     1      -0.077   0.131  -0.443  0.00  0.00    +0.129 C 
BRANCH  16  19
ATOM     18  C   UNL     1       2.852  -0.778  -0.202  0.00  0.00    +0.029 C 
ATOM     19  C   UNL     1       2.193  -0.292  -1.495  0.00  0.00    +0.084 C 
BRANCH  19  20
ATOM     20  C   UNL     1       2.432   1.210  -1.656  0.00  0.00    +0.140 C 
BRANCH  20  21
ATOM     21  C   UNL     1       1.945   1.646  -2.974  0.00  0.00    +0.064 C 
ATOM     22  N   UNL     1       1.568   1.983  -3.992  0.00  0.00    -0.197 NA
ENDBRANCH  20  21
ENDBRANCH  19  20
ENDBRANCH  16  19
ENDBRANCH   1  16
TORSDOF 5
