REMARK  Name = ZINC15304295
REMARK  9 active torsions:
REMARK  status: ('A' for Active; 'I' for Inactive)
REMARK    1  A    between atoms: C_1  and  C_2
REMARK    2  A    between atoms: C_7  and  C_17
REMARK    3  A    between atoms: C_19  and  N_26
REMARK    4  A    between atoms: C_20  and  O_25
REMARK    5  A    between atoms: C_21  and  O_23
REMARK    6  A    between atoms: O_23  and  C_24
REMARK    7  A    between atoms: C_31  and  C_33
REMARK    8  A    between atoms: C_33  and  O_35
REMARK    9  A    between atoms: O_35  and  C_36
REMARK                            x       y       z     vdW  Elec       q    Type
REMARK                         _______ _______ _______ _____ _____    ______ ____
ROOT
ATOM      1  C   UNL     1       0.483   1.303   0.276  0.00  0.00    +0.009 C 
ATOM      2  C   UNL     1       0.463  -0.226   0.339  0.00  0.00    +0.013 C 
ATOM      3  C   UNL     1      -0.973  -0.731   0.203  0.00  0.00    +0.055 C 
ATOM      4  C   UNL     1      -1.827  -0.169   1.327  0.00  0.00    +0.017 C 
ATOM      5  C   UNL     1      -1.292   0.064   2.538  0.00  0.00    +0.037 C 
ATOM      6  C   UNL     1      -2.023   0.614   3.739  0.00  0.00    +0.136 C 
ATOM      7  N   UNL     1      -3.464   0.650   3.600  0.00  0.00    -0.331 N 
ATOM      8  C   UNL     1      -4.073   1.466   2.647  0.00  0.00    +0.049 A 
ATOM      9  C   UNL     1      -4.885   2.527   3.014  0.00  0.00    +0.025 A 
ATOM     10  C   UNL     1      -5.430   3.337   2.033  0.00  0.00    +0.002 A 
ATOM     11  C   UNL     1      -5.164   3.095   0.698  0.00  0.00    +0.002 A 
ATOM     12  C   UNL     1      -4.367   2.025   0.327  0.00  0.00    +0.025 A 
ATOM     13  C   UNL     1      -3.840   1.202   1.306  0.00  0.00    +0.052 A 
ATOM     14  N   UNL     1      -3.126   0.049   1.001  0.00  0.00    -0.316 N 
ATOM     15  C   UNL     1       0.080  -0.193   2.771  0.00  0.00    +0.177 C 
ATOM     16  O   UNL     1       0.532   0.003   3.882  0.00  0.00    -0.291 OA
ATOM     17  C   UNL     1       0.998  -0.697   1.696  0.00  0.00    +0.171 C 
ATOM     18  H   UNL     1      -4.014   0.099   4.178  0.00  0.00    +0.147 HD
ATOM     19  H   UNL     1      -3.591  -0.652   0.517  0.00  0.00    +0.152 HD
ENDROOT
BRANCH   6  20
ATOM     20  C   UNL     1      -1.536   2.017   3.994  0.00  0.00    -0.017 A 
ATOM     21  C   UNL     1      -1.749   3.004   3.050  0.00  0.00    +0.042 A 
ATOM     22  C   UNL     1      -1.304   4.292   3.279  0.00  0.00    +0.171 A 
ATOM     23  C   UNL     1      -0.642   4.597   4.458  0.00  0.00    +0.189 A 
ATOM     24  C   UNL     1      -0.428   3.603   5.409  0.00  0.00    +0.164 A 
ATOM     25  C   UNL     1      -0.881   2.315   5.174  0.00  0.00    +0.055 A 
BRANCH  22  26
ATOM     26  N   UNL     1      -1.533   5.346   2.265  0.00  0.00    +0.060 N 
ATOM     27  O   UNL     1      -2.110   5.080   1.236  0.00  0.00    -0.126 OA
ATOM     28  O   UNL     1      -1.143   6.473   2.466  0.00  0.00    -0.126 OA
ENDBRANCH  22  26
BRANCH  24  29
ATOM     29  O   UNL     1       0.221   3.897   6.567  0.00  0.00    -0.491 OA
ATOM     30  C   UNL     1       0.405   2.828   7.497  0.00  0.00    +0.277 C 
ENDBRANCH  24  29
BRANCH  23  31
ATOM     31  O   UNL     1      -0.203   5.864   4.685  0.00  0.00    -0.502 OA
ATOM     32  H   UNL     1      -0.847   6.429   5.132  0.00  0.00    +0.292 HD
ENDBRANCH  23  31
ENDBRANCH   6  20
BRANCH  17  33
ATOM     33  C   UNL     1       2.384  -0.147   1.913  0.00  0.00    +0.318 C 
ATOM     34  O   UNL     1       2.896   0.550   1.069  0.00  0.00    -0.250 OA
BRANCH  33  35
ATOM     35  O   UNL     1       3.050  -0.433   3.042  0.00  0.00    -0.467 OA
ATOM     36  C   UNL     1       4.360   0.121   3.180  0.00  0.00    +0.280 C 
ENDBRANCH  33  35
ENDBRANCH  17  33
TORSDOF 6
