REMARK  Name = ZINC57305964
REMARK  5 active torsions:
REMARK  status: ('A' for Active; 'I' for Inactive)
REMARK    1  A    between atoms: C_1  and  C_2
REMARK    2  A    between atoms: C_2  and  O_3
REMARK    3  A    between atoms: O_3  and  C_4
REMARK    4  A    between atoms: N_6  and  C_7
REMARK    5  A    between atoms: C_7  and  C_8
REMARK                            x       y       z     vdW  Elec       q    Type
REMARK                         _______ _______ _______ _____ _____    ______ ____
ROOT
ATOM      1  C   UNL     1      -4.377  -4.154   0.021  0.00  0.00    +0.236 C 
ATOM      2  O   UNL     1      -5.200  -3.264   0.034  0.00  0.00    -0.274 OA
ATOM      3  N   UNL     1      -4.778  -5.441   0.018  0.00  0.00    -0.262 N 
ATOM      4  C   UNL     1      -6.134  -5.748   0.030  0.00  0.00    +0.188 A 
ATOM      5  N   UNL     1      -7.170  -4.933   0.038  0.00  0.00    -0.126 NA
ATOM      6  N   UNL     1      -8.358  -5.363   0.048  0.00  0.00    -0.148 NA
ATOM      7  C   UNL     1      -8.569  -6.664   0.050  0.00  0.00    +0.183 A 
ATOM      8  S   UNL     1      -6.883  -7.258   0.029  0.00  0.00    -0.039 S 
ATOM      9  H   UNL     1      -4.120  -6.154   0.008  0.00  0.00    +0.157 HD
ENDROOT
BRANCH   1  10
ATOM     10  C   UNL     1      -2.907  -3.823   0.009  0.00  0.00    +0.203 C 
BRANCH  10  13
ATOM     11  C   UNL     1      -1.497  -1.836   0.006  0.00  0.00    +0.401 C 
ATOM     12  O   UNL     1      -0.523  -2.563  -0.007  0.00  0.00    -0.226 OA
ATOM     13  N   UNL     1      -2.735  -2.368   0.015  0.00  0.00    -0.273 N 
ATOM     14  H   UNL     1      -3.512  -1.787   0.026  0.00  0.00    +0.153 HD
BRANCH  11  15
ATOM     15  O   UNL     1      -1.339  -0.499   0.012  0.00  0.00    -0.451 OA
BRANCH  15  17
ATOM     16  C   UNL     1      -0.019   1.526   0.010  0.00  0.00    +0.048 C 
ATOM     17  C   UNL     1       0.002  -0.004   0.002  0.00  0.00    +0.230 C 
ENDBRANCH  15  17
ENDBRANCH  11  15
ENDBRANCH  10  13
ENDBRANCH   1  10
TORSDOF 4
