REMARK  Name = ZINC37649354
REMARK  6 active torsions:
REMARK  status: ('A' for Active; 'I' for Inactive)
REMARK    1  A    between atoms: C_1  and  C_2
REMARK    2  A    between atoms: C_7  and  C_21
REMARK    3  A    between atoms: C_9  and  N_10
REMARK    4  A    between atoms: N_10  and  C_11
REMARK    5  A    between atoms: C_11  and  C_12
REMARK    6  A    between atoms: N_16  and  C_18
REMARK                            x       y       z     vdW  Elec       q    Type
REMARK                         _______ _______ _______ _____ _____    ______ ____
ROOT
ATOM      1  N   UNL     1       0.054  -0.037   2.450  0.00  0.00    +0.381 N 
ATOM      2  H   UNL     1      -0.032   0.968   2.416  0.00  0.00    -0.085 HD
ATOM      3  H   UNL     1      -0.864  -0.452   2.499  0.00  0.00    -0.085 HD
ENDROOT
BRANCH   1  10
ATOM      4  C   UNL     1      -0.019   1.526   0.010  0.00  0.00    +0.006 C 
ATOM      5  C   UNL     1       0.002  -0.004   0.002  0.00  0.00    -0.028 C 
ATOM      6  C   UNL     1       0.718  -0.497  -1.257  0.00  0.00    +0.002 C 
ATOM      7  C   UNL     1       0.739  -2.027  -1.265  0.00  0.00    +0.000 C 
ATOM      8  C   UNL     1       1.479  -2.534  -0.026  0.00  0.00    +0.002 C 
ATOM      9  C   UNL     1       0.763  -2.041   1.233  0.00  0.00    -0.028 C 
ATOM     10  C   UNL     1       0.742  -0.511   1.242  0.00  0.00    -0.066 C 
ATOM     11  C   UNL     1      -0.673  -2.570   1.244  0.00  0.00    +0.006 C 
ENDBRANCH   1  10
BRANCH   1  12
ATOM     12  C   UNL     1       0.830  -0.422   3.637  0.00  0.00    -0.081 C 
BRANCH  12  13
ATOM     13  C   UNL     1       0.114   0.072   4.896  0.00  0.00    -0.047 C 
ATOM     14  C   UNL     1       0.172   1.619   4.998  0.00  0.00    -0.019 C 
ATOM     15  C   UNL     1       0.059   1.871   6.516  0.00  0.00    -0.078 C 
ATOM     16  N   UNL     1       0.486   0.636   7.198  0.00  0.00    +0.382 N 
ATOM     17  C   UNL     1       0.879  -0.356   6.173  0.00  0.00    -0.077 C 
ATOM     18  H   UNL     1      -0.276   0.270   7.749  0.00  0.00    -0.081 HD
BRANCH  16  19
ATOM     19  C   UNL     1       1.631   0.924   8.071  0.00  0.00    -0.069 C 
ATOM     20  C   UNL     1       1.558   0.432   9.518  0.00  0.00    -0.017 C 
ATOM     21  C   UNL     1       1.417   1.924   9.210  0.00  0.00    -0.017 C 
ENDBRANCH  16  19
ENDBRANCH  12  13
ENDBRANCH   1  12
TORSDOF 4
