REMARK  Name = ZINC67270567
REMARK  7 active torsions:
REMARK  status: ('A' for Active; 'I' for Inactive)
REMARK    1  A    between atoms: C_1  and  C_2
REMARK    2  A    between atoms: N_6  and  C_7
REMARK    3  A    between atoms: C_7  and  C_8
REMARK    4  A    between atoms: C_8  and  C_10
REMARK    5  A    between atoms: C_8  and  C_11
REMARK    6  A    between atoms: C_11  and  N_12
REMARK    7  A    between atoms: C_13  and  C_15
REMARK                            x       y       z     vdW  Elec       q    Type
REMARK                         _______ _______ _______ _____ _____    ______ ____
ROOT
ATOM      1  N   UNL     1      -3.249   0.112   4.689  0.00  0.00    -0.315 N 
ATOM      2  C   UNL     1      -3.646   0.457   5.930  0.00  0.00    +0.216 C 
ATOM      3  O   UNL     1      -2.832   0.851   6.739  0.00  0.00    -0.276 OA
ATOM      4  H   UNL     1      -3.900  -0.203   4.042  0.00  0.00    +0.149 HD
ENDROOT
BRANCH   2   5
ATOM      5  C   UNL     1      -5.100   0.354   6.312  0.00  0.00    +0.075 C 
ATOM      6  C   UNL     1      -5.933   1.251   5.394  0.00  0.00    +0.015 C 
ATOM      7  C   UNL     1      -7.411   1.136   5.776  0.00  0.00    +0.036 C 
ATOM      8  C   UNL     1      -7.598   1.556   7.229  0.00  0.00    +0.112 C 
ATOM      9  C   UNL     1      -6.754   0.687   8.155  0.00  0.00    +0.036 C 
ATOM     10  C   UNL     1      -5.278   0.804   7.764  0.00  0.00    +0.015 C 
ATOM     11  C   UNL     1      -7.246   3.015   7.407  0.00  0.00    +0.244 C 
ATOM     12  O   UNL     1      -6.171   3.540   7.210  0.00  0.00    -0.273 OA
ATOM     13  N   UNL     1      -8.380   3.610   7.833  0.00  0.00    -0.238 N 
ATOM     14  C   UNL     1      -9.385   2.733   7.945  0.00  0.00    +0.307 C 
ATOM     15  O   UNL     1     -10.505   3.031   8.311  0.00  0.00    -0.252 OA
ATOM     16  N   UNL     1      -9.015   1.482   7.607  0.00  0.00    -0.285 N 
ATOM     17  H   UNL     1      -8.457   4.556   8.033  0.00  0.00    +0.159 HD
ATOM     18  H   UNL     1      -9.575   0.690   7.612  0.00  0.00    +0.151 HD
ENDBRANCH   2   5
BRANCH   1  19
ATOM     19  C   UNL     1      -1.835   0.212   4.318  0.00  0.00    +0.109 C 
BRANCH  19  20
ATOM     20  C   UNL     1      -1.657  -0.237   2.866  0.00  0.00    +0.023 C 
ATOM     21  C   UNL     1      -2.389   0.734   1.938  0.00  0.00    +0.011 C 
BRANCH  20  22
ATOM     22  C   UNL     1      -0.167  -0.252   2.516  0.00  0.00    +0.127 C 
BRANCH  22  28
ATOM     23  C   UNL     1      -0.174  -3.261   1.775  0.00  0.00    +0.084 C 
ATOM     24  C   UNL     1       0.012  -2.105   0.827  0.00  0.00    +0.084 A 
ATOM     25  N   UNL     1       0.195  -2.200  -0.462  0.00  0.00    -0.350 N 
ATOM     26  C   UNL     1       0.323  -0.971  -0.983  0.00  0.00    +0.101 A 
ATOM     27  C   UNL     1       0.215  -0.080   0.021  0.00  0.00    +0.104 A 
ATOM     28  N   UNL     1       0.013  -0.798   1.169  0.00  0.00    -0.336 N 
ATOM     29  H   UNL     1       0.233  -3.029  -0.964  0.00  0.00    +0.166 HD
ENDBRANCH  22  28
ENDBRANCH  20  22
ENDBRANCH  19  20
ENDBRANCH   1  19
TORSDOF 5
