REMARK  Name = ZINC52061390
REMARK  6 active torsions:
REMARK  status: ('A' for Active; 'I' for Inactive)
REMARK    1  A    between atoms: C_1  and  C_2
REMARK    2  A    between atoms: C_2  and  C_3
REMARK    3  A    between atoms: C_3  and  N_4
REMARK    4  A    between atoms: N_4  and  C_5
REMARK    5  A    between atoms: C_11  and  N_13
REMARK    6  A    between atoms: N_16  and  C_19
REMARK                            x       y       z     vdW  Elec       q    Type
REMARK                         _______ _______ _______ _____ _____    ______ ____
ROOT
ATOM      1  C   UNL     1      -2.792  -2.511   0.015  0.00  0.00    -0.054 C 
ATOM      2  C   UNL     1      -3.494  -2.108  -1.283  0.00  0.00    -0.014 C 
ATOM      3  C   UNL     1      -4.929  -2.638  -1.272  0.00  0.00    -0.001 C 
ATOM      4  C   UNL     1      -4.909  -4.163  -1.155  0.00  0.00    +0.001 C 
ATOM      5  C   UNL     1      -4.207  -4.566   0.143  0.00  0.00    +0.017 C 
ATOM      6  C   UNL     1      -2.772  -4.036   0.133  0.00  0.00    +0.042 C 
ENDROOT
BRANCH   6   7
ATOM      7  N   UNL     1      -2.098  -4.423   1.379  0.00  0.00    -0.304 NA
ATOM      8  C   UNL     1      -2.875  -3.997   2.552  0.00  0.00    +0.066 C 
ATOM      9  C   UNL     1      -2.112  -4.365   3.827  0.00  0.00    -0.063 C 
ATOM     10  N   UNL     1      -1.891  -5.816   3.864  0.00  0.00    +0.383 N 
ATOM     11  C   UNL     1      -1.093  -6.223   2.700  0.00  0.00    -0.063 C 
ATOM     12  C   UNL     1      -1.848  -5.871   1.416  0.00  0.00    +0.066 C 
ATOM     13  H   UNL     1      -2.781  -6.292   3.844  0.00  0.00    -0.081 HD
BRANCH  10  14
ATOM     14  C   UNL     1      -1.175  -6.171   5.097  0.00  0.00    -0.068 C 
ATOM     15  C   UNL     1      -2.053  -5.874   6.338  0.00  0.00    -0.015 C 
ATOM     16  C   UNL     1      -1.457  -6.820   7.411  0.00  0.00    -0.002 C 
ATOM     17  C   UNL     1      -1.110  -8.105   6.632  0.00  0.00    -0.002 C 
ATOM     18  C   UNL     1      -0.931  -7.692   5.161  0.00  0.00    -0.015 C 
ENDBRANCH  10  14
ENDBRANCH   6   7
BRANCH   1  19
ATOM     19  N   UNL     1      -1.413  -2.002   0.005  0.00  0.00    +0.382 N 
ATOM     20  H   UNL     1      -0.941  -2.328  -0.825  0.00  0.00    -0.085 HD
ATOM     21  H   UNL     1      -0.925  -2.337   0.822  0.00  0.00    -0.085 HD
BRANCH  19  22
ATOM     22  C   UNL     1      -1.433  -0.534   0.013  0.00  0.00    -0.082 C 
BRANCH  22  24
ATOM     23  C   UNL     1      -0.019   1.526   0.010  0.00  0.00    +0.002 C 
ATOM     24  C   UNL     1       0.002  -0.004   0.002  0.00  0.00    -0.022 C 
ENDBRANCH  22  24
ENDBRANCH  19  22
ENDBRANCH   1  19
TORSDOF 5
