REMARK  Name = ZINC04941722
REMARK  9 active torsions:
REMARK  status: ('A' for Active; 'I' for Inactive)
REMARK    1  A    between atoms: C_1  and  C_2
REMARK    2  A    between atoms: C_2  and  O_3
REMARK    3  A    between atoms: O_3  and  C_4
REMARK    4  A    between atoms: C_4  and  O_22
REMARK    5  A    between atoms: C_5  and  C_20
REMARK    6  A    between atoms: C_6  and  C_13
REMARK    7  A    between atoms: C_8  and  C_11
REMARK    8  A    between atoms: O_22  and  C_23
REMARK    9  A    between atoms: C_23  and  C_24
REMARK                            x       y       z     vdW  Elec       q    Type
REMARK                         _______ _______ _______ _____ _____    ______ ____
ROOT
ATOM      1  C   UNL     1       0.252   3.639   1.866  0.00  0.00    +0.274 C 
ATOM      2  C   UNL     1       1.162   2.489   1.397  0.00  0.00    +0.165 C 
ATOM      3  C   UNL     1       1.482   2.379  -0.096  0.00  0.00    +0.079 C 
ATOM      4  C   UNL     1       0.245   1.675   0.464  0.00  0.00    +0.144 C 
ATOM      5  C   UNL     1      -1.079   2.395   0.445  0.00  0.00    +0.092 C 
ATOM      6  N   UNL     1      -2.162   1.994  -0.292  0.00  0.00    -0.347 N 
ATOM      7  H   UNL     1      -2.104   1.201  -0.847  0.00  0.00    +0.143 HD
ATOM      8  H   UNL     1      -2.986   2.504  -0.260  0.00  0.00    +0.143 HD
ATOM      9  N   UNL     1      -1.063   3.456   1.220  0.00  0.00    -0.324 N 
ATOM     10  H   UNL     1      -1.867   4.080   1.359  0.00  0.00    +0.166 HD
ENDROOT
BRANCH   3  11
ATOM     11  C   UNL     1       1.260   3.603  -0.946  0.00  0.00    -0.022 A 
ATOM     12  C   UNL     1       0.244   3.619  -1.883  0.00  0.00    +0.005 A 
ATOM     13  C   UNL     1       0.040   4.742  -2.663  0.00  0.00    +0.000 A 
ATOM     14  C   UNL     1       0.852   5.850  -2.506  0.00  0.00    +0.001 A 
ATOM     15  C   UNL     1       1.868   5.835  -1.569  0.00  0.00    +0.020 A 
ATOM     16  C   UNL     1       2.069   4.713  -0.785  0.00  0.00    +0.045 A 
ATOM     17 CL   UNL     1       3.341   4.697   0.397  0.00  0.00    -0.083 Cl
ENDBRANCH   3  11
BRANCH   4  18
ATOM     18  C   UNL     1       0.215   0.204   0.512  0.00  0.00    +0.079 C 
ATOM     19  N   UNL     1       0.191  -0.932   0.550  0.00  0.00    -0.195 NA
ENDBRANCH   4  18
BRANCH   2  20
ATOM     20  C   UNL     1       2.050   1.855   2.385  0.00  0.00    +0.079 C 
ATOM     21  N   UNL     1       2.735   1.366   3.148  0.00  0.00    -0.196 NA
ENDBRANCH   2  20
BRANCH   1  22
ATOM     22  O   UNL     1       0.100   3.594   3.286  0.00  0.00    -0.331 OA
BRANCH  22  24
ATOM     23  C   UNL     1      -0.555   2.417   5.293  0.00  0.00    +0.034 C 
ATOM     24  C   UNL     1      -0.559   2.419   3.763  0.00  0.00    +0.162 C 
ENDBRANCH  22  24
ENDBRANCH   1  22
BRANCH   1  25
ATOM     25  O   UNL     1       0.810   4.895   1.474  0.00  0.00    -0.331 OA
BRANCH  25  26
ATOM     26  C   UNL     1       0.045   6.027   1.893  0.00  0.00    +0.162 C 
ATOM     27  C   UNL     1       0.678   7.304   1.338  0.00  0.00    +0.034 C 
ENDBRANCH  25  26
ENDBRANCH   1  25
TORSDOF 7
