REMARK  Name = ZINC39306095
REMARK  5 active torsions:
REMARK  status: ('A' for Active; 'I' for Inactive)
REMARK    1  A    between atoms: C_1  and  C_2
REMARK    2  A    between atoms: C_2  and  N_3
REMARK    3  A    between atoms: C_11  and  S_13
REMARK    4  A    between atoms: S_13  and  C_14
REMARK    5  A    between atoms: C_14  and  C_15
REMARK                            x       y       z     vdW  Elec       q    Type
REMARK                         _______ _______ _______ _____ _____    ______ ____
ROOT
ATOM      1  N   UNL     1       0.711  -0.489   1.189  0.00  0.00    -0.302 N 
ATOM      2  C   UNL     1       2.086  -0.742   1.290  0.00  0.00    +0.053 A 
ATOM      3  C   UNL     1       3.099  -0.611   0.347  0.00  0.00    +0.025 A 
ATOM      4  C   UNL     1       4.402  -0.927   0.681  0.00  0.00    +0.002 A 
ATOM      5  C   UNL     1       4.703  -1.374   1.954  0.00  0.00    +0.002 A 
ATOM      6  C   UNL     1       3.703  -1.507   2.898  0.00  0.00    +0.025 A 
ATOM      7  C   UNL     1       2.389  -1.192   2.571  0.00  0.00    +0.050 A 
ATOM      8  N   UNL     1       1.221  -1.246   3.345  0.00  0.00    -0.316 N 
ATOM      9  C   UNL     1       0.113  -0.795   2.494  0.00  0.00    +0.220 C 
ATOM     10  H   UNL     1       1.158  -1.526   4.271  0.00  0.00    +0.149 HD
ENDROOT
BRANCH   1  12
ATOM     11  C   UNL     1      -0.019   1.526   0.010  0.00  0.00    +0.024 C 
ATOM     12  C   UNL     1       0.002  -0.004   0.002  0.00  0.00    +0.104 C 
ENDBRANCH   1  12
BRANCH   9  13
ATOM     13  S   UNL     1      -1.119  -2.115   2.325  0.00  0.00    -0.112 S 
BRANCH  13  14
ATOM     14  C   UNL     1      -0.173  -3.518   1.672  0.00  0.00    +0.146 C 
BRANCH  14  15
ATOM     15  C   UNL     1      -1.090  -4.698   1.483  0.00  0.00    +0.118 A 
ATOM     16  N   UNL     1      -1.753  -4.960   0.394  0.00  0.00    -0.232 NA
ATOM     17  C   UNL     1      -2.480  -6.094   0.563  0.00  0.00    +0.089 A 
ATOM     18  C   UNL     1      -3.349  -6.813  -0.261  0.00  0.00    +0.030 A 
ATOM     19  C   UNL     1      -3.947  -7.949   0.208  0.00  0.00    +0.002 A 
ATOM     20  C   UNL     1      -3.700  -8.399   1.496  0.00  0.00    +0.002 A 
ATOM     21  C   UNL     1      -2.846  -7.705   2.327  0.00  0.00    +0.028 A 
ATOM     22  C   UNL     1      -2.230  -6.549   1.869  0.00  0.00    +0.066 A 
ATOM     23  N   UNL     1      -1.342  -5.648   2.423  0.00  0.00    -0.341 N 
ATOM     24  H   UNL     1      -0.970  -5.685   3.318  0.00  0.00    +0.167 HD
ENDBRANCH  14  15
ENDBRANCH  13  14
ENDBRANCH   9  13
TORSDOF 4
