REMARK  Name = ZINC65305895
REMARK  9 active torsions:
REMARK  status: ('A' for Active; 'I' for Inactive)
REMARK    1  A    between atoms: C_1  and  C_2
REMARK    2  A    between atoms: C_2  and  C_3
REMARK    3  A    between atoms: C_3  and  C_5
REMARK    4  A    between atoms: C_3  and  C_6
REMARK    5  A    between atoms: C_6  and  C_8
REMARK    6  A    between atoms: C_6  and  N_20
REMARK    7  A    between atoms: N_10  and  C_11
REMARK    8  A    between atoms: C_21  and  C_23
REMARK    9  A    between atoms: C_24  and  C_28
REMARK                            x       y       z     vdW  Elec       q    Type
REMARK                         _______ _______ _______ _____ _____    ______ ____
ROOT
ATOM      1  C   UNL     1      -2.165  -0.269   1.462  0.00  0.00    +0.162 C 
ENDROOT
BRANCH   1   2
ATOM      2  C   UNL     1      -2.395   1.214   1.607  0.00  0.00    +0.236 C 
ATOM      3  O   UNL     1      -3.525   1.647   1.684  0.00  0.00    -0.274 OA
ATOM      4  N   UNL     1      -1.345   2.058   1.650  0.00  0.00    -0.277 N 
ATOM      5  H   UNL     1      -0.446   1.721   1.509  0.00  0.00    +0.152 HD
BRANCH   4   6
ATOM      6  C   UNL     1      -1.561   3.483   1.909  0.00  0.00    +0.269 C 
ATOM      7  N   UNL     1      -2.041   4.150   0.692  0.00  0.00    -0.348 N 
ATOM      8  C   UNL     1      -1.168   5.063   0.377  0.00  0.00    +0.061 A 
ATOM      9  C   UNL     1      -1.095   6.038  -0.720  0.00  0.00    +0.027 A 
ATOM     10  C   UNL     1      -0.043   6.879  -0.792  0.00  0.00    +0.002 A 
ATOM     11  C   UNL     1       1.003   6.867   0.147  0.00  0.00    +0.002 A 
ATOM     12  C   UNL     1       1.034   6.013   1.189  0.00  0.00    +0.027 A 
ATOM     13  C   UNL     1      -0.060   5.050   1.371  0.00  0.00    +0.061 A 
ATOM     14  N   UNL     1      -0.291   4.130   2.262  0.00  0.00    -0.348 N 
ATOM     15  H   UNL     1      -2.858   3.947   0.211  0.00  0.00    +0.163 HD
ATOM     16  H   UNL     1       0.273   3.911   3.020  0.00  0.00    +0.163 HD
ENDBRANCH   4   6
ENDBRANCH   1   2
BRANCH   1  17
ATOM     17  N   UNL     1      -3.356  -0.994   1.910  0.00  0.00    -0.299 N 
ATOM     18  C   UNL     1      -3.246  -2.262   2.353  0.00  0.00    +0.252 C 
ATOM     19  O   UNL     1      -2.158  -2.805   2.380  0.00  0.00    -0.270 OA
ATOM     20  H   UNL     1      -4.224  -0.561   1.889  0.00  0.00    +0.150 HD
BRANCH  18  21
ATOM     21  C   UNL     1      -4.439  -2.988   2.801  0.00  0.00    +0.077 A 
ATOM     22  C   UNL     1      -4.542  -4.280   3.291  0.00  0.00    -0.031 A 
ATOM     23  C   UNL     1      -5.808  -4.689   3.635  0.00  0.00    +0.011 A 
ATOM     24  C   UNL     1      -6.844  -3.829   3.477  0.00  0.00    +0.046 A 
ATOM     25  S   UNL     1      -6.132  -2.435   2.865  0.00  0.00    -0.092 S 
ATOM     26  C   UNL     1      -3.342  -5.180   3.438  0.00  0.00    +0.045 C 
ENDBRANCH  18  21
ENDBRANCH   1  17
BRANCH   1  27
ATOM     27  C   UNL     1      -1.887  -0.601  -0.005  0.00  0.00    +0.015 C 
ATOM     28  C   UNL     1      -3.147  -0.341  -0.834  0.00  0.00    +0.010 C 
BRANCH  27  30
ATOM     29  C   UNL     1      -0.153  -2.302   0.580  0.00  0.00    +0.004 C 
ATOM     30  C   UNL     1      -1.490  -2.073  -0.128  0.00  0.00    +0.002 C 
ENDBRANCH  27  30
ENDBRANCH   1  27
TORSDOF 6
