REMARK  Name = ZINC67117567
REMARK  5 active torsions:
REMARK  status: ('A' for Active; 'I' for Inactive)
REMARK    1  A    between atoms: C_6  and  C_7
REMARK    2  A    between atoms: C_7  and  C_9
REMARK    3  A    between atoms: C_7  and  O_24
REMARK    4  A    between atoms: C_9  and  N_10
REMARK    5  A    between atoms: C_14  and  C_16
REMARK                            x       y       z     vdW  Elec       q    Type
REMARK                         _______ _______ _______ _____ _____    ______ ____
ROOT
ATOM      1  C   UNL     1      -1.848  -0.827   1.434  0.00  0.00    -0.041 C 
ENDROOT
BRANCH   1   2
ATOM      2  N   UNL     1      -3.046  -1.677   1.462  0.00  0.00    +0.389 N 
ATOM      3  C   UNL     1      -2.673  -3.095   1.223  0.00  0.00    -0.078 C 
ATOM      4  C   UNL     1      -3.865  -3.881   1.826  0.00  0.00    -0.020 C 
ATOM      5  C   UNL     1      -4.228  -3.050   3.078  0.00  0.00    -0.008 C 
ATOM      6  C   UNL     1      -3.664  -1.643   2.805  0.00  0.00    +0.019 C 
ATOM      7  H   UNL     1      -3.708  -1.368   0.766  0.00  0.00    -0.081 HD
BRANCH   6   8
ATOM      8  C   UNL     1      -4.778  -0.628   2.832  0.00  0.00    +0.202 C 
ATOM      9  O   UNL     1      -5.040   0.011   1.836  0.00  0.00    -0.277 OA
ATOM     10  N   UNL     1      -5.482  -0.431   3.965  0.00  0.00    -0.301 N 
ATOM     11  C   UNL     1      -5.153  -1.203   5.164  0.00  0.00    +0.118 C 
ATOM     12  C   UNL     1      -4.616  -0.260   6.247  0.00  0.00    +0.088 C 
ATOM     13  S   UNL     1      -5.864   1.022   6.573  0.00  0.00    -0.158 S 
ATOM     14  C   UNL     1      -6.196   1.705   4.921  0.00  0.00    +0.088 C 
ATOM     15  C   UNL     1      -6.562   0.557   3.981  0.00  0.00    +0.118 C 
ENDBRANCH   6   8
ENDBRANCH   1   2
BRANCH   1  16
ATOM     16  C   UNL     1      -1.293  -0.774   0.009  0.00  0.00    +0.128 C 
BRANCH  16  22
ATOM     17  C   UNL     1      -0.017   1.378   0.010  0.00  0.00    +0.010 A 
ATOM     18  C   UNL     1       1.170   2.088   0.002  0.00  0.00    +0.050 A 
ATOM     19  C   UNL     1       2.382   1.415  -0.013  0.00  0.00    +0.162 A 
ATOM     20  C   UNL     1       2.401   0.025  -0.018  0.00  0.00    +0.162 A 
ATOM     21  C   UNL     1       1.207  -0.681  -0.011  0.00  0.00    +0.055 A 
ATOM     22  C   UNL     1       0.002  -0.004   0.002  0.00  0.00    -0.017 A 
ATOM     23  O   UNL     1       3.579  -0.656  -0.024  0.00  0.00    -0.485 OA
ATOM     24  C   UNL     1       4.746   0.081  -0.406  0.00  0.00    +0.270 C 
ATOM     25  C   UNL     1       4.733   1.422   0.340  0.00  0.00    +0.270 C 
ATOM     26  O   UNL     1       3.542   2.127  -0.024  0.00  0.00    -0.485 OA
ENDBRANCH  16  22
BRANCH  16  27
ATOM     27  O   UNL     1      -2.237  -0.125  -0.846  0.00  0.00    -0.389 OA
ATOM     28  H   UNL     1      -2.444   0.783  -0.586  0.00  0.00    +0.210 HD
ENDBRANCH  16  27
ENDBRANCH   1  16
TORSDOF 5
