REMARK  Name = ZINC39685353
REMARK  6 active torsions:
REMARK  status: ('A' for Active; 'I' for Inactive)
REMARK    1  A    between atoms: C_3  and  O_8
REMARK    2  A    between atoms: O_8  and  C_9
REMARK    3  A    between atoms: C_9  and  C_10
REMARK    4  A    between atoms: C_10  and  N_11
REMARK    5  A    between atoms: C_12  and  C_14
REMARK    6  A    between atoms: C_25  and  C_27
REMARK                            x       y       z     vdW  Elec       q    Type
REMARK                         _______ _______ _______ _____ _____    ______ ____
ROOT
ATOM      1  C   UNL     1       6.772   5.038   2.135  0.00  0.00    +0.100 C 
ATOM      2  C   UNL     1       5.576   5.919   2.561  0.00  0.00    +0.121 C 
ATOM      3  N   UNL     1       6.191   7.074   3.257  0.00  0.00    -0.296 N 
ATOM      4  C   UNL     1       7.403   7.381   2.461  0.00  0.00    +0.115 C 
ATOM      5  C   UNL     1       7.969   6.001   2.070  0.00  0.00    -0.004 C 
ATOM      6  C   UNL     1       8.534   6.046   0.653  0.00  0.00    -0.010 C 
ATOM      7  C   UNL     1       9.759   6.965   0.626  0.00  0.00    -0.082 C 
ATOM      8  N   UNL     1      10.771   6.463   1.563  0.00  0.00    +0.379 N 
ATOM      9  C   UNL     1      10.251   6.511   2.935  0.00  0.00    -0.082 C 
ATOM     10  C   UNL     1       9.047   5.572   3.060  0.00  0.00    -0.010 C 
ATOM     11  C   UNL     1       5.748   7.702   4.364  0.00  0.00    +0.247 C 
ATOM     12  O   UNL     1       4.804   7.252   4.982  0.00  0.00    -0.270 OA
ATOM     13  H   UNL     1      11.003   5.510   1.327  0.00  0.00    -0.086 HD
ATOM     14  H   UNL     1      11.600   7.034   1.499  0.00  0.00    -0.086 HD
ENDROOT
BRANCH  11  15
ATOM     15  C   UNL     1       6.412   8.939   4.827  0.00  0.00    +0.037 A 
ATOM     16  C   UNL     1       7.181   9.695   3.941  0.00  0.00    +0.014 A 
ATOM     17  C   UNL     1       7.798  10.849   4.378  0.00  0.00    +0.016 A 
ATOM     18  C   UNL     1       7.655  11.257   5.694  0.00  0.00    +0.018 A 
ATOM     19  C   UNL     1       6.894  10.511   6.578  0.00  0.00    +0.016 A 
ATOM     20  C   UNL     1       6.268   9.359   6.150  0.00  0.00    +0.014 A 
ATOM     21 BR   UNL     1       8.505  12.839   6.286  0.00  0.00    -0.050 Br
ENDBRANCH  11  15
BRANCH   1  23
ATOM     22  N   UNL     1       7.051   3.227   0.473  0.00  0.00    -0.312 N 
ATOM     23  C   UNL     1       6.517   4.425   0.782  0.00  0.00    +0.218 C 
ATOM     24  O   UNL     1       5.830   5.010  -0.028  0.00  0.00    -0.275 OA
ATOM     25  H   UNL     1       7.601   2.759   1.122  0.00  0.00    +0.149 HD
BRANCH  22  26
ATOM     26  C   UNL     1       6.803   2.632  -0.842  0.00  0.00    +0.145 C 
BRANCH  26  27
ATOM     27  C   UNL     1       7.519   1.282  -0.934  0.00  0.00    +0.247 C 
BRANCH  27  28
ATOM     28  O   UNL     1       6.944   0.373   0.007  0.00  0.00    -0.490 OA
BRANCH  28  31
ATOM     29  C   UNL     1       7.493  -3.087   0.991  0.00  0.00    +0.006 A 
ATOM     30  C   UNL     1       6.959  -1.813   0.944  0.00  0.00    +0.046 A 
ATOM     31  C   UNL     1       7.469  -0.879   0.054  0.00  0.00    +0.123 A 
ATOM     32  C   UNL     1       8.515  -1.226  -0.789  0.00  0.00    +0.084 A 
ATOM     33  C   UNL     1       9.047  -2.502  -0.739  0.00  0.00    +0.127 A 
ATOM     34  C   UNL     1       8.536  -3.432   0.151  0.00  0.00    +0.038 A 
ATOM     35  F   UNL     1      10.066  -2.842  -1.559  0.00  0.00    -0.205 F 
ENDBRANCH  28  31
ENDBRANCH  27  28
ENDBRANCH  26  27
ENDBRANCH  22  26
ENDBRANCH   1  23
TORSDOF 6
