REMARK  Name = ZINC47167432
REMARK  6 active torsions:
REMARK  status: ('A' for Active; 'I' for Inactive)
REMARK    1  A    between atoms: C_1  and  C_2
REMARK    2  A    between atoms: N_6  and  C_14
REMARK    3  A    between atoms: C_14  and  C_15
REMARK    4  A    between atoms: N_17  and  C_18
REMARK    5  A    between atoms: C_22  and  C_24
REMARK    6  A    between atoms: C_24  and  C_31
REMARK                            x       y       z     vdW  Elec       q    Type
REMARK                         _______ _______ _______ _____ _____    ______ ____
ROOT
ATOM      1  C   UNL     1      -3.245  -3.086  -0.694  0.00  0.00    +0.235 C 
ATOM      2  O   UNL     1      -2.342  -3.201  -1.496  0.00  0.00    -0.274 OA
ATOM      3  N   UNL     1      -4.430  -3.685  -0.922  0.00  0.00    -0.284 N 
ATOM      4  H   UNL     1      -5.129  -3.649  -0.251  0.00  0.00    +0.155 HD
ENDROOT
BRANCH   3   5
ATOM      5  C   UNL     1      -4.653  -4.359  -2.128  0.00  0.00    +0.034 A 
ATOM      6  C   UNL     1      -3.616  -5.050  -2.740  0.00  0.00    +0.023 A 
ATOM      7  C   UNL     1      -3.839  -5.715  -3.930  0.00  0.00    +0.002 A 
ATOM      8  C   UNL     1      -5.093  -5.692  -4.512  0.00  0.00    +0.006 A 
ATOM      9  C   UNL     1      -6.128  -5.004  -3.905  0.00  0.00    -0.014 A 
ATOM     10  C   UNL     1      -5.913  -4.343  -2.712  0.00  0.00    +0.029 A 
BRANCH   9  11
ATOM     11  C   UNL     1      -7.493  -4.981  -4.543  0.00  0.00    +0.135 C 
ATOM     12  C   UNL     1      -7.849  -3.577  -4.989  0.00  0.00    +0.248 C 
ATOM     13  O   UNL     1      -7.967  -2.594  -4.289  0.00  0.00    -0.273 OA
ATOM     14  N   UNL     1      -8.008  -3.648  -6.326  0.00  0.00    -0.238 N 
ATOM     15  C   UNL     1      -7.803  -4.889  -6.781  0.00  0.00    +0.307 C 
ATOM     16  O   UNL     1      -7.889  -5.202  -7.953  0.00  0.00    -0.252 OA
ATOM     17  N   UNL     1      -7.492  -5.753  -5.798  0.00  0.00    -0.282 N 
ATOM     18  C   UNL     1      -8.546  -5.526  -3.577  0.00  0.00    +0.047 C 
ATOM     19  H   UNL     1      -8.242  -2.893  -6.888  0.00  0.00    +0.159 HD
ATOM     20  H   UNL     1      -7.303  -6.699  -5.896  0.00  0.00    +0.152 HD
ENDBRANCH   9  11
ENDBRANCH   3   5
BRANCH   1  21
ATOM     21  C   UNL     1      -3.040  -2.272   0.557  0.00  0.00    +0.209 C 
BRANCH  21  26
ATOM     22  C   UNL     1      -0.026   1.529   0.026  0.00  0.00    +0.062 C 
ATOM     23  C   UNL     1      -0.002  -0.001   0.008  0.00  0.00    +0.256 C 
ATOM     24  C   UNL     1      -1.416  -0.524   0.019  0.00  0.00    +0.261 C 
ATOM     25  O   UNL     1      -2.312   0.133  -0.466  0.00  0.00    -0.271 OA
ATOM     26  N   UNL     1      -1.679  -1.729   0.570  0.00  0.00    -0.256 N 
ATOM     27  C   UNL     1      -0.630  -2.453   1.156  0.00  0.00    +0.079 A 
ATOM     28  C   UNL     1      -0.773  -3.800   1.442  0.00  0.00    +0.027 A 
ATOM     29  C   UNL     1       0.273  -4.495   2.020  0.00  0.00    +0.002 A 
ATOM     30  C   UNL     1       1.460  -3.849   2.312  0.00  0.00    +0.004 A 
ATOM     31  C   UNL     1       1.609  -2.503   2.028  0.00  0.00    +0.047 A 
ATOM     32  C   UNL     1       0.566  -1.801   1.450  0.00  0.00    +0.143 A 
ATOM     33  O   UNL     1       0.696  -0.479   1.161  0.00  0.00    -0.478 OA
ENDBRANCH  21  26
ENDBRANCH   1  21
TORSDOF 4
