REMARK  Name = ZINC44492870
REMARK  6 active torsions:
REMARK  status: ('A' for Active; 'I' for Inactive)
REMARK    1  A    between atoms: C_1  and  O_2
REMARK    2  A    between atoms: O_2  and  C_3
REMARK    3  A    between atoms: C_6  and  S_10
REMARK    4  A    between atoms: S_10  and  N_13
REMARK    5  A    between atoms: N_13  and  C_14
REMARK    6  A    between atoms: C_14  and  C_15
REMARK                            x       y       z     vdW  Elec       q    Type
REMARK                         _______ _______ _______ _____ _____    ______ ____
ROOT
ATOM      1  S   UNL     1       2.704  -2.665   4.507  0.00  0.00    +0.058 S 
ATOM      2  O   UNL     1       3.099  -3.949   4.043  0.00  0.00    -0.153 OA
ATOM      3  O   UNL     1       3.633  -1.727   5.034  0.00  0.00    -0.153 OA
ENDROOT
BRANCH   1   7
ATOM      4  C   UNL     1       0.626  -0.619   1.042  0.00  0.00    +0.138 A 
ATOM      5  C   UNL     1       1.202   0.138   2.051  0.00  0.00    +0.049 A 
ATOM      6  C   UNL     1       1.835  -0.489   3.107  0.00  0.00    +0.032 A 
ATOM      7  C   UNL     1       1.896  -1.869   3.159  0.00  0.00    +0.107 A 
ATOM      8  C   UNL     1       1.323  -2.626   2.154  0.00  0.00    +0.052 A 
ATOM      9  C   UNL     1       0.682  -2.004   1.098  0.00  0.00    +0.084 A 
ATOM     10 CL   UNL     1      -0.043  -2.955  -0.160  0.00  0.00    -0.080 Cl
BRANCH   4  12
ATOM     11  C   UNL     1      -0.017   1.425   0.010  0.00  0.00    +0.277 C 
ATOM     12  O   UNL     1       0.002  -0.004   0.002  0.00  0.00    -0.494 OA
ENDBRANCH   4  12
ENDBRANCH   1   7
BRANCH   1  13
ATOM     13  N   UNL     1       1.565  -2.915   5.682  0.00  0.00    -0.192 NA
ATOM     14  H   UNL     1       1.641  -2.461   6.536  0.00  0.00    +0.148 HD
BRANCH  13  15
ATOM     15  C   UNL     1       0.443  -3.824   5.433  0.00  0.00    +0.090 C 
BRANCH  15  16
ATOM     16  C   UNL     1      -0.237  -4.170   6.759  0.00  0.00    -0.056 C 
ATOM     17  C   UNL     1      -1.481  -5.018   6.487  0.00  0.00    -0.015 C 
ATOM     18  C   UNL     1      -2.159  -5.362   7.817  0.00  0.00    -0.003 C 
ATOM     19  C   UNL     1      -2.491  -4.064   8.559  0.00  0.00    -0.019 C 
ATOM     20  C   UNL     1      -1.210  -3.251   8.754  0.00  0.00    -0.082 C 
ATOM     21  N   UNL     1      -0.625  -2.932   7.446  0.00  0.00    +0.382 N 
ATOM     22  H   UNL     1       0.189  -2.351   7.576  0.00  0.00    -0.085 HD
ATOM     23  H   UNL     1      -1.304  -2.437   6.887  0.00  0.00    -0.085 HD
ENDBRANCH  15  16
ENDBRANCH  13  15
ENDBRANCH   1  13
TORSDOF 5
