REMARK  Name = ZINC61406107
REMARK  7 active torsions:
REMARK  status: ('A' for Active; 'I' for Inactive)
REMARK    1  A    between atoms: C_1  and  C_2
REMARK    2  A    between atoms: C_2  and  C_3
REMARK    3  A    between atoms: C_3  and  C_5
REMARK    4  A    between atoms: C_3  and  N_22
REMARK    5  A    between atoms: C_5  and  C_7
REMARK    6  A    between atoms: C_5  and  S_12
REMARK    7  A    between atoms: S_12  and  C_13
REMARK                            x       y       z     vdW  Elec       q    Type
REMARK                         _______ _______ _______ _____ _____    ______ ____
ROOT
ATOM      1  C   UNL     1       0.849  -2.021  -1.205  0.00  0.00    +0.106 C 
ENDROOT
BRANCH   1   2
ATOM      2  C   UNL     1       1.645  -2.416   0.013  0.00  0.00    +0.117 A 
ATOM      3  C   UNL     1       1.212  -3.203   1.014  0.00  0.00    +0.046 A 
ATOM      4  C   UNL     1       2.274  -3.309   1.940  0.00  0.00    +0.041 A 
ATOM      5  C   UNL     1       3.293  -2.579   1.450  0.00  0.00    +0.195 A 
ATOM      6  O   UNL     1       2.908  -2.045   0.280  0.00  0.00    -0.467 OA
ENDBRANCH   1   2
BRANCH   1   7
ATOM      7  C   UNL     1       0.718  -0.497  -1.257  0.00  0.00    -0.054 C 
BRANCH   7   8
ATOM      8  N   UNL     1      -0.057  -0.113  -2.444  0.00  0.00    +0.381 N 
ATOM      9  H   UNL     1       0.415  -0.438  -3.274  0.00  0.00    -0.090 HD
ATOM     10  H   UNL     1      -0.975  -0.528  -2.395  0.00  0.00    -0.090 HD
ATOM     11  H   UNL     1      -0.143   0.892  -2.478  0.00  0.00    -0.090 HD
ENDBRANCH   7   8
BRANCH   7  13
ATOM     12  C   UNL     1      -0.019   1.526   0.010  0.00  0.00    +0.002 C 
ATOM     13  C   UNL     1       0.002  -0.004   0.002  0.00  0.00    -0.018 C 
ENDBRANCH   7  13
ENDBRANCH   1   7
BRANCH   1  14
ATOM     14  S   UNL     1       1.698  -2.606  -2.697  0.00  0.00    -0.076 S 
BRANCH  14  15
ATOM     15  C   UNL     1       1.639  -4.362  -2.561  0.00  0.00    +0.197 A 
ATOM     16  N   UNL     1       1.089  -5.049  -1.585  0.00  0.00    -0.122 NA
ATOM     17  N   UNL     1       1.223  -6.311  -1.797  0.00  0.00    -0.129 NA
ATOM     18  C   UNL     1       1.873  -6.505  -2.930  0.00  0.00    +0.162 A 
ATOM     19  N   UNL     1       2.151  -5.259  -3.451  0.00  0.00    -0.278 N 
ATOM     20  C   UNL     1       2.821  -5.139  -4.637  0.00  0.00    +0.095 A 
ATOM     21  C   UNL     1       3.214  -6.236  -5.314  0.00  0.00    +0.018 A 
ATOM     22  C   UNL     1       2.941  -7.521  -4.809  0.00  0.00    +0.005 A 
ATOM     23  C   UNL     1       2.284  -7.659  -3.627  0.00  0.00    +0.049 A 
ENDBRANCH  14  15
ENDBRANCH   1  14
TORSDOF 6
