REMARK  Name = ZINC00985583
REMARK  5 active torsions:
REMARK  status: ('A' for Active; 'I' for Inactive)
REMARK    1  A    between atoms: C_1  and  C_2
REMARK    2  A    between atoms: C_5  and  C_8
REMARK    3  A    between atoms: C_15  and  N_31
REMARK    4  A    between atoms: C_16  and  C_29
REMARK    5  A    between atoms: C_17  and  C_19
REMARK                            x       y       z     vdW  Elec       q    Type
REMARK                         _______ _______ _______ _____ _____    ______ ____
ROOT
ATOM      1  C   UNL     1      -0.102  -4.726   0.079  0.00  0.00    +0.100 A 
ATOM      2  C   UNL     1       0.804  -5.327   0.958  0.00  0.00    +0.054 A 
ATOM      3  C   UNL     1       0.736  -6.678   0.777  0.00  0.00    +0.223 A 
ATOM      4  N   UNL     1      -0.183  -6.918  -0.181  0.00  0.00    -0.246 N 
ATOM      5  H   UNL     1      -0.443  -7.790  -0.516  0.00  0.00    +0.192 HD
ATOM      6  N   UNL     1      -0.701  -5.684  -0.604  0.00  0.00    -0.171 NA
ATOM      7  O   UNL     1       1.499  -7.550   1.482  0.00  0.00    -0.423 OA
ATOM      8  C   UNL     1       2.535  -7.048   2.184  0.00  0.00    +0.200 C 
ATOM      9  C   UNL     1       2.704  -5.732   2.439  0.00  0.00    +0.098 C 
ATOM     10  C   UNL     1       1.730  -4.685   1.959  0.00  0.00    +0.102 C 
ENDROOT
BRANCH  10  11
ATOM     11  C   UNL     1       0.932  -4.160   3.125  0.00  0.00    -0.027 A 
ATOM     12  C   UNL     1       0.082  -4.982   3.798  0.00  0.00    +0.005 A 
ATOM     13  C   UNL     1      -0.664  -4.515   4.878  0.00  0.00    +0.001 A 
ATOM     14  C   UNL     1      -0.565  -3.221   5.291  0.00  0.00    +0.008 A 
ATOM     15  C   UNL     1       0.302  -2.342   4.621  0.00  0.00    -0.018 A 
ATOM     16  C   UNL     1       1.066  -2.820   3.526  0.00  0.00    -0.014 A 
ATOM     17  C   UNL     1       1.937  -1.942   2.859  0.00  0.00    +0.009 A 
ATOM     18  C   UNL     1       2.041  -0.650   3.276  0.00  0.00    +0.001 A 
ATOM     19  C   UNL     1       1.295  -0.183   4.356  0.00  0.00    +0.001 A 
ATOM     20  C   UNL     1       0.431  -1.000   5.018  0.00  0.00    +0.008 A 
ENDBRANCH  10  11
BRANCH   1  25
ATOM     21  C   UNL     1      -1.070   0.927  -0.450  0.00  0.00    +0.044 C 
ATOM     22  C   UNL     1      -0.817  -0.552  -0.311  0.00  0.00    -0.050 A 
ATOM     23  C   UNL     1      -1.881  -1.436  -0.301  0.00  0.00    +0.004 A 
ATOM     24  C   UNL     1      -1.655  -2.791  -0.175  0.00  0.00    +0.010 A 
ATOM     25  C   UNL     1      -0.351  -3.269  -0.058  0.00  0.00    +0.003 A 
ATOM     26  C   UNL     1       0.717  -2.375  -0.068  0.00  0.00    +0.010 A 
ATOM     27  C   UNL     1       0.479  -1.022  -0.200  0.00  0.00    +0.004 A 
ENDBRANCH   1  25
BRANCH   8  28
ATOM     28  N   UNL     1       3.474  -7.926   2.667  0.00  0.00    -0.328 N 
ATOM     29  H   UNL     1       3.381  -8.877   2.500  0.00  0.00    +0.145 HD
ATOM     30  H   UNL     1       4.231  -7.595   3.175  0.00  0.00    +0.145 HD
ENDBRANCH   8  28
BRANCH   9  31
ATOM     31  C   UNL     1       3.848  -5.316   3.192  0.00  0.00    +0.101 C 
ATOM     32  N   UNL     1       4.756  -4.986   3.790  0.00  0.00    -0.191 NA
ENDBRANCH   9  31
TORSDOF 4
