REMARK  Name = ZINC48636504
REMARK  8 active torsions:
REMARK  status: ('A' for Active; 'I' for Inactive)
REMARK    1  A    between atoms: C_1  and  C_2
REMARK    2  A    between atoms: C_6  and  C_20
REMARK    3  A    between atoms: C_8  and  O_11
REMARK    4  A    between atoms: O_11  and  C_12
REMARK    5  A    between atoms: C_12  and  C_14
REMARK    6  A    between atoms: C_14  and  N_19
REMARK    7  A    between atoms: C_20  and  C_21
REMARK    8  A    between atoms: C_20  and  C_22
REMARK                            x       y       z     vdW  Elec       q    Type
REMARK                         _______ _______ _______ _____ _____    ______ ____
ROOT
ATOM      1  O   UNL     1       0.224   1.414   2.497  0.00  0.00    -0.462 OA
ENDROOT
BRANCH   1   7
ATOM      2  C   UNL     1      -0.019   1.526   0.010  0.00  0.00    +0.007 C 
ATOM      3  C   UNL     1       0.002  -0.004   0.002  0.00  0.00    -0.011 C 
ATOM      4  C   UNL     1      -1.427  -0.534   0.139  0.00  0.00    +0.004 C 
ATOM      5  C   UNL     1      -2.031  -0.040   1.454  0.00  0.00    +0.007 C 
ATOM      6  C   UNL     1      -1.185  -0.545   2.625  0.00  0.00    +0.032 C 
ATOM      7  C   UNL     1       0.244  -0.015   2.489  0.00  0.00    +0.180 C 
ATOM      8  C   UNL     1       0.848  -0.509   1.173  0.00  0.00    +0.048 C 
BRANCH   6   9
ATOM      9  C   UNL     1      -1.789  -0.050   3.941  0.00  0.00    -0.011 C 
ATOM     10  C   UNL     1      -3.218  -0.580   4.078  0.00  0.00    +0.007 C 
ATOM     11  C   UNL     1      -0.944  -0.555   5.112  0.00  0.00    +0.007 C 
ENDBRANCH   6   9
ENDBRANCH   1   7
BRANCH   1  12
ATOM     12  C   UNL     1       1.304   2.036   2.995  0.00  0.00    +0.296 C 
ATOM     13  O   UNL     1       2.236   1.388   3.411  0.00  0.00    -0.252 OA
BRANCH  12  14
ATOM     14  C   UNL     1       1.356   3.541   3.036  0.00  0.00    +0.028 C 
ATOM     15  C   UNL     1       1.923   4.087   1.710  0.00  0.00    -0.002 C 
ATOM     16  C   UNL     1       2.784   5.302   2.136  0.00  0.00    -0.001 C 
ATOM     17  C   UNL     1       3.429   4.818   3.458  0.00  0.00    -0.001 C 
ATOM     18  C   UNL     1       2.313   4.006   4.148  0.00  0.00    -0.002 C 
BRANCH  14  19
ATOM     19  N   UNL     1       0.011   4.084   3.270  0.00  0.00    +0.389 N 
ATOM     20  H   UNL     1      -0.337   3.749   4.156  0.00  0.00    -0.088 HD
ATOM     21  H   UNL     1       0.053   5.092   3.285  0.00  0.00    -0.088 HD
ATOM     22  H   UNL     1      -0.606   3.784   2.531  0.00  0.00    -0.088 HD
ENDBRANCH  14  19
ENDBRANCH  12  14
ENDBRANCH   1  12
TORSDOF 5
