REMARK  Name = ZINC55678788
REMARK  5 active torsions:
REMARK  status: ('A' for Active; 'I' for Inactive)
REMARK    1  A    between atoms: C_4  and  S_8
REMARK    2  A    between atoms: S_8  and  N_11
REMARK    3  A    between atoms: N_11  and  C_12
REMARK    4  A    between atoms: C_16  and  S_18
REMARK    5  A    between atoms: S_18  and  N_21
REMARK                            x       y       z     vdW  Elec       q    Type
REMARK                         _______ _______ _______ _____ _____    ______ ____
ROOT
ATOM      1  C   UNL     1       5.571  -1.745   1.828  0.00  0.00    +0.079 A 
ATOM      2  C   UNL     1       6.388  -2.196   0.799  0.00  0.00    +0.065 A 
ATOM      3  C   UNL     1       7.568  -2.855   1.094  0.00  0.00    +0.127 A 
ATOM      4  C   UNL     1       7.934  -3.065   2.414  0.00  0.00    +0.067 A 
ATOM      5  C   UNL     1       7.121  -2.617   3.438  0.00  0.00    +0.110 A 
ATOM      6  C   UNL     1       5.944  -1.953   3.150  0.00  0.00    +0.055 A 
ATOM      7  F   UNL     1       8.364  -3.294   0.095  0.00  0.00    -0.205 F 
ENDROOT
BRANCH   5   8
ATOM      8  S   UNL     1       7.590  -2.888   5.115  0.00  0.00    +0.056 S 
ATOM      9  O   UNL     1       6.394  -2.856   5.882  0.00  0.00    -0.153 OA
ATOM     10  O   UNL     1       8.466  -4.007   5.116  0.00  0.00    -0.153 OA
BRANCH   8  11
ATOM     11  N   UNL     1       8.491  -1.581   5.589  0.00  0.00    -0.204 NA
ATOM     12  H   UNL     1       8.486  -1.299   6.517  0.00  0.00    +0.144 HD
ATOM     13  H   UNL     1       9.024  -1.098   4.938  0.00  0.00    +0.144 HD
ENDBRANCH   8  11
ENDBRANCH   5   8
BRANCH   1  14
ATOM     14  N   UNL     1       4.379  -1.079   1.535  0.00  0.00    -0.098 NA
BRANCH  14  15
ATOM     15  S   UNL     1       3.936  -0.832  -0.042  0.00  0.00    +0.094 S 
ATOM     16  O   UNL     1       3.677  -2.114  -0.597  0.00  0.00    -0.148 OA
ATOM     17  O   UNL     1       4.892   0.060  -0.597  0.00  0.00    -0.148 OA
BRANCH  15  21
ATOM     18  C   UNL     1      -0.017   1.378   0.010  0.00  0.00    +0.003 A 
ATOM     19  C   UNL     1       1.171   2.086   0.002  0.00  0.00    +0.022 A 
ATOM     20  C   UNL     1       2.378   1.411  -0.013  0.00  0.00    +0.069 A 
ATOM     21  C   UNL     1       2.398   0.028  -0.021  0.00  0.00    +0.147 A 
ATOM     22  C   UNL     1       1.209  -0.680  -0.013  0.00  0.00    +0.069 A 
ATOM     23  C   UNL     1       0.002  -0.004   0.002  0.00  0.00    +0.022 A 
ATOM     24 CL   UNL     1       1.233  -2.416  -0.023  0.00  0.00    -0.081 Cl
ATOM     25 CL   UNL     1       3.869   2.300  -0.024  0.00  0.00    -0.081 Cl
ENDBRANCH  15  21
ENDBRANCH  14  15
ENDBRANCH   1  14
TORSDOF 5
