REMARK  Name = ZINC37748278
REMARK  8 active torsions:
REMARK  status: ('A' for Active; 'I' for Inactive)
REMARK    1  A    between atoms: C_1  and  C_2
REMARK    2  A    between atoms: C_2  and  C_4
REMARK    3  A    between atoms: C_2  and  N_12
REMARK    4  A    between atoms: C_6  and  O_11
REMARK    5  A    between atoms: C_9  and  O_10
REMARK    6  A    between atoms: N_12  and  C_13
REMARK    7  A    between atoms: C_13  and  C_14
REMARK    8  A    between atoms: C_17  and  C_20
REMARK                            x       y       z     vdW  Elec       q    Type
REMARK                         _______ _______ _______ _____ _____    ______ ____
ROOT
ATOM      1  C   UNL     1      -0.019   1.526   0.010  0.00  0.00    -0.009 C 
ATOM      2  C   UNL     1       0.002  -0.004   0.002  0.00  0.00    -0.040 C 
ENDROOT
BRANCH   2   3
ATOM      3  C   UNL     1       0.707  -0.490  -1.238  0.00  0.00    -0.017 A 
ATOM      4  C   UNL     1      -0.022  -0.817  -2.365  0.00  0.00    +0.051 A 
ATOM      5  C   UNL     1       0.627  -1.264  -3.506  0.00  0.00    +0.117 A 
ATOM      6  C   UNL     1       2.009  -1.382  -3.516  0.00  0.00    +0.049 A 
ATOM      7  C   UNL     1       2.738  -1.056  -2.390  0.00  0.00    +0.049 A 
ATOM      8  C   UNL     1       2.090  -0.604  -1.250  0.00  0.00    +0.119 A 
BRANCH   8   9
ATOM      9  O   UNL     1       2.808  -0.277  -0.143  0.00  0.00    -0.507 OA
ATOM     10  H   UNL     1       2.950  -1.014   0.466  0.00  0.00    +0.292 HD
ENDBRANCH   8   9
BRANCH   5  11
ATOM     11  O   UNL     1      -0.091  -1.586  -4.614  0.00  0.00    -0.507 OA
ATOM     12  H   UNL     1      -0.230  -0.846  -5.222  0.00  0.00    +0.292 HD
ENDBRANCH   5  11
ENDBRANCH   2   3
BRANCH   2  13
ATOM     13  N   UNL     1      -1.376  -0.512   0.012  0.00  0.00    +0.386 N 
ATOM     14  H   UNL     1      -1.888  -0.113  -0.760  0.00  0.00    -0.085 HD
ATOM     15  H   UNL     1      -1.364  -1.518  -0.076  0.00  0.00    -0.085 HD
BRANCH  13  16
ATOM     16  C   UNL     1      -2.026  -0.140   1.276  0.00  0.00    -0.046 C 
BRANCH  16  17
ATOM     17  C   UNL     1      -3.440  -0.661   1.287  0.00  0.00    -0.064 A 
ATOM     18  C   UNL     1      -4.466   0.121   0.788  0.00  0.00    +0.003 A 
ATOM     19  C   UNL     1      -5.763  -0.350   0.795  0.00  0.00    +0.019 A 
ATOM     20  C   UNL     1      -6.038  -1.620   1.306  0.00  0.00    +0.052 A 
ATOM     21  C   UNL     1      -4.997  -2.405   1.807  0.00  0.00    +0.019 A 
ATOM     22  C   UNL     1      -3.705  -1.923   1.790  0.00  0.00    +0.003 A 
BRANCH  20  23
ATOM     23  C   UNL     1      -7.381  -2.115   1.317  0.00  0.00    +0.099 C 
ATOM     24  N   UNL     1      -8.447  -2.509   1.325  0.00  0.00    -0.191 NA
ENDBRANCH  20  23
ENDBRANCH  16  17
ENDBRANCH  13  16
ENDBRANCH   2  13
TORSDOF 7
