REMARK  Name = ZINC49905499
REMARK  8 active torsions:
REMARK  status: ('A' for Active; 'I' for Inactive)
REMARK    1  A    between atoms: C_1  and  C_2
REMARK    2  A    between atoms: C_4  and  C_10
REMARK    3  A    between atoms: C_7  and  O_8
REMARK    4  A    between atoms: O_8  and  C_9
REMARK    5  A    between atoms: C_10  and  C_12
REMARK    6  A    between atoms: C_10  and  O_22
REMARK    7  A    between atoms: C_12  and  N_13
REMARK    8  A    between atoms: N_13  and  C_14
REMARK                            x       y       z     vdW  Elec       q    Type
REMARK                         _______ _______ _______ _____ _____    ______ ____
ROOT
ATOM      1  C   UNL     1       0.027  -2.816  -2.517  0.00  0.00    +0.128 C 
ENDROOT
BRANCH   1   5
ATOM      2  C   UNL     1      -0.018   1.503   0.010  0.00  0.00    +0.047 C 
ATOM      3  C   UNL     1       0.002  -0.004   0.002  0.00  0.00    -0.008 A 
ATOM      4  C   UNL     1       0.006  -0.689  -1.198  0.00  0.00    +0.013 A 
ATOM      5  C   UNL     1       0.024  -2.071  -1.206  0.00  0.00    -0.020 A 
ATOM      6  C   UNL     1       0.039  -2.772  -0.014  0.00  0.00    +0.009 A 
ATOM      7  C   UNL     1       0.036  -2.092   1.188  0.00  0.00    +0.046 A 
ATOM      8  C   UNL     1       0.023  -0.705   1.199  0.00  0.00    +0.123 A 
BRANCH   8   9
ATOM      9  O   UNL     1       0.025  -0.033   2.381  0.00  0.00    -0.495 OA
ATOM     10  C   UNL     1       0.048  -0.820   3.574  0.00  0.00    +0.277 C 
ENDBRANCH   8   9
ENDBRANCH   1   5
BRANCH   1  11
ATOM     11  O   UNL     1      -0.824  -3.960  -2.416  0.00  0.00    -0.389 OA
ATOM     12  H   UNL     1      -0.558  -4.588  -1.731  0.00  0.00    +0.210 HD
ENDBRANCH   1  11
BRANCH   1  13
ATOM     13  C   UNL     1       1.452  -3.267  -2.844  0.00  0.00    -0.046 C 
BRANCH  13  14
ATOM     14  N   UNL     1       1.476  -3.886  -4.175  0.00  0.00    +0.384 N 
ATOM     15  H   UNL     1       0.860  -4.685  -4.186  0.00  0.00    -0.085 HD
ATOM     16  H   UNL     1       1.169  -3.216  -4.864  0.00  0.00    -0.085 HD
BRANCH  14  17
ATOM     17  C   UNL     1       2.844  -4.319  -4.489  0.00  0.00    -0.049 C 
ATOM     18  C   UNL     1       3.259  -5.440  -3.522  0.00  0.00    +0.008 C 
ATOM     19  C   UNL     1       4.565  -6.089  -4.065  0.00  0.00    +0.164 C 
ATOM     20  S   UNL     1       4.192  -6.138  -5.869  0.00  0.00    -0.033 S 
ATOM     21  O   UNL     1       3.605  -7.392  -6.186  0.00  0.00    -0.174 OA
ATOM     22  O   UNL     1       5.336  -5.700  -6.589  0.00  0.00    -0.174 OA
ATOM     23  C   UNL     1       2.897  -4.835  -5.948  0.00  0.00    +0.150 C 
ENDBRANCH  14  17
ENDBRANCH  13  14
ENDBRANCH   1  13
TORSDOF 6
