REMARK  Name = ZINC44483768
REMARK  7 active torsions:
REMARK  status: ('A' for Active; 'I' for Inactive)
REMARK    1  A    between atoms: C_3  and  C_9
REMARK    2  A    between atoms: C_4  and  O_8
REMARK    3  A    between atoms: N_11  and  C_12
REMARK    4  A    between atoms: C_12  and  C_13
REMARK    5  A    between atoms: C_13  and  C_14
REMARK    6  A    between atoms: C_14  and  C_15
REMARK    7  A    between atoms: C_15  and  N_16
REMARK                            x       y       z     vdW  Elec       q    Type
REMARK                         _______ _______ _______ _____ _____    ______ ____
ROOT
ATOM      1  C   UNL     1       3.652   2.171  -0.022  0.00  0.00    +0.248 C 
ATOM      2  O   UNL     1       4.713   1.578  -0.035  0.00  0.00    -0.270 OA
ATOM      3  N   UNL     1       3.633   3.518  -0.015  0.00  0.00    -0.311 N 
ATOM      4  H   UNL     1       2.786   3.992  -0.004  0.00  0.00    +0.149 HD
ENDROOT
BRANCH   1   7
ATOM      5  C   UNL     1      -0.017   1.382   0.010  0.00  0.00    +0.016 A 
ATOM      6  C   UNL     1       1.163   2.093   0.002  0.00  0.00    +0.018 A 
ATOM      7  C   UNL     1       2.385   1.415  -0.013  0.00  0.00    +0.078 A 
ATOM      8  C   UNL     1       2.400   0.014  -0.021  0.00  0.00    +0.130 A 
ATOM      9  C   UNL     1       1.204  -0.686  -0.013  0.00  0.00    +0.061 A 
ATOM     10  C   UNL     1       0.002  -0.004   0.002  0.00  0.00    +0.021 A 
ATOM     11 BR   UNL     1      -1.626  -0.967   0.012  0.00  0.00    -0.050 Br
BRANCH   8  12
ATOM     12  O   UNL     1       3.581  -0.655  -0.036  0.00  0.00    -0.506 OA
ATOM     13  H   UNL     1       3.932  -0.853   0.843  0.00  0.00    +0.292 HD
ENDBRANCH   8  12
ENDBRANCH   1   7
BRANCH   3  14
ATOM     14  C   UNL     1       4.891   4.269  -0.023  0.00  0.00    +0.104 C 
BRANCH  14  15
ATOM     15  C   UNL     1       4.590   5.769  -0.013  0.00  0.00    +0.017 C 
BRANCH  15  16
ATOM     16  C   UNL     1       5.905   6.553  -0.022  0.00  0.00    -0.018 C 
BRANCH  16  17
ATOM     17  C   UNL     1       5.604   8.053  -0.011  0.00  0.00    -0.086 C 
BRANCH  17  18
ATOM     18  N   UNL     1       6.866   8.805  -0.020  0.00  0.00    +0.378 N 
ATOM     19  H   UNL     1       7.406   8.565   0.798  0.00  0.00    -0.090 HD
ATOM     20  H   UNL     1       7.390   8.573  -0.850  0.00  0.00    -0.090 HD
ATOM     21  H   UNL     1       6.668   9.794  -0.013  0.00  0.00    -0.090 HD
ENDBRANCH  17  18
ENDBRANCH  16  17
ENDBRANCH  15  16
ENDBRANCH  14  15
ENDBRANCH   3  14
TORSDOF 7
