REMARK  Name = ZINC22589117
REMARK  13 active torsions:
REMARK  status: ('A' for Active; 'I' for Inactive)
REMARK    1  A    between atoms: C_1  and  N_2
REMARK    2  A    between atoms: N_5  and  C_8
REMARK    3  A    between atoms: C_8  and  C_10
REMARK    4  A    between atoms: C_8  and  C_24
REMARK    5  A    between atoms: C_10  and  N_11
REMARK    6  A    between atoms: C_12  and  C_14
REMARK    7  A    between atoms: C_15  and  O_22
REMARK    8  A    between atoms: C_19  and  O_20
REMARK    9  A    between atoms: O_20  and  C_21
REMARK   10  A    between atoms: O_22  and  C_23
REMARK   11  A    between atoms: C_27  and  N_30
REMARK   12  A    between atoms: N_30  and  C_31
REMARK   13  A    between atoms: N_30  and  C_32
REMARK                            x       y       z     vdW  Elec       q    Type
REMARK                         _______ _______ _______ _____ _____    ______ ____
ROOT
ATOM      1  C   UNL     1       0.013   0.044  -0.031  0.00  0.00    +0.104 C 
ENDROOT
BRANCH   1   6
ATOM      2  C   UNL     1      -3.579  -2.042  -3.859  0.00  0.00    -0.096 C 
ATOM      3  N   UNL     1      -2.434  -1.678  -3.013  0.00  0.00    +0.379 N 
ATOM      4  C   UNL     1      -2.150  -0.239  -3.102  0.00  0.00    -0.064 C 
ATOM      5  C   UNL     1      -0.906   0.085  -2.271  0.00  0.00    +0.066 C 
ATOM      6  N   UNL     1      -1.132  -0.320  -0.877  0.00  0.00    -0.297 NA
ATOM      7  C   UNL     1      -1.416  -1.759  -0.788  0.00  0.00    +0.066 C 
ATOM      8  C   UNL     1      -2.660  -2.083  -1.618  0.00  0.00    -0.064 C 
ATOM      9  H   UNL     1      -1.554  -2.222  -3.386  0.00  0.00    -0.082 HD
ENDBRANCH   1   6
BRANCH   1  10
ATOM     10  C   UNL     1       0.231   1.534  -0.095  0.00  0.00    -0.029 A 
ATOM     11  C   UNL     1      -0.855   2.390  -0.104  0.00  0.00    +0.007 A 
ATOM     12  C   UNL     1      -0.658   3.756  -0.156  0.00  0.00    +0.023 A 
ATOM     13  C   UNL     1       0.632   4.269  -0.212  0.00  0.00    +0.029 A 
ATOM     14  C   UNL     1       1.720   3.406  -0.208  0.00  0.00    +0.023 A 
ATOM     15  C   UNL     1       1.516   2.041  -0.150  0.00  0.00    +0.007 A 
BRANCH  13  16
ATOM     16  N   UNL     1       0.834   5.650  -0.271  0.00  0.00    -0.336 N 
ATOM     17  C   UNL     1       2.195   6.189  -0.330  0.00  0.00    +0.129 C 
ATOM     18  C   UNL     1      -0.315   6.559  -0.275  0.00  0.00    +0.129 C 
ENDBRANCH  13  16
ENDBRANCH   1  10
BRANCH   1  19
ATOM     19  C   UNL     1      -0.270  -0.369   1.415  0.00  0.00    +0.128 C 
BRANCH  19  20
ATOM     20  N   UNL     1       0.902  -0.077   2.244  0.00  0.00    -0.309 N 
ATOM     21  C   UNL     1       0.913  -0.432   3.544  0.00  0.00    +0.251 C 
ATOM     22  O   UNL     1      -0.050  -0.994   4.029  0.00  0.00    -0.270 OA
ATOM     23  H   UNL     1       1.774   0.431   1.805  0.00  0.00    +0.149 HD
BRANCH  21  24
ATOM     24  C   UNL     1       2.091  -0.138   4.377  0.00  0.00    +0.120 A 
ATOM     25  C   UNL     1       2.182   1.078   5.069  0.00  0.00    +0.136 A 
ATOM     26  C   UNL     1       3.292   1.341   5.855  0.00  0.00    +0.046 A 
ATOM     27  C   UNL     1       4.314   0.415   5.949  0.00  0.00    +0.007 A 
ATOM     28  C   UNL     1       4.237  -0.785   5.267  0.00  0.00    +0.046 A 
ATOM     29  C   UNL     1       3.133  -1.071   4.480  0.00  0.00    +0.136 A 
BRANCH  29  30
ATOM     30  O   UNL     1       3.061  -2.250   3.812  0.00  0.00    -0.494 OA
ATOM     31  C   UNL     1       4.159  -3.151   3.965  0.00  0.00    +0.277 C 
ENDBRANCH  29  30
BRANCH  25  32
ATOM     32  O   UNL     1       1.183   1.992   4.973  0.00  0.00    -0.494 OA
ATOM     33  C   UNL     1       1.345   3.208   5.706  0.00  0.00    +0.277 C 
ENDBRANCH  25  32
ENDBRANCH  21  24
ENDBRANCH  19  20
ENDBRANCH   1  19
TORSDOF 8
