REMARK  Name = ZINC35421738
REMARK  7 active torsions:
REMARK  status: ('A' for Active; 'I' for Inactive)
REMARK    1  A    between atoms: C_1  and  C_2
REMARK    2  A    between atoms: C_4  and  C_36
REMARK    3  A    between atoms: C_12  and  C_29
REMARK    4  A    between atoms: C_14  and  C_19
REMARK    5  A    between atoms: C_19  and  C_21
REMARK    6  A    between atoms: C_22  and  C_23
REMARK    7  A    between atoms: C_32  and  O_35
REMARK                            x       y       z     vdW  Elec       q    Type
REMARK                         _______ _______ _______ _____ _____    ______ ____
ROOT
ATOM      1  C   UNL     1      -0.018   1.503   0.010  0.00  0.00    +0.044 C 
ATOM      2  C   UNL     1       0.002  -0.004   0.002  0.00  0.00    -0.049 A 
ATOM      3  C   UNL     1       0.006  -0.698  -1.199  0.00  0.00    +0.009 A 
ATOM      4  C   UNL     1       0.025  -2.068  -1.235  0.00  0.00    -0.024 A 
ATOM      5  C   UNL     1       0.041  -2.822  -0.038  0.00  0.00    +0.083 A 
ATOM      6  C   UNL     1       0.036  -2.081   1.166  0.00  0.00    +0.041 A 
ATOM      7  C   UNL     1       0.023  -0.709   1.192  0.00  0.00    +0.020 A 
ATOM      8  S   UNL     1       0.060  -3.361   2.397  0.00  0.00    -0.052 S 
ATOM      9  C   UNL     1       0.074  -4.752   1.275  0.00  0.00    +0.169 A 
ATOM     10  N   UNL     1       0.060  -4.165   0.101  0.00  0.00    -0.224 NA
ATOM     11  N   UNL     1       0.094  -6.104   1.569  0.00  0.00    -0.232 N 
ATOM     12  C   UNL     1       0.103  -6.697   2.912  0.00  0.00    +0.152 C 
ATOM     13  C   UNL     1       0.126  -8.194   2.710  0.00  0.00    +0.076 C 
ATOM     14  C   UNL     1       0.130  -8.408   1.374  0.00  0.00    +0.250 C 
ATOM     15  C   UNL     1       0.104  -7.109   0.674  0.00  0.00    +0.293 C 
ATOM     16  O   UNL     1       0.096  -6.968  -0.533  0.00  0.00    -0.266 OA
ATOM     17  O   UNL     1       0.149  -9.621   0.774  0.00  0.00    -0.282 OA
ATOM     18  C   UNL     1       0.028  -2.779  -2.564  0.00  0.00    +0.046 C 
ENDROOT
BRANCH  12  19
ATOM     19  C   UNL     1       1.331  -6.255   3.665  0.00  0.00    -0.022 A 
ATOM     20  C   UNL     1       2.546  -6.163   3.011  0.00  0.00    +0.009 A 
ATOM     21  C   UNL     1       3.674  -5.758   3.700  0.00  0.00    +0.046 A 
ATOM     22  C   UNL     1       3.586  -5.444   5.048  0.00  0.00    +0.117 A 
ATOM     23  C   UNL     1       2.366  -5.536   5.702  0.00  0.00    +0.046 A 
ATOM     24  C   UNL     1       1.240  -5.936   5.007  0.00  0.00    +0.009 A 
BRANCH  22  25
ATOM     25  O   UNL     1       4.694  -5.046   5.728  0.00  0.00    -0.507 OA
ATOM     26  H   UNL     1       4.840  -4.090   5.717  0.00  0.00    +0.292 HD
ENDBRANCH  22  25
ENDBRANCH  12  19
BRANCH  13  27
ATOM     27  C   UNL     1       0.142  -9.218   3.761  0.00  0.00    +0.188 C 
ATOM     28  O   UNL     1       0.160 -10.399   3.461  0.00  0.00    -0.287 OA
BRANCH  27  29
ATOM     29  C   UNL     1       0.136  -8.822   5.170  0.00  0.00    +0.052 C 
ATOM     30  C   UNL     1       0.151  -9.764   6.137  0.00  0.00    +0.011 C 
BRANCH  30  31
ATOM     31  C   UNL     1       0.145  -9.366   7.553  0.00  0.00    -0.025 A 
ATOM     32  C   UNL     1       0.119  -8.011   7.902  0.00  0.00    +0.008 A 
ATOM     33  C   UNL     1       0.113  -7.646   9.232  0.00  0.00    +0.001 A 
ATOM     34  C   UNL     1       0.135  -8.615  10.220  0.00  0.00    +0.000 A 
ATOM     35  C   UNL     1       0.161  -9.957   9.883  0.00  0.00    +0.001 A 
ATOM     36  C   UNL     1       0.160 -10.339   8.558  0.00  0.00    +0.008 A 
ENDBRANCH  30  31
ENDBRANCH  27  29
ENDBRANCH  13  27
TORSDOF 5
