REMARK  Name = ZINC39217401
REMARK  4 active torsions:
REMARK  status: ('A' for Active; 'I' for Inactive)
REMARK    1  A    between atoms: C_1  and  C_2
REMARK    2  A    between atoms: N_4  and  C_22
REMARK    3  A    between atoms: C_8  and  C_9
REMARK    4  A    between atoms: C_12  and  C_14
REMARK                            x       y       z     vdW  Elec       q    Type
REMARK                         _______ _______ _______ _____ _____    ______ ____
ROOT
ATOM      1  C   UNL     1      -0.018   1.503   0.010  0.00  0.00    +0.068 C 
ATOM      2  C   UNL     1       0.002  -0.004   0.002  0.00  0.00    +0.069 C 
ATOM      3  N   UNL     1       0.008  -0.765  -1.050  0.00  0.00    -0.178 NA
ATOM      4  N   UNL     1       0.028  -2.115  -0.699  0.00  0.00    -0.147 N 
ATOM      5  C   UNL     1       0.035  -2.243   0.643  0.00  0.00    +0.271 C 
ATOM      6  O   UNL     1       0.052  -3.282   1.281  0.00  0.00    -0.268 OA
ATOM      7  C   UNL     1       0.025  -0.877   1.181  0.00  0.00    +0.065 C 
ATOM      8  C   UNL     1       0.033  -0.493   2.522  0.00  0.00    +0.061 C 
ENDROOT
BRANCH   4   9
ATOM      9  C   UNL     1       0.039  -3.230  -1.649  0.00  0.00    +0.327 C 
ATOM     10  N   UNL     1      -1.139  -3.162  -2.554  0.00  0.00    -0.202 NA
ATOM     11  N   UNL     1      -0.542  -3.587  -3.826  0.00  0.00    -0.271 NA
ATOM     12  N   UNL     1       0.792  -3.312  -3.736  0.00  0.00    -0.088 NA
ATOM     13  N   UNL     1       1.177  -3.114  -2.576  0.00  0.00    -0.129 NA
ATOM     14  H   UNL     1      -1.859  -3.805  -2.260  0.00  0.00    +0.148 HD
ATOM     15  H   UNL     1      -0.683  -4.577  -3.962  0.00  0.00    +0.163 HD
ATOM     16  H   UNL     1      -0.951  -3.070  -4.590  0.00  0.00    +0.163 HD
ENDBRANCH   4   9
BRANCH   8  17
ATOM     17  C   UNL     1       0.055  -1.466   3.529  0.00  0.00    +0.129 A 
ATOM     18  C   UNL     1       0.059  -1.223   4.898  0.00  0.00    +0.050 A 
ATOM     19  C   UNL     1       0.084  -2.465   5.527  0.00  0.00    +0.050 A 
ATOM     20  C   UNL     1       0.094  -3.422   4.532  0.00  0.00    +0.137 A 
ATOM     21  O   UNL     1       0.071  -2.803   3.340  0.00  0.00    -0.455 OA
BRANCH  20  22
ATOM     22  C   UNL     1       0.119  -4.881   4.743  0.00  0.00    +0.037 A 
ATOM     23  C   UNL     1       1.056  -5.449   5.611  0.00  0.00    +0.033 A 
ATOM     24  C   UNL     1       1.075  -6.815   5.803  0.00  0.00    +0.042 A 
ATOM     25  C   UNL     1       0.167  -7.624   5.139  0.00  0.00    +0.021 A 
ATOM     26  C   UNL     1      -0.763  -7.070   4.278  0.00  0.00    +0.022 A 
ATOM     27  C   UNL     1      -0.797  -5.704   4.080  0.00  0.00    +0.052 A 
ATOM     28 CL   UNL     1      -1.971  -5.009   3.006  0.00  0.00    -0.083 Cl
ATOM     29 CL   UNL     1       2.238  -7.523   6.880  0.00  0.00    -0.084 Cl
ENDBRANCH  20  22
ENDBRANCH   8  17
TORSDOF 3
