REMARK  Name = ZINC01695742
REMARK  6 active torsions:
REMARK  status: ('A' for Active; 'I' for Inactive)
REMARK    1  A    between atoms: C_3  and  O_23
REMARK    2  A    between atoms: C_4  and  C_8
REMARK    3  A    between atoms: N_9  and  N_10
REMARK    4  A    between atoms: N_12  and  N_13
REMARK    5  A    between atoms: C_14  and  C_15
REMARK    6  A    between atoms: C_20  and  O_21
REMARK                            x       y       z     vdW  Elec       q    Type
REMARK                         _______ _______ _______ _____ _____    ______ ____
ROOT
ATOM      1  N   UNL     1       2.386   4.915   0.005  0.00  0.00    -0.247 N 
ATOM      2  C   UNL     1       3.301   5.943   0.002  0.00  0.00    +0.210 C 
ATOM      3  N   UNL     1       2.869   7.250   0.012  0.00  0.00    -0.247 N 
ATOM      4  H   UNL     1       1.436   5.111   0.015  0.00  0.00    +0.192 HD
ATOM      5  H   UNL     1       5.301   6.334  -0.015  0.00  0.00    +0.159 HD
ATOM      6  H   UNL     1       1.919   7.446   0.022  0.00  0.00    +0.192 HD
ATOM      7  N   UNL     1       4.584   5.608  -0.012  0.00  0.00    -0.369 N 
ATOM      8  H   UNL     1       4.856   4.618  -0.020  0.00  0.00    +0.159 HD
ENDROOT
BRANCH   1  10
ATOM      9  C   UNL     1       1.963   2.616  -0.003  0.00  0.00    +0.144 C 
ATOM     10  N   UNL     1       2.826   3.585  -0.006  0.00  0.00    -0.179 NA
BRANCH   9  14
ATOM     11  C   UNL     1       3.297  -1.417  -0.036  0.00  0.00    +0.023 A 
ATOM     12  C   UNL     1       4.222  -0.390  -0.040  0.00  0.00    +0.047 A 
ATOM     13  C   UNL     1       3.797   0.928  -0.029  0.00  0.00    +0.126 A 
ATOM     14  C   UNL     1       2.426   1.216  -0.014  0.00  0.00    +0.038 A 
ATOM     15  C   UNL     1       1.500   0.171  -0.011  0.00  0.00    +0.033 A 
ATOM     16  C   UNL     1       1.941  -1.138  -0.022  0.00  0.00    +0.042 A 
ATOM     17 CL   UNL     1       0.790  -2.438  -0.017  0.00  0.00    -0.084 Cl
BRANCH  13  18
ATOM     18  O   UNL     1       4.706   1.938  -0.032  0.00  0.00    -0.506 OA
ATOM     19  H   UNL     1       4.961   2.235  -0.916  0.00  0.00    +0.292 HD
ENDBRANCH  13  18
ENDBRANCH   9  14
ENDBRANCH   1  10
BRANCH   3  20
ATOM     20  N   UNL     1       3.800   8.296   0.009  0.00  0.00    -0.179 NA
ATOM     21  C   UNL     1       3.393   9.528   0.019  0.00  0.00    +0.144 C 
BRANCH  21  22
ATOM     22  C   UNL     1       4.373  10.629   0.015  0.00  0.00    +0.038 A 
ATOM     23  C   UNL     1       3.938  11.956   0.026  0.00  0.00    +0.033 A 
ATOM     24  C   UNL     1       4.862  12.982   0.022  0.00  0.00    +0.042 A 
ATOM     25  C   UNL     1       6.218  12.700   0.008  0.00  0.00    +0.023 A 
ATOM     26  C   UNL     1       6.659  11.390  -0.002  0.00  0.00    +0.047 A 
ATOM     27  C   UNL     1       5.746  10.350   0.007  0.00  0.00    +0.126 A 
ATOM     28 CL   UNL     1       4.321  14.632   0.035  0.00  0.00    -0.084 Cl
BRANCH  27  29
ATOM     29  O   UNL     1       6.180   9.062   0.002  0.00  0.00    -0.506 OA
ATOM     30  H   UNL     1       6.300   8.691  -0.882  0.00  0.00    +0.292 HD
ENDBRANCH  27  29
ENDBRANCH  21  22
ENDBRANCH   3  20
TORSDOF 6
