REMARK  Name = ZINC38081818
REMARK  6 active torsions:
REMARK  status: ('A' for Active; 'I' for Inactive)
REMARK    1  A    between atoms: C_1  and  C_2
REMARK    2  A    between atoms: C_5  and  N_18
REMARK    3  A    between atoms: C_7  and  O_8
REMARK    4  A    between atoms: O_8  and  C_9
REMARK    5  A    between atoms: C_14  and  C_15
REMARK    6  A    between atoms: C_15  and  N_16
REMARK                            x       y       z     vdW  Elec       q    Type
REMARK                         _______ _______ _______ _____ _____    ______ ____
ROOT
ATOM      1  C   UNL     1       0.054  -0.848   3.469  0.00  0.00    +0.130 A 
ATOM      2  C   UNL     1       0.136  -2.223   3.305  0.00  0.00    +0.049 A 
ATOM      3  C   UNL     1       0.165  -3.049   4.412  0.00  0.00    +0.042 A 
ATOM      4  C   UNL     1       0.112  -2.505   5.684  0.00  0.00    +0.124 A 
ATOM      5  C   UNL     1       0.031  -1.133   5.849  0.00  0.00    +0.043 A 
ATOM      6  C   UNL     1       0.008  -0.304   4.744  0.00  0.00    -0.020 A 
ATOM      7  F   UNL     1       0.140  -3.314   6.766  0.00  0.00    -0.205 F 
ENDROOT
BRANCH   1   8
ATOM      8  O   UNL     1       0.025  -0.034   2.381  0.00  0.00    -0.455 OA
BRANCH   8  15
ATOM      9  C   UNL     1      -0.084   1.826   0.256  0.00  0.00    +0.047 C 
ATOM     10  C   UNL     1       1.212   1.399   0.898  0.00  0.00    -0.008 A 
ATOM     11  C   UNL     1       2.409   1.926   0.454  0.00  0.00    +0.009 A 
ATOM     12  C   UNL     1       3.598   1.535   1.041  0.00  0.00    +0.033 A 
ATOM     13  C   UNL     1       3.592   0.617   2.075  0.00  0.00    +0.130 A 
ATOM     14  C   UNL     1       2.398   0.087   2.523  0.00  0.00    +0.079 A 
ATOM     15  C   UNL     1       1.202   0.482   1.938  0.00  0.00    +0.133 A 
BRANCH  13  16
ATOM     16  N   UNL     1       4.867   0.200   2.701  0.00  0.00    +0.057 N 
ATOM     17  O   UNL     1       5.912   0.663   2.309  0.00  0.00    -0.126 OA
ATOM     18  O   UNL     1       4.862  -0.603   3.605  0.00  0.00    -0.126 OA
ENDBRANCH  13  16
ENDBRANCH   8  15
ENDBRANCH   1   8
BRANCH   6  19
ATOM     19  C   UNL     1      -0.074   1.190   4.924  0.00  0.00    -0.047 C 
BRANCH  19  20
ATOM     20  N   UNL     1      -1.461   1.632   4.725  0.00  0.00    +0.381 N 
ATOM     21  H   UNL     1      -1.516   2.632   4.846  0.00  0.00    -0.090 HD
ATOM     22  H   UNL     1      -1.761   1.388   3.793  0.00  0.00    -0.090 HD
ATOM     23  H   UNL     1      -2.058   1.178   5.400  0.00  0.00    -0.090 HD
ENDBRANCH  19  20
ENDBRANCH   6  19
TORSDOF 5
