REMARK  Name = ZINC63122399
REMARK  8 active torsions:
REMARK  status: ('A' for Active; 'I' for Inactive)
REMARK    1  A    between atoms: C_1  and  C_2
REMARK    2  A    between atoms: C_2  and  C_9
REMARK    3  A    between atoms: C_9  and  S_10
REMARK    4  A    between atoms: S_10  and  C_11
REMARK    5  A    between atoms: C_16  and  C_17
REMARK    6  A    between atoms: N_19  and  C_20
REMARK    7  A    between atoms: C_20  and  C_21
REMARK    8  A    between atoms: C_21  and  C_22
REMARK                            x       y       z     vdW  Elec       q    Type
REMARK                         _______ _______ _______ _____ _____    ______ ____
ROOT
ATOM      1  C   UNL     1       1.328  -2.772  -2.841  0.00  0.00    +0.020 A 
ATOM      2  C   UNL     1       1.884  -1.787  -3.650  0.00  0.00    +0.015 A 
ATOM      3  C   UNL     1       2.510  -2.134  -4.829  0.00  0.00    +0.001 A 
ATOM      4  C   UNL     1       2.592  -3.463  -5.216  0.00  0.00    +0.001 A 
ATOM      5  C   UNL     1       2.048  -4.453  -4.427  0.00  0.00    +0.014 A 
ATOM      6  C   UNL     1       1.415  -4.119  -3.227  0.00  0.00    +0.050 A 
ENDROOT
BRANCH   6   7
ATOM      7  C   UNL     1       0.836  -5.174  -2.376  0.00  0.00    +0.245 C 
ATOM      8  O   UNL     1       0.281  -4.878  -1.335  0.00  0.00    -0.270 OA
ATOM      9  N   UNL     1       0.922  -6.465  -2.751  0.00  0.00    -0.311 N 
ATOM     10  H   UNL     1       1.364  -6.701  -3.581  0.00  0.00    +0.149 HD
BRANCH   9  11
ATOM     11  C   UNL     1       0.346  -7.514  -1.905  0.00  0.00    +0.109 C 
BRANCH  11  12
ATOM     12  C   UNL     1       0.579  -8.879  -2.555  0.00  0.00    +0.052 C 
BRANCH  12  13
ATOM     13  C   UNL     1      -0.013  -9.957  -1.685  0.00  0.00    -0.040 C 
ATOM     14  C   UNL     1      -1.238 -10.518  -1.805  0.00  0.00    -0.001 A 
ATOM     15  C   UNL     1      -2.344 -10.299  -2.744  0.00  0.00    +0.010 A 
ATOM     16  C   UNL     1      -3.474 -11.030  -2.609  0.00  0.00    +0.001 A 
ATOM     17  C   UNL     1      -3.616 -11.988  -1.596  0.00  0.00    +0.002 A 
ATOM     18  C   UNL     1      -2.644 -12.245  -0.695  0.00  0.00    +0.026 A 
ATOM     19  C   UNL     1      -1.412 -11.536  -0.744  0.00  0.00    +0.043 A 
ATOM     20  N   UNL     1      -0.337 -11.602   0.003  0.00  0.00    -0.380 N 
ATOM     21  C   UNL     1       0.645 -10.636  -0.504  0.00  0.00    +0.144 C 
ATOM     22  H   UNL     1      -0.210 -12.193   0.761  0.00  0.00    +0.160 HD
ENDBRANCH  12  13
ENDBRANCH  11  12
ENDBRANCH   9  11
ENDBRANCH   6   7
BRANCH   1  23
ATOM     23  S   UNL     1       0.526  -2.332  -1.334  0.00  0.00    -0.122 S 
BRANCH  23  24
ATOM     24  C   UNL     1       0.667  -0.525  -1.274  0.00  0.00    +0.109 C 
BRANCH  24  26
ATOM     25  C   UNL     1      -0.019   1.526   0.010  0.00  0.00    +0.042 C 
ATOM     26  C   UNL     1       0.002  -0.004   0.002  0.00  0.00    +0.119 C 
ATOM     27  C   UNL     1      -1.403  -0.557   0.139  0.00  0.00    +0.244 C 
ATOM     28  O   UNL     1      -2.332  -0.392  -0.621  0.00  0.00    -0.273 OA
ATOM     29  N   UNL     1      -1.403  -1.272   1.282  0.00  0.00    -0.238 N 
ATOM     30  C   UNL     1      -0.206  -1.247   1.879  0.00  0.00    +0.307 C 
ATOM     31  O   UNL     1       0.040  -1.819   2.924  0.00  0.00    -0.252 OA
ATOM     32  N   UNL     1       0.695  -0.520   1.195  0.00  0.00    -0.285 N 
ATOM     33  H   UNL     1      -2.175  -1.745   1.629  0.00  0.00    +0.159 HD
ATOM     34  H   UNL     1       1.621  -0.365   1.440  0.00  0.00    +0.151 HD
ENDBRANCH  24  26
ENDBRANCH  23  24
ENDBRANCH   1  23
TORSDOF 7
