REMARK  Name = ZINC38802862
REMARK  4 active torsions:
REMARK  status: ('A' for Active; 'I' for Inactive)
REMARK    1  A    between atoms: C_4  and  O_21
REMARK    2  A    between atoms: C_5  and  N_7
REMARK    3  A    between atoms: N_7  and  S_8
REMARK    4  A    between atoms: S_8  and  C_11
REMARK                            x       y       z     vdW  Elec       q    Type
REMARK                         _______ _______ _______ _____ _____    ______ ____
ROOT
ATOM      1  S   UNL     1      -0.001  -2.923  -0.731  0.00  0.00    +0.073 S 
ATOM      2  O   UNL     1       0.260  -4.301  -0.498  0.00  0.00    -0.150 OA
ATOM      3  O   UNL     1      -1.209  -2.297  -0.320  0.00  0.00    -0.150 OA
ENDROOT
BRANCH   1   4
ATOM      4  C   UNL     1       0.129  -2.673  -2.471  0.00  0.00    +0.110 A 
ATOM      5  C   UNL     1      -0.566  -1.543  -3.076  0.00  0.00    +0.031 A 
ATOM      6  C   UNL     1      -0.508  -1.294  -4.402  0.00  0.00    +0.027 A 
ATOM      7  C   UNL     1       0.273  -2.176  -5.268  0.00  0.00    +0.056 A 
ATOM      8  N   UNL     1       0.531  -2.220  -6.551  0.00  0.00    -0.268 N 
ATOM      9  C   UNL     1       1.343  -3.303  -6.794  0.00  0.00    +0.308 C 
ATOM     10  O   UNL     1       1.766  -3.626  -7.883  0.00  0.00    -0.252 OA
ATOM     11  N   UNL     1       1.603  -3.963  -5.616  0.00  0.00    -0.267 N 
ATOM     12  C   UNL     1       0.987  -3.337  -4.646  0.00  0.00    +0.058 A 
ATOM     13  C   UNL     1       0.874  -3.530  -3.202  0.00  0.00    +0.054 A 
ATOM     14  H   UNL     1       2.151  -4.758  -5.521  0.00  0.00    +0.156 HD
ATOM     15  H   UNL     1       0.204  -1.595  -7.217  0.00  0.00    +0.156 HD
ENDBRANCH   1   4
BRANCH   1  16
ATOM     16  N   UNL     1       1.235  -2.080  -0.021  0.00  0.00    -0.213 N 
ATOM     17  H   UNL     1       1.900  -2.548   0.506  0.00  0.00    +0.174 HD
BRANCH  16  22
ATOM     18  C   UNL     1       0.248   1.442  -0.402  0.00  0.00    +0.002 A 
ATOM     19  C   UNL     1       1.484   2.054  -0.504  0.00  0.00    +0.004 A 
ATOM     20  C   UNL     1       2.640   1.298  -0.447  0.00  0.00    +0.047 A 
ATOM     21  C   UNL     1       2.563  -0.075  -0.287  0.00  0.00    +0.139 A 
ATOM     22  C   UNL     1       1.319  -0.693  -0.183  0.00  0.00    +0.089 A 
ATOM     23  C   UNL     1       0.163   0.072  -0.241  0.00  0.00    +0.028 A 
BRANCH  21  24
ATOM     24  O   UNL     1       3.700  -0.820  -0.231  0.00  0.00    -0.505 OA
ATOM     25  H   UNL     1       4.052  -0.934   0.662  0.00  0.00    +0.292 HD
ENDBRANCH  21  24
ENDBRANCH  16  22
ENDBRANCH   1  16
TORSDOF 4
