REMARK  Name = ZINC61713666
REMARK  7 active torsions:
REMARK  status: ('A' for Active; 'I' for Inactive)
REMARK    1  A    between atoms: C_1  and  C_2
REMARK    2  A    between atoms: C_5  and  C_18
REMARK    3  A    between atoms: C_7  and  S_8
REMARK    4  A    between atoms: S_8  and  N_11
REMARK    5  A    between atoms: C_14  and  O_17
REMARK    6  A    between atoms: C_19  and  C_20
REMARK    7  A    between atoms: C_20  and  N_21
REMARK                            x       y       z     vdW  Elec       q    Type
REMARK                         _______ _______ _______ _____ _____    ______ ____
ROOT
ATOM      1  C   UNL     1      -0.134   1.397  -0.025  0.00  0.00    +0.046 C 
ATOM      2  C   UNL     1      -0.016  -0.105   0.013  0.00  0.00    -0.024 A 
ATOM      3  C   UNL     1      -0.086  -0.831  -1.163  0.00  0.00    +0.006 A 
ATOM      4  C   UNL     1       0.021  -2.206  -1.136  0.00  0.00    +0.017 A 
ATOM      5  C   UNL     1       0.201  -2.865   0.081  0.00  0.00    +0.027 A 
ATOM      6  C   UNL     1       0.271  -2.127   1.263  0.00  0.00    +0.045 A 
ATOM      7  C   UNL     1       0.167  -0.752   1.222  0.00  0.00    +0.110 A 
ENDROOT
BRANCH   7   8
ATOM      8  S   UNL     1       0.263   0.183   2.713  0.00  0.00    +0.061 S 
ATOM      9  O   UNL     1      -0.849   1.068   2.709  0.00  0.00    -0.153 OA
ATOM     10  O   UNL     1       0.492  -0.748   3.761  0.00  0.00    -0.153 OA
BRANCH   8  11
ATOM     11  N   UNL     1       1.619   1.127   2.613  0.00  0.00    -0.174 NA
ATOM     12  C   UNL     1       2.994   0.690   2.915  0.00  0.00    +0.112 C 
ATOM     13  C   UNL     1       3.903   1.652   2.110  0.00  0.00    +0.050 C 
ATOM     14  C   UNL     1       3.128   2.990   2.236  0.00  0.00    +0.131 C 
ATOM     15  C   UNL     1       1.653   2.538   2.202  0.00  0.00    +0.140 C 
BRANCH  14  16
ATOM     16  O   UNL     1       3.438   3.639   3.471  0.00  0.00    -0.390 OA
ATOM     17  H   UNL     1       4.371   3.874   3.569  0.00  0.00    +0.210 HD
ENDBRANCH  14  16
ENDBRANCH   8  11
ENDBRANCH   7   8
BRANCH   5  18
ATOM     18  C   UNL     1       0.312  -4.292   0.117  0.00  0.00    -0.068 C 
ATOM     19  C   UNL     1       0.404  -5.462   0.146  0.00  0.00    -0.117 C 
BRANCH  19  20
ATOM     20  C   UNL     1       0.519  -6.929   0.183  0.00  0.00    +0.005 C 
BRANCH  20  21
ATOM     21  N   UNL     1       0.701  -7.372   1.572  0.00  0.00    +0.385 N 
ATOM     22  H   UNL     1       1.541  -6.959   1.949  0.00  0.00    -0.089 HD
ATOM     23  H   UNL     1      -0.093  -7.083   2.123  0.00  0.00    -0.089 HD
ATOM     24  H   UNL     1       0.779  -8.377   1.597  0.00  0.00    -0.089 HD
ENDBRANCH  20  21
ENDBRANCH  19  20
ENDBRANCH   5  18
TORSDOF 6
