REMARK  Name = ZINC66244662
REMARK  6 active torsions:
REMARK  status: ('A' for Active; 'I' for Inactive)
REMARK    1  A    between atoms: C_3  and  C_6
REMARK    2  A    between atoms: C_6  and  N_7
REMARK    3  A    between atoms: N_10  and  C_11
REMARK    4  A    between atoms: C_11  and  C_12
REMARK    5  A    between atoms: C_12  and  C_13
REMARK    6  A    between atoms: C_13  and  C_14
REMARK                            x       y       z     vdW  Elec       q    Type
REMARK                         _______ _______ _______ _____ _____    ______ ____
ROOT
ATOM      1  N   UNL     1       4.101   0.607   1.347  0.00  0.00    -0.351 N 
ATOM      2  C   UNL     1       5.384   0.576   1.572  0.00  0.00    +0.169 C 
ATOM      3  N   UNL     1       5.855   0.558   2.864  0.00  0.00    -0.371 N 
ATOM      4  N   UNL     1       6.267   0.560   0.518  0.00  0.00    -0.358 N 
ATOM      5  H   UNL     1       5.232   0.569   3.607  0.00  0.00    +0.159 HD
ATOM      6  H   UNL     1       6.810   0.535   3.031  0.00  0.00    +0.159 HD
ATOM      7  H   UNL     1       5.935   0.573  -0.393  0.00  0.00    +0.162 HD
ATOM      8  H   UNL     1       3.478   0.617   2.090  0.00  0.00    +0.163 HD
ENDROOT
BRANCH   1   9
ATOM      9  C   UNL     1       3.599   0.625  -0.029  0.00  0.00    +0.190 C 
BRANCH   9  12
ATOM     10  C   UNL     1      -0.016   1.341   0.009  0.00  0.00    +0.041 A 
ATOM     11  C   UNL     1       1.331   1.769  -0.001  0.00  0.00    +0.046 A 
ATOM     12  C   UNL     1       2.092   0.660  -0.014  0.00  0.00    +0.124 A 
ATOM     13  O   UNL     1       1.282  -0.411  -0.012  0.00  0.00    -0.466 OA
ATOM     14  C   UNL     1       0.002  -0.004   0.002  0.00  0.00    +0.195 A 
ENDBRANCH   9  12
ENDBRANCH   1   9
BRANCH   4  15
ATOM     15  C   UNL     1       7.709   0.525   0.772  0.00  0.00    +0.116 C 
BRANCH  15  16
ATOM     16  C   UNL     1       8.461   0.515  -0.561  0.00  0.00    +0.026 C 
BRANCH  16  17
ATOM     17  C   UNL     1       9.968   0.478  -0.296  0.00  0.00    +0.037 C 
BRANCH  17  18
ATOM     18  C   UNL     1      10.708   0.468  -1.609  0.00  0.00    -0.046 A 
ATOM     19  C   UNL     1      11.015  -0.735  -2.219  0.00  0.00    +0.005 A 
ATOM     20  C   UNL     1      11.694  -0.746  -3.423  0.00  0.00    +0.022 A 
ATOM     21  C   UNL     1      12.067   0.446  -4.018  0.00  0.00    +0.059 A 
ATOM     22  C   UNL     1      11.760   1.650  -3.406  0.00  0.00    +0.060 A 
ATOM     23  C   UNL     1      11.075   1.659  -2.204  0.00  0.00    +0.025 A 
ATOM     24 CL   UNL     1      12.228   3.147  -4.151  0.00  0.00    -0.082 Cl
ATOM     25 CL   UNL     1      12.921   0.433  -5.529  0.00  0.00    -0.082 Cl
ENDBRANCH  17  18
ENDBRANCH  16  17
ENDBRANCH  15  16
ENDBRANCH   4  15
TORSDOF 6
