REMARK  Name = ZINC41152006
REMARK  8 active torsions:
REMARK  status: ('A' for Active; 'I' for Inactive)
REMARK    1  A    between atoms: C_1  and  C_2
REMARK    2  A    between atoms: C_2  and  C_3
REMARK    3  A    between atoms: C_3  and  C_4
REMARK    4  A    between atoms: C_3  and  C_5
REMARK    5  A    between atoms: C_3  and  N_19
REMARK    6  A    between atoms: C_7  and  C_10
REMARK    7  A    between atoms: C_13  and  O_17
REMARK    8  A    between atoms: O_17  and  C_18
REMARK                            x       y       z     vdW  Elec       q    Type
REMARK                         _______ _______ _______ _____ _____    ______ ____
ROOT
ATOM      1  C   UNL     1      -1.414  -2.036   0.129  0.00  0.00    +0.161 A 
ATOM      2  N   UNL     1      -1.971  -2.744   1.113  0.00  0.00    -0.193 NA
ATOM      3  C   UNL     1      -1.772  -4.028   0.912  0.00  0.00    +0.258 A 
ATOM      4  O   UNL     1      -1.070  -4.166  -0.227  0.00  0.00    -0.333 OA
ATOM      5  N   UNL     1      -0.854  -2.852  -0.720  0.00  0.00    -0.062 NA
ENDROOT
BRANCH   3   6
ATOM      6  C   UNL     1      -2.236  -5.126   1.783  0.00  0.00    +0.041 A 
ATOM      7  C   UNL     1      -2.965  -4.840   2.941  0.00  0.00    +0.017 A 
ATOM      8  C   UNL     1      -3.397  -5.867   3.751  0.00  0.00    +0.047 A 
ATOM      9  C   UNL     1      -3.110  -7.185   3.419  0.00  0.00    +0.134 A 
ATOM     10  C   UNL     1      -2.385  -7.474   2.269  0.00  0.00    +0.060 A 
ATOM     11  C   UNL     1      -1.954  -6.452   1.449  0.00  0.00    +0.032 A 
ATOM     12 BR   UNL     1      -1.996  -9.270   1.823  0.00  0.00    -0.046 Br
BRANCH   9  13
ATOM     13  O   UNL     1      -3.537  -8.194   4.221  0.00  0.00    -0.494 OA
ATOM     14  C   UNL     1      -4.276  -7.827   5.388  0.00  0.00    +0.277 C 
ENDBRANCH   9  13
ENDBRANCH   3   6
BRANCH   1  15
ATOM     15  C   UNL     1      -1.433  -0.534   0.013  0.00  0.00    -0.009 C 
ATOM     16  C   UNL     1      -2.135  -0.131  -1.286  0.00  0.00    -0.003 C 
BRANCH  15  17
ATOM     17  N   UNL     1      -2.157   0.036   1.157  0.00  0.00    +0.386 N 
ATOM     18  H   UNL     1      -2.170   1.042   1.080  0.00  0.00    -0.089 HD
ATOM     19  H   UNL     1      -3.103  -0.313   1.165  0.00  0.00    -0.089 HD
ATOM     20  H   UNL     1      -1.694  -0.229   2.014  0.00  0.00    -0.089 HD
ENDBRANCH  15  17
BRANCH  15  22
ATOM     21  C   UNL     1      -0.019   1.526   0.010  0.00  0.00    +0.003 C 
ATOM     22  C   UNL     1       0.002  -0.004   0.002  0.00  0.00    -0.009 C 
ENDBRANCH  15  22
ENDBRANCH   1  15
TORSDOF 5
