REMARK  Name = ZINC05292412
REMARK  10 active torsions:
REMARK  status: ('A' for Active; 'I' for Inactive)
REMARK    1  A    between atoms: C_1  and  C_2
REMARK    2  A    between atoms: C_2  and  C_3
REMARK    3  A    between atoms: C_6  and  C_9
REMARK    4  A    between atoms: C_9  and  C_10
REMARK    5  A    between atoms: C_9  and  N_20
REMARK    6  A    between atoms: C_10  and  N_11
REMARK    7  A    between atoms: C_12  and  C_13
REMARK    8  A    between atoms: C_18  and  O_19
REMARK    9  A    between atoms: N_20  and  C_21
REMARK   10  A    between atoms: N_20  and  C_22
REMARK                            x       y       z     vdW  Elec       q    Type
REMARK                         _______ _______ _______ _____ _____    ______ ____
ROOT
ATOM      1  C   UNL     1       2.630  -1.594  -4.921  0.00  0.00    -0.017 C 
ENDROOT
BRANCH   1   5
ATOM      2  C   UNL     1       0.296  -0.408  -1.545  0.00  0.00    -0.048 A 
ATOM      3  C   UNL     1      -0.282  -0.465  -2.800  0.00  0.00    +0.004 A 
ATOM      4  C   UNL     1       0.473  -0.848  -3.892  0.00  0.00    +0.002 A 
ATOM      5  C   UNL     1       1.807  -1.175  -3.730  0.00  0.00    -0.059 A 
ATOM      6  C   UNL     1       2.385  -1.117  -2.476  0.00  0.00    +0.002 A 
ATOM      7  C   UNL     1       1.631  -0.730  -1.384  0.00  0.00    +0.004 A 
BRANCH   2   9
ATOM      8  C   UNL     1      -0.446   1.528  -0.186  0.00  0.00    +0.009 C 
ATOM      9  C   UNL     1      -0.527   0.009  -0.354  0.00  0.00    +0.032 C 
ENDBRANCH   2   9
ENDBRANCH   1   5
BRANCH   1  10
ATOM     10  N   UNL     1       3.970  -0.999  -4.824  0.00  0.00    +0.382 N 
ATOM     11  C   UNL     1       4.717  -1.270  -6.059  0.00  0.00    -0.096 C 
ATOM     12  C   UNL     1       3.849   0.452  -4.633  0.00  0.00    -0.096 C 
ATOM     13  H   UNL     1       4.460  -1.402  -4.039  0.00  0.00    -0.082 HD
ENDBRANCH   1  10
BRANCH   1  14
ATOM     14  C   UNL     1       2.749  -3.119  -4.948  0.00  0.00    +0.131 C 
BRANCH  14  15
ATOM     15  N   UNL     1       3.459  -3.532  -6.161  0.00  0.00    -0.292 NA
ATOM     16  C   UNL     1       4.539  -4.239  -6.070  0.00  0.00    +0.116 C 
BRANCH  16  17
ATOM     17  C   UNL     1       5.253  -4.655  -7.290  0.00  0.00    +0.034 A 
ATOM     18  C   UNL     1       6.416  -5.423  -7.197  0.00  0.00    +0.013 A 
ATOM     19  C   UNL     1       7.078  -5.809  -8.342  0.00  0.00    +0.001 A 
ATOM     20  C   UNL     1       6.596  -5.438  -9.587  0.00  0.00    +0.004 A 
ATOM     21  C   UNL     1       5.448  -4.678  -9.693  0.00  0.00    +0.046 A 
ATOM     22  C   UNL     1       4.765  -4.287  -8.552  0.00  0.00    +0.125 A 
BRANCH  22  23
ATOM     23  O   UNL     1       3.633  -3.546  -8.655  0.00  0.00    -0.506 OA
ATOM     24  H   UNL     1       3.786  -2.591  -8.656  0.00  0.00    +0.292 HD
ENDBRANCH  22  23
ENDBRANCH  16  17
ENDBRANCH  14  15
ENDBRANCH   1  14
TORSDOF 7
