REMARK  Name = ZINC55129191
REMARK  8 active torsions:
REMARK  status: ('A' for Active; 'I' for Inactive)
REMARK    1  A    between atoms: C_1  and  C_2
REMARK    2  A    between atoms: C_2  and  N_3
REMARK    3  A    between atoms: C_4  and  C_6
REMARK    4  A    between atoms: C_6  and  C_8
REMARK    5  A    between atoms: C_6  and  N_9
REMARK    6  A    between atoms: C_10  and  C_12
REMARK    7  A    between atoms: C_16  and  N_22
REMARK    8  A    between atoms: C_19  and  C_21
REMARK                            x       y       z     vdW  Elec       q    Type
REMARK                         _______ _______ _______ _____ _____    ______ ____
ROOT
ATOM      1  N   UNL     1       1.603  -3.778   2.607  0.00  0.00    -0.304 N 
ATOM      2  C   UNL     1       2.574  -4.442   3.263  0.00  0.00    +0.217 C 
ATOM      3  O   UNL     1       3.432  -3.827   3.861  0.00  0.00    -0.275 OA
ATOM      4  H   UNL     1       0.916  -4.270   2.129  0.00  0.00    +0.149 HD
ENDROOT
BRANCH   2   5
ATOM      5  C   UNL     1       2.594  -5.949   3.255  0.00  0.00    +0.078 C 
ATOM      6  C   UNL     1       2.713  -6.450   1.814  0.00  0.00    +0.011 C 
ATOM      7  C   UNL     1       2.734  -7.979   1.806  0.00  0.00    -0.016 C 
ATOM      8  C   UNL     1       3.930  -8.478   2.619  0.00  0.00    -0.075 C 
ATOM      9  C   UNL     1       3.812  -7.977   4.060  0.00  0.00    -0.012 C 
ATOM     10  C   UNL     1       3.791  -6.447   4.068  0.00  0.00    -0.004 C 
ATOM     11  C   UNL     1       3.672  -5.947   5.509  0.00  0.00    +0.008 C 
BRANCH   8  12
ATOM     12  N   UNL     1       3.950  -9.947   2.611  0.00  0.00    +0.380 N 
ATOM     13  H   UNL     1       4.029 -10.277   1.661  0.00  0.00    -0.090 HD
ATOM     14  H   UNL     1       4.739 -10.275   3.147  0.00  0.00    -0.090 HD
ATOM     15  H   UNL     1       3.097 -10.297   3.019  0.00  0.00    -0.090 HD
ENDBRANCH   8  12
ENDBRANCH   2   5
BRANCH   1  16
ATOM     16  C   UNL     1       1.583  -2.313   2.615  0.00  0.00    +0.156 C 
ATOM     17  C   UNL     1       0.867  -1.820   3.873  0.00  0.00    +0.038 C 
BRANCH  16  19
ATOM     18  N   UNL     1       0.711  -0.489   1.189  0.00  0.00    -0.314 N 
ATOM     19  C   UNL     1       0.854  -1.814   1.394  0.00  0.00    +0.233 C 
ATOM     20  O   UNL     1       0.396  -2.604   0.595  0.00  0.00    -0.274 OA
ATOM     21  H   UNL     1       1.077   0.142   1.827  0.00  0.00    +0.149 HD
BRANCH  18  23
ATOM     22  C   UNL     1      -0.019   1.526   0.010  0.00  0.00    +0.024 C 
ATOM     23  C   UNL     1       0.002  -0.004   0.002  0.00  0.00    +0.101 C 
ENDBRANCH  18  23
ENDBRANCH  16  19
ENDBRANCH   1  16
TORSDOF 5
