REMARK  Name = ZINC41466561
REMARK  10 active torsions:
REMARK  status: ('A' for Active; 'I' for Inactive)
REMARK    1  A    between atoms: C_1  and  C_2
REMARK    2  A    between atoms: C_2  and  C_3
REMARK    3  A    between atoms: C_2  and  C_4
REMARK    4  A    between atoms: C_4  and  C_5
REMARK    5  A    between atoms: C_8  and  C_11
REMARK    6  A    between atoms: C_11  and  C_13
REMARK    7  A    between atoms: C_11  and  C_15
REMARK    8  A    between atoms: C_13  and  N_14
REMARK    9  A    between atoms: C_15  and  N_16
REMARK   10  A    between atoms: N_19  and  C_22
REMARK                            x       y       z     vdW  Elec       q    Type
REMARK                         _______ _______ _______ _____ _____    ______ ____
ROOT
ATOM      1  C   UNL     1      -4.085   0.986  -4.891  0.00  0.00    +0.015 C 
ENDROOT
BRANCH   1   5
ATOM      2  C   UNL     1      -2.125  -0.137  -1.266  0.00  0.00    -0.047 A 
ATOM      3  C   UNL     1      -2.808   1.062  -1.340  0.00  0.00    +0.004 A 
ATOM      4  C   UNL     1      -3.442   1.426  -2.513  0.00  0.00    +0.004 A 
ATOM      5  C   UNL     1      -3.393   0.590  -3.613  0.00  0.00    -0.045 A 
ATOM      6  C   UNL     1      -2.709  -0.609  -3.540  0.00  0.00    +0.004 A 
ATOM      7  C   UNL     1      -2.071  -0.971  -2.368  0.00  0.00    +0.004 A 
BRANCH   2   8
ATOM      8  C   UNL     1      -1.433  -0.534   0.013  0.00  0.00    +0.038 C 
BRANCH   8  10
ATOM      9  C   UNL     1      -0.019   1.526   0.010  0.00  0.00    +0.007 C 
ATOM     10  C   UNL     1       0.002  -0.004   0.002  0.00  0.00    -0.013 C 
ATOM     11  C   UNL     1       0.742  -0.511   1.242  0.00  0.00    +0.007 C 
ENDBRANCH   8  10
ENDBRANCH   2   8
ENDBRANCH   1   5
BRANCH   1  12
ATOM     12  C   UNL     1      -3.057   1.078  -6.021  0.00  0.00    -0.077 C 
BRANCH  12  13
ATOM     13  N   UNL     1      -3.709   1.579  -7.238  0.00  0.00    +0.379 N 
ATOM     14  H   UNL     1      -4.096   2.494  -7.060  0.00  0.00    -0.090 HD
ATOM     15  H   UNL     1      -3.031   1.639  -7.982  0.00  0.00    -0.090 HD
ATOM     16  H   UNL     1      -4.449   0.948  -7.507  0.00  0.00    -0.090 HD
ENDBRANCH  12  13
ENDBRANCH   1  12
BRANCH   1  17
ATOM     17  C   UNL     1      -5.140  -0.064  -5.247  0.00  0.00    +0.090 C 
BRANCH  17  18
ATOM     18  N   UNL     1      -5.896   0.381  -6.425  0.00  0.00    -0.305 NA
ATOM     19  C   UNL     1      -6.691   1.579  -6.120  0.00  0.00    +0.066 C 
ATOM     20  C   UNL     1      -7.414   2.043  -7.386  0.00  0.00    -0.064 C 
ATOM     21  N   UNL     1      -8.286   0.967  -7.874  0.00  0.00    +0.379 N 
ATOM     22  C   UNL     1      -7.475  -0.214  -8.198  0.00  0.00    -0.064 C 
ATOM     23  C   UNL     1      -6.752  -0.697  -6.939  0.00  0.00    +0.066 C 
ATOM     24  C   UNL     1      -8.994   1.419  -9.079  0.00  0.00    -0.096 C 
ATOM     25  H   UNL     1      -8.958   0.728  -7.160  0.00  0.00    -0.082 HD
ENDBRANCH  17  18
ENDBRANCH   1  17
TORSDOF 7
