REMARK  Name = ZINC36184891
REMARK  7 active torsions:
REMARK  status: ('A' for Active; 'I' for Inactive)
REMARK    1  A    between atoms: C_1  and  N_2
REMARK    2  A    between atoms: N_2  and  C_3
REMARK    3  A    between atoms: C_3  and  C_4
REMARK    4  A    between atoms: C_7  and  C_9
REMARK    5  A    between atoms: C_11  and  S_16
REMARK    6  A    between atoms: C_14  and  O_15
REMARK    7  A    between atoms: S_16  and  C_17
REMARK                            x       y       z     vdW  Elec       q    Type
REMARK                         _______ _______ _______ _____ _____    ______ ____
ROOT
ATOM      1  C   UNL     1       0.034  -0.173  -2.416  0.00  0.00    +0.079 A 
ATOM      2  C   UNL     1       0.222   1.208  -2.326  0.00  0.00    +0.031 A 
ATOM      3  C   UNL     1       0.139   1.990  -3.466  0.00  0.00    +0.014 A 
ATOM      4  C   UNL     1      -0.132   1.402  -4.698  0.00  0.00    +0.018 A 
ATOM      5  C   UNL     1      -0.319   0.038  -4.793  0.00  0.00    +0.047 A 
ATOM      6  C   UNL     1      -0.232  -0.758  -3.660  0.00  0.00    +0.129 A 
ENDROOT
BRANCH   1   9
ATOM      7  C   UNL     1      -1.249   0.626  -0.035  0.00  0.00    +0.133 C 
ATOM      8  N   UNL     1      -0.447  -0.600  -0.056  0.00  0.00    -0.290 N 
ATOM      9  C   UNL     1       0.122  -1.013  -1.206  0.00  0.00    +0.250 C 
ATOM     10  O   UNL     1       0.707  -2.078  -1.246  0.00  0.00    -0.270 OA
BRANCH   8  11
ATOM     11  C   UNL     1      -0.264  -1.377   1.173  0.00  0.00    +0.232 C 
BRANCH  11  12
ATOM     12  C   UNL     1      -1.365  -2.399   1.290  0.00  0.00    +0.373 C 
ATOM     13  O   UNL     1      -2.223  -2.471   0.427  0.00  0.00    -0.245 OA
ATOM     14  O   UNL     1      -1.398  -3.153   2.247  0.00  0.00    -0.245 OA
ENDBRANCH  11  12
ENDBRANCH   8  11
ENDBRANCH   1   9
BRANCH   6  15
ATOM     15  O   UNL     1      -0.411  -2.100  -3.757  0.00  0.00    -0.506 OA
ATOM     16  H   UNL     1      -1.330  -2.383  -3.649  0.00  0.00    +0.292 HD
ENDBRANCH   6  15
BRANCH   3  17
ATOM     17  S   UNL     1       0.376   3.732  -3.356  0.00  0.00    -0.081 S 
BRANCH  17  18
ATOM     18  C   UNL     1       2.124   3.933  -3.463  0.00  0.00    +0.071 A 
ATOM     19  C   UNL     1       2.879   5.058  -3.337  0.00  0.00    +0.135 A 
ATOM     20  N   UNL     1       4.192   4.980  -3.455  0.00  0.00    -0.232 NA
ATOM     21  C   UNL     1       4.792   3.828  -3.692  0.00  0.00    +0.164 A 
ATOM     22  S   UNL     1       3.397   2.712  -3.758  0.00  0.00    -0.045 S 
ATOM     23  N   UNL     1       6.146   3.555  -3.846  0.00  0.00    -0.279 N 
ATOM     24  C   UNL     1       7.084   4.567  -3.673  0.00  0.00    +0.126 A 
ATOM     25  C   UNL     1       8.437   4.287  -3.830  0.00  0.00    +0.044 A 
ATOM     26  C   UNL     1       9.360   5.304  -3.656  0.00  0.00    +0.006 A 
ATOM     27  C   UNL     1       8.896   6.571  -3.330  0.00  0.00    +0.035 A 
ATOM     28  C   UNL     1       7.537   6.779  -3.190  0.00  0.00    +0.108 A 
ATOM     29  N   UNL     1       6.679   5.791  -3.367  0.00  0.00    -0.225 NA
ATOM     30 BR   UNL     1       6.896   8.502  -2.747  0.00  0.00    -0.029 Br
ATOM     31  H   UNL     1       6.437   2.658  -4.073  0.00  0.00    +0.155 HD
ENDBRANCH  17  18
ENDBRANCH   3  17
TORSDOF 6
