REMARK  Name = ZINC61797348
REMARK  8 active torsions:
REMARK  status: ('A' for Active; 'I' for Inactive)
REMARK    1  A    between atoms: C_1  and  C_2
REMARK    2  A    between atoms: C_2  and  N_3
REMARK    3  A    between atoms: N_3  and  C_4
REMARK    4  A    between atoms: C_5  and  C_11
REMARK    5  A    between atoms: C_6  and  C_10
REMARK    6  A    between atoms: N_8  and  C_9
REMARK    7  A    between atoms: C_11  and  N_12
REMARK    8  A    between atoms: N_15  and  C_20
REMARK                            x       y       z     vdW  Elec       q    Type
REMARK                         _______ _______ _______ _____ _____    ______ ____
ROOT
ATOM      1  C   UNL     1      -1.618  -1.917   0.122  0.00  0.00    +0.120 A 
ATOM      2  C   UNL     1      -2.834  -2.499  -0.070  0.00  0.00    +0.032 A 
ATOM      3  C   UNL     1      -2.618  -3.829  -0.440  0.00  0.00    +0.038 A 
ATOM      4  N   UNL     1      -1.327  -4.043  -0.470  0.00  0.00    -0.300 N 
ATOM      5  N   UNL     1      -0.674  -2.853  -0.125  0.00  0.00    -0.276 N 
ATOM      6  C   UNL     1       0.776  -2.658  -0.044  0.00  0.00    +0.172 C 
ATOM      7  C   UNL     1      -3.688  -4.844  -0.750  0.00  0.00    +0.065 C 
ATOM      8  H   UNL     1      -0.896  -4.882  -0.697  0.00  0.00    +0.187 HD
ENDROOT
BRANCH   1   9
ATOM      9  N   UNL     1      -1.388  -0.597   0.499  0.00  0.00    -0.329 N 
ATOM     10  H   UNL     1      -2.136  -0.015   0.709  0.00  0.00    +0.147 HD
BRANCH   9  12
ATOM     11  C   UNL     1      -0.034   1.330   1.159  0.00  0.00    +0.024 C 
ATOM     12  C   UNL     1      -0.018  -0.085   0.577  0.00  0.00    +0.099 C 
ENDBRANCH   9  12
ENDBRANCH   1   9
BRANCH   2  13
ATOM     13  C   UNL     1      -4.174  -1.828   0.088  0.00  0.00    +0.165 C 
BRANCH  13  14
ATOM     14  N   UNL     1      -4.578  -1.236  -1.189  0.00  0.00    -0.305 N 
ATOM     15  C   UNL     1      -4.218   0.060  -1.494  0.00  0.00    +0.107 A 
ATOM     16  C   UNL     1      -4.568   0.629  -2.644  0.00  0.00    +0.106 A 
ATOM     17  N   UNL     1      -5.308  -0.048  -3.591  0.00  0.00    -0.312 N 
ATOM     18  C   UNL     1      -5.695  -1.321  -3.358  0.00  0.00    +0.316 A 
ATOM     19  O   UNL     1      -6.348  -1.933  -4.182  0.00  0.00    -0.262 OA
ATOM     20  C   UNL     1      -5.298  -1.960  -2.073  0.00  0.00    +0.316 A 
ATOM     21  O   UNL     1      -5.620  -3.106  -1.823  0.00  0.00    -0.262 OA
ATOM     22  C   UNL     1      -5.675   0.613  -4.846  0.00  0.00    +0.152 C 
ENDBRANCH  13  14
ENDBRANCH   2  13
TORSDOF 4
