REMARK  Name = ZINC36929468
REMARK  6 active torsions:
REMARK  status: ('A' for Active; 'I' for Inactive)
REMARK    1  A    between atoms: C_1  and  C_2
REMARK    2  A    between atoms: C_2  and  N_3
REMARK    3  A    between atoms: N_6  and  S_9
REMARK    4  A    between atoms: S_9  and  C_12
REMARK    5  A    between atoms: C_15  and  C_17
REMARK    6  A    between atoms: C_17  and  N_18
REMARK                            x       y       z     vdW  Elec       q    Type
REMARK                         _______ _______ _______ _____ _____    ______ ____
ROOT
ATOM      1  S   UNL     1       3.714  -2.895  -3.242  0.00  0.00    +0.067 S 
ATOM      2  O   UNL     1       3.123  -3.962  -3.972  0.00  0.00    -0.152 OA
ATOM      3  O   UNL     1       4.750  -2.086  -3.781  0.00  0.00    -0.152 OA
ENDROOT
BRANCH   1   7
ATOM      4  N   UNL     1       0.690  -0.478  -1.207  0.00  0.00    -0.300 NA
ATOM      5  C   UNL     1       2.110  -0.102  -1.186  0.00  0.00    +0.101 C 
ATOM      6  C   UNL     1       2.747  -0.452  -2.535  0.00  0.00    +0.125 C 
ATOM      7  N   UNL     1       2.483  -1.870  -2.823  0.00  0.00    -0.174 NA
ATOM      8  C   UNL     1       1.097  -2.353  -2.728  0.00  0.00    +0.125 C 
ATOM      9  C   UNL     1       0.525  -1.928  -1.372  0.00  0.00    +0.101 C 
BRANCH   4  11
ATOM     10  C   UNL     1      -0.019   1.526   0.010  0.00  0.00    +0.020 C 
ATOM     11  C   UNL     1       0.002  -0.004   0.002  0.00  0.00    +0.081 C 
ENDBRANCH   4  11
ENDBRANCH   1   7
BRANCH   1  12
ATOM     12  C   UNL     1       4.342  -3.592  -1.751  0.00  0.00    +0.143 A 
ATOM     13  C   UNL     1       3.962  -4.726  -1.112  0.00  0.00    +0.036 A 
ATOM     14  C   UNL     1       4.605  -5.083   0.059  0.00  0.00    +0.011 A 
ATOM     15  C   UNL     1       5.596  -4.289   0.533  0.00  0.00    -0.026 A 
ATOM     16  S   UNL     1       5.650  -2.993  -0.694  0.00  0.00    -0.075 S 
BRANCH  15  17
ATOM     17  C   UNL     1       6.437  -4.459   1.772  0.00  0.00    -0.043 C 
BRANCH  17  18
ATOM     18  N   UNL     1       7.639  -5.237   1.444  0.00  0.00    +0.381 N 
ATOM     19  H   UNL     1       8.173  -4.751   0.739  0.00  0.00    -0.090 HD
ATOM     20  H   UNL     1       8.203  -5.351   2.273  0.00  0.00    -0.090 HD
ATOM     21  H   UNL     1       7.368  -6.144   1.095  0.00  0.00    -0.090 HD
ENDBRANCH  17  18
ENDBRANCH  15  17
ENDBRANCH   1  12
TORSDOF 5
