REMARK  Name = ZINC62776980
REMARK  6 active torsions:
REMARK  status: ('A' for Active; 'I' for Inactive)
REMARK    1  A    between atoms: C_1  and  C_2
REMARK    2  A    between atoms: C_2  and  C_3
REMARK    3  A    between atoms: C_3  and  N_4
REMARK    4  A    between atoms: N_4  and  C_5
REMARK    5  A    between atoms: C_5  and  C_7
REMARK    6  A    between atoms: C_5  and  C_18
REMARK                            x       y       z     vdW  Elec       q    Type
REMARK                         _______ _______ _______ _____ _____    ______ ____
ROOT
ATOM      1  C   UNL     1       1.472  -2.466   2.424  0.00  0.00    -0.005 C 
ENDROOT
BRANCH   1   2
ATOM      2  C   UNL     1       1.600  -3.966   2.354  0.00  0.00    -0.035 A 
ATOM      3  C   UNL     1       0.762  -4.693   1.529  0.00  0.00    +0.053 A 
ATOM      4  C   UNL     1       0.878  -6.073   1.462  0.00  0.00    +0.162 A 
ATOM      5  C   UNL     1       1.841  -6.724   2.225  0.00  0.00    +0.163 A 
ATOM      6  C   UNL     1       2.678  -5.990   3.052  0.00  0.00    +0.069 A 
ATOM      7  C   UNL     1       2.560  -4.613   3.111  0.00  0.00    +0.047 A 
ATOM      8 CL   UNL     1       3.615  -3.697   4.141  0.00  0.00    -0.083 Cl
ATOM      9  O   UNL     1       1.976  -8.077   2.168  0.00  0.00    -0.485 OA
ATOM     10  C   UNL     1       0.879  -8.811   1.614  0.00  0.00    +0.270 C 
ATOM     11  C   UNL     1       0.436  -8.112   0.322  0.00  0.00    +0.270 C 
ATOM     12  O   UNL     1       0.043  -6.775   0.648  0.00  0.00    -0.485 OA
ENDBRANCH   1   2
BRANCH   1  13
ATOM     13  C   UNL     1       0.701  -2.085   3.660  0.00  0.00    -0.020 A 
ATOM     14  C   UNL     1       1.230  -1.642   4.824  0.00  0.00    +0.107 A 
ATOM     15  N   UNL     1       0.211  -1.411   5.678  0.00  0.00    -0.285 N 
ATOM     16  H   UNL     1       0.292  -1.087   6.589  0.00  0.00    +0.188 HD
ATOM     17  N   UNL     1      -0.984  -1.722   5.017  0.00  0.00    -0.182 NA
ATOM     18  C   UNL     1      -0.690  -2.120   3.806  0.00  0.00    +0.136 A 
ENDBRANCH   1  13
BRANCH   1  19
ATOM     19  N   UNL     1       0.762  -1.980   1.234  0.00  0.00    +0.386 N 
ATOM     20  H   UNL     1      -0.185  -2.329   1.241  0.00  0.00    -0.085 HD
ATOM     21  H   UNL     1       1.234  -2.305   0.403  0.00  0.00    -0.085 HD
BRANCH  19  22
ATOM     22  C   UNL     1       0.742  -0.511   1.242  0.00  0.00    -0.082 C 
BRANCH  22  24
ATOM     23  C   UNL     1      -0.019   1.526   0.010  0.00  0.00    +0.002 C 
ATOM     24  C   UNL     1       0.002  -0.004   0.002  0.00  0.00    -0.022 C 
ENDBRANCH  22  24
ENDBRANCH  19  22
ENDBRANCH   1  19
TORSDOF 5
