REMARK  Name = ZINC63759554
REMARK  7 active torsions:
REMARK  status: ('A' for Active; 'I' for Inactive)
REMARK    1  A    between atoms: C_1  and  C_2
REMARK    2  A    between atoms: C_2  and  C_3
REMARK    3  A    between atoms: C_2  and  C_4
REMARK    4  A    between atoms: C_2  and  C_5
REMARK    5  A    between atoms: C_10  and  C_15
REMARK    6  A    between atoms: N_21  and  C_24
REMARK    7  A    between atoms: C_24  and  C_25
REMARK                            x       y       z     vdW  Elec       q    Type
REMARK                         _______ _______ _______ _____ _____    ______ ____
ROOT
ATOM      1  C   UNL     1       5.348  -1.178  -5.384  0.00  0.00    +0.263 C 
ATOM      2  O   UNL     1       5.481  -1.809  -6.416  0.00  0.00    -0.268 OA
ATOM      3  N   UNL     1       6.376  -0.453  -4.901  0.00  0.00    -0.298 N 
ATOM      4  C   UNL     1       6.240   0.178  -3.573  0.00  0.00    +0.106 C 
ATOM      5  C   UNL     1       7.539   0.042  -2.759  0.00  0.00    +0.000 C 
ATOM      6  C   UNL     1       8.129  -1.333  -2.979  0.00  0.00    -0.077 C 
ATOM      7  N   UNL     1       9.102  -1.272  -4.068  0.00  0.00    +0.386 N 
ATOM      8  C   UNL     1       8.562  -1.463  -5.360  0.00  0.00    -0.059 C 
ATOM      9  C   UNL     1       7.578  -0.327  -5.700  0.00  0.00    +0.089 C 
ATOM     10  H   UNL     1       9.552  -0.369  -4.042  0.00  0.00    -0.081 HD
ENDROOT
BRANCH   1  16
ATOM     11  C   UNL     1       0.324  -0.678  -2.087  0.00  0.00    -0.040 A 
ATOM     12  C   UNL     1      -0.050  -1.830  -2.768  0.00  0.00    +0.005 A 
ATOM     13  C   UNL     1       0.783  -2.394  -3.689  0.00  0.00    +0.010 A 
ATOM     14  C   UNL     1       2.028  -1.809  -3.954  0.00  0.00    +0.000 A 
ATOM     15  C   UNL     1       3.092  -2.140  -4.827  0.00  0.00    +0.040 A 
ATOM     16  C   UNL     1       4.066  -1.207  -4.665  0.00  0.00    +0.103 A 
ATOM     17  N   UNL     1       3.660  -0.289  -3.715  0.00  0.00    -0.351 N 
ATOM     18  H   UNL     1       4.173   0.478  -3.416  0.00  0.00    +0.166 HD
ATOM     19  C   UNL     1       2.409  -0.641  -3.265  0.00  0.00    +0.047 A 
ATOM     20  C   UNL     1       1.540  -0.081  -2.333  0.00  0.00    +0.030 A 
BRANCH  11  22
ATOM     21  C   UNL     1      -0.975   1.351  -1.500  0.00  0.00    +0.015 C 
ATOM     22  C   UNL     1      -0.613  -0.073  -1.073  0.00  0.00    -0.013 C 
ATOM     23  C   UNL     1       0.071  -0.037   0.295  0.00  0.00    +0.015 C 
ATOM     24  C   UNL     1      -1.885  -0.918  -0.986  0.00  0.00    +0.015 C 
ENDBRANCH  11  22
ENDBRANCH   1  16
BRANCH   7  25
ATOM     25  C   UNL     1      10.124  -2.301  -3.836  0.00  0.00    +0.018 C 
BRANCH  25  26
ATOM     26  C   UNL     1      10.916  -1.952  -2.602  0.00  0.00    +0.194 C 
ATOM     27  O   UNL     1      10.729  -0.894  -2.041  0.00  0.00    -0.278 OA
ATOM     28  N   UNL     1      11.832  -2.817  -2.123  0.00  0.00    -0.331 N 
ATOM     29  H   UNL     1      11.981  -3.664  -2.572  0.00  0.00    +0.145 HD
ATOM     30  H   UNL     1      12.341  -2.593  -1.328  0.00  0.00    +0.145 HD
ENDBRANCH  25  26
ENDBRANCH   7  25
TORSDOF 4
