REMARK  Name = ZINC33713292
REMARK  12 active torsions:
REMARK  status: ('A' for Active; 'I' for Inactive)
REMARK    1  A    between atoms: C_1  and  C_2
REMARK    2  A    between atoms: C_2  and  C_3
REMARK    3  A    between atoms: C_3  and  C_4
REMARK    4  A    between atoms: C_5  and  C_21
REMARK    5  A    between atoms: C_6  and  C_18
REMARK    6  A    between atoms: C_7  and  C_17
REMARK    7  A    between atoms: N_8  and  C_9
REMARK    8  A    between atoms: C_9  and  C_10
REMARK    9  A    between atoms: C_10  and  N_11
REMARK   10  A    between atoms: C_22  and  C_34
REMARK   11  A    between atoms: N_23  and  C_33
REMARK   12  A    between atoms: N_24  and  C_27
REMARK                            x       y       z     vdW  Elec       q    Type
REMARK                         _______ _______ _______ _____ _____    ______ ____
ROOT
ATOM      1  C   UNL     1      -3.064   1.701   1.966  0.00  0.00    +0.028 A 
ATOM      2  C   UNL     1      -2.555   1.741   0.709  0.00  0.00    +0.022 A 
ATOM      3  C   UNL     1      -3.647   1.320  -0.187  0.00  0.00    +0.065 A 
ATOM      4  C   UNL     1      -4.723   1.069   0.619  0.00  0.00    +0.028 A 
ATOM      5  N   UNL     1      -4.368   1.302   1.897  0.00  0.00    -0.348 N 
ATOM      6  C   UNL     1      -6.080   0.609   0.154  0.00  0.00    +0.064 C 
ENDROOT
BRANCH   2   7
ATOM      7  C   UNL     1      -1.177   2.124   0.316  0.00  0.00    +0.071 A 
ATOM      8  C   UNL     1      -0.743   3.375   0.004  0.00  0.00    +0.046 A 
ATOM      9  N   UNL     1       0.584   3.309  -0.308  0.00  0.00    -0.283 N 
ATOM     10  N   UNL     1       1.024   1.987  -0.191  0.00  0.00    -0.217 N 
ATOM     11  C   UNL     1      -0.022   1.226   0.193  0.00  0.00    +0.280 A 
ATOM     12  O   UNL     1      -0.012   0.026   0.394  0.00  0.00    -0.265 OA
ATOM     13  C   UNL     1       1.418   4.447  -0.705  0.00  0.00    +0.171 C 
ATOM     14  C   UNL     1      -1.587   4.623  -0.002  0.00  0.00    +0.066 C 
BRANCH  10  15
ATOM     15  C   UNL     1       2.324   1.531  -0.431  0.00  0.00    +0.067 A 
ATOM     16  C   UNL     1       2.985   1.895  -1.597  0.00  0.00    +0.028 A 
ATOM     17  C   UNL     1       4.271   1.448  -1.829  0.00  0.00    +0.002 A 
ATOM     18  C   UNL     1       4.896   0.628  -0.906  0.00  0.00    +0.000 A 
ATOM     19  C   UNL     1       4.239   0.260   0.253  0.00  0.00    +0.002 A 
ATOM     20  C   UNL     1       2.955   0.708   0.493  0.00  0.00    +0.028 A 
ENDBRANCH  10  15
ENDBRANCH   2   7
BRANCH   3  21
ATOM     21  C   UNL     1      -3.591   1.195  -1.651  0.00  0.00    +0.244 C 
ATOM     22  O   UNL     1      -3.261   0.140  -2.159  0.00  0.00    -0.270 OA
ATOM     23  N   UNL     1      -3.905   2.249  -2.430  0.00  0.00    -0.325 N 
ATOM     24  H   UNL     1      -3.864   2.155  -3.525  0.00  0.00    +0.145 HD
ATOM     25  H   UNL     1      -4.204   3.203  -1.970  0.00  0.00    +0.145 HD
ENDBRANCH   3  21
BRANCH   1  26
ATOM     26  C   UNL     1      -2.316   2.044   3.228  0.00  0.00    +0.054 C 
BRANCH  26  28
ATOM     27  C   UNL     1      -0.884   1.134   5.062  0.00  0.00    +0.004 C 
ATOM     28  C   UNL     1      -1.644   0.785   3.781  0.00  0.00    +0.003 C 
ENDBRANCH  26  28
ENDBRANCH   1  26
BRANCH   5  29
ATOM     29  C   UNL     1      -5.255   1.143   3.051  0.00  0.00    +0.103 C 
BRANCH  29  30
ATOM     30  C   UNL     1      -5.144  -0.286   3.587  0.00  0.00    -0.057 C 
BRANCH  30  31
ATOM     31  N   UNL     1      -6.034  -0.446   4.745  0.00  0.00    +0.381 N 
ATOM     32  C   UNL     1      -5.590   0.390   5.868  0.00  0.00    -0.079 C 
ATOM     33  C   UNL     1      -6.616   0.311   7.001  0.00  0.00    -0.019 C 
ATOM     34  C   UNL     1      -6.762  -1.146   7.450  0.00  0.00    -0.004 C 
ATOM     35  C   UNL     1      -7.178  -2.002   6.251  0.00  0.00    -0.019 C 
ATOM     36  C   UNL     1      -6.136  -1.856   5.140  0.00  0.00    -0.079 C 
ATOM     37  H   UNL     1      -7.038  -0.106   4.451  0.00  0.00    -0.082 HD
ENDBRANCH  30  31
ENDBRANCH  29  30
ENDBRANCH   5  29
TORSDOF 8
