REMARK  Name = ZINC09334869
REMARK  5 active torsions:
REMARK  status: ('A' for Active; 'I' for Inactive)
REMARK    1  A    between atoms: C_1  and  C_2
REMARK    2  A    between atoms: C_5  and  N_9
REMARK    3  A    between atoms: C_12  and  C_18
REMARK    4  A    between atoms: C_13  and  O_17
REMARK    5  A    between atoms: C_15  and  O_16
REMARK                            x       y       z     vdW  Elec       q    Type
REMARK                         _______ _______ _______ _____ _____    ______ ____
ROOT
ATOM      1  N   UNL     1       5.708  -3.147   3.127  0.00  0.00    -0.231 N 
ATOM      2  C   UNL     1       4.755  -3.707   2.353  0.00  0.00    +0.267 A 
ATOM      3  O   UNL     1       3.711  -4.107   2.845  0.00  0.00    -0.267 OA
ATOM      4  C   UNL     1       4.987  -3.828   0.978  0.00  0.00    +0.071 A 
ATOM      5  C   UNL     1       6.181  -3.356   0.461  0.00  0.00    +0.224 A 
ATOM      6  N   UNL     1       7.086  -2.805   1.277  0.00  0.00    -0.161 NA
ATOM      7  C   UNL     1       6.865  -2.700   2.568  0.00  0.00    +0.306 A 
ENDROOT
BRANCH   4   8
ATOM      8  C   UNL     1       3.954  -4.453   0.076  0.00  0.00    +0.018 C 
ATOM      9  C   UNL     1       2.709  -3.596   0.059  0.00  0.00    +0.011 A 
ATOM     10  C   UNL     1       1.464  -4.111   0.138  0.00  0.00    -0.022 A 
ATOM     11  C   UNL     1       0.527  -2.996   0.096  0.00  0.00    +0.003 A 
ATOM     12  C   UNL     1      -0.865  -2.886   0.138  0.00  0.00    +0.010 A 
ATOM     13  C   UNL     1      -1.452  -1.654   0.073  0.00  0.00    +0.001 A 
ATOM     14  C   UNL     1      -0.676  -0.508  -0.034  0.00  0.00    +0.002 A 
ATOM     15  C   UNL     1       0.698  -0.592  -0.077  0.00  0.00    +0.026 A 
ATOM     16  C   UNL     1       1.318  -1.835  -0.013  0.00  0.00    +0.047 A 
ATOM     17  N   UNL     1       2.636  -2.237  -0.032  0.00  0.00    -0.359 N 
ATOM     18  H   UNL     1       3.399  -1.642  -0.099  0.00  0.00    +0.166 HD
ATOM     19  C   UNL     1       1.172  -5.585   0.245  0.00  0.00    +0.018 C 
ATOM     20  C   UNL     1       2.447  -6.348  -0.144  0.00  0.00    -0.076 C 
ATOM     21  N   UNL     1       3.601  -5.793   0.594  0.00  0.00    +0.388 N 
ATOM     22  H   UNL     1       3.360  -5.718   1.589  0.00  0.00    -0.084 HD
ATOM     23  H   UNL     1       4.406  -6.421   0.483  0.00  0.00    -0.084 HD
ENDBRANCH   4   8
BRANCH   1  28
ATOM     24  C   UNL     1       4.882  -2.635   8.719  0.00  0.00    +0.045 C 
ATOM     25  C   UNL     1       5.101  -2.771   7.234  0.00  0.00    -0.032 A 
ATOM     26  C   UNL     1       5.700  -3.909   6.726  0.00  0.00    +0.007 A 
ATOM     27  C   UNL     1       5.902  -4.036   5.366  0.00  0.00    +0.027 A 
ATOM     28  C   UNL     1       5.503  -3.021   4.508  0.00  0.00    +0.056 A 
ATOM     29  C   UNL     1       4.906  -1.877   5.020  0.00  0.00    +0.046 A 
ATOM     30  C   UNL     1       4.702  -1.757   6.382  0.00  0.00    +0.046 A 
ATOM     31 CL   UNL     1       3.950  -0.329   7.024  0.00  0.00    -0.083 Cl
ENDBRANCH   1  28
BRANCH   7  32
ATOM     32  O   UNL     1       7.804  -2.137   3.356  0.00  0.00    -0.479 OA
ATOM     33  H   UNL     1       8.614  -1.831   2.924  0.00  0.00    +0.295 HD
ENDBRANCH   7  32
BRANCH   5  34
ATOM     34  O   UNL     1       6.433  -3.454  -0.865  0.00  0.00    -0.492 OA
ATOM     35  H   UNL     1       7.293  -3.097  -1.129  0.00  0.00    +0.294 HD
ENDBRANCH   5  34
TORSDOF 4
