REMARK  Name = ZINC52067331
REMARK  8 active torsions:
REMARK  status: ('A' for Active; 'I' for Inactive)
REMARK    1  A    between atoms: C_1  and  C_2
REMARK    2  A    between atoms: C_2  and  N_3
REMARK    3  A    between atoms: N_3  and  C_4
REMARK    4  A    between atoms: C_4  and  C_6
REMARK    5  A    between atoms: C_4  and  C_7
REMARK    6  A    between atoms: C_12  and  O_13
REMARK    7  A    between atoms: O_13  and  C_14
REMARK    8  A    between atoms: C_14  and  C_15
REMARK                            x       y       z     vdW  Elec       q    Type
REMARK                         _______ _______ _______ _____ _____    ______ ____
ROOT
ATOM      1  C   UNL     1      -2.763  -2.504   0.139  0.00  0.00    -0.019 A 
ATOM      2  C   UNL     1      -3.831  -1.726  -0.267  0.00  0.00    +0.020 A 
ATOM      3  C   UNL     1      -5.123  -2.205  -0.144  0.00  0.00    +0.018 A 
ATOM      4  C   UNL     1      -5.349  -3.463   0.386  0.00  0.00    +0.019 A 
ATOM      5  C   UNL     1      -4.284  -4.244   0.793  0.00  0.00    +0.047 A 
ATOM      6  C   UNL     1      -2.987  -3.767   0.665  0.00  0.00    +0.123 A 
ATOM      7 BR   UNL     1      -6.582  -1.139  -0.701  0.00  0.00    -0.050 Br
ENDROOT
BRANCH   1   8
ATOM      8  C   UNL     1      -1.356  -1.981   0.004  0.00  0.00    -0.040 C 
ATOM      9  C   UNL     1      -0.752  -2.476  -1.312  0.00  0.00    -0.009 C 
BRANCH   8  10
ATOM     10  N   UNL     1      -1.376  -0.512   0.012  0.00  0.00    +0.383 N 
ATOM     11  H   UNL     1      -1.848  -0.187   0.843  0.00  0.00    -0.085 HD
ATOM     12  H   UNL     1      -1.864  -0.178  -0.805  0.00  0.00    -0.085 HD
BRANCH  10  14
ATOM     13  C   UNL     1      -0.019   1.526   0.010  0.00  0.00    -0.017 C 
ATOM     14  C   UNL     1       0.002  -0.004   0.002  0.00  0.00    -0.085 C 
ENDBRANCH  10  14
ENDBRANCH   8  10
ENDBRANCH   1   8
BRANCH   6  15
ATOM     15  O   UNL     1      -1.938  -4.535   1.061  0.00  0.00    -0.483 OA
BRANCH  15  16
ATOM     16  C   UNL     1      -2.244  -5.826   1.593  0.00  0.00    +0.325 C 
BRANCH  16  17
ATOM     17  C   UNL     1      -0.965  -6.527   1.975  0.00  0.00    +0.258 C 
ATOM     18  O   UNL     1       0.102  -5.976   1.807  0.00  0.00    -0.272 OA
ATOM     19  N   UNL     1      -1.008  -7.766   2.502  0.00  0.00    -0.238 N 
ATOM     20  C   UNL     1       0.135  -8.394   2.844  0.00  0.00    +0.303 C 
ATOM     21  O   UNL     1       1.205  -7.841   2.675  0.00  0.00    -0.253 OA
ATOM     22  N   UNL     1       0.092  -9.633   3.371  0.00  0.00    -0.313 N 
ATOM     23  H   UNL     1      -1.862  -8.207   2.637  0.00  0.00    +0.159 HD
ATOM     24  H   UNL     1      -0.761 -10.074   3.505  0.00  0.00    +0.146 HD
ATOM     25  H   UNL     1       0.915 -10.085   3.616  0.00  0.00    +0.146 HD
ENDBRANCH  16  17
ENDBRANCH  15  16
ENDBRANCH   6  15
TORSDOF 6
