REMARK  Name = ZINC04727809
REMARK  2 active torsions:
REMARK  status: ('A' for Active; 'I' for Inactive)
REMARK    1  A    between atoms: C_5  and  C_6
REMARK    2  A    between atoms: C_14  and  N_42
REMARK                            x       y       z     vdW  Elec       q    Type
REMARK                         _______ _______ _______ _____ _____    ______ ____
ROOT
ATOM      1  C   UNL     1       4.643   0.915   0.309  0.00  0.00    -0.006 C 
ATOM      2  C   UNL     1       6.026   1.569   0.298  0.00  0.00    -0.077 C 
ATOM      3  C   UNL     1       6.928  -0.180   1.711  0.00  0.00    -0.077 C 
ATOM      4  C   UNL     1       5.572  -0.886   1.765  0.00  0.00    -0.006 C 
ATOM      5  C   UNL     1       4.455   0.152   1.623  0.00  0.00    +0.072 C 
ATOM      6  N   UNL     1       7.056   0.515   0.413  0.00  0.00    +0.388 N 
ATOM      7  H   UNL     1       6.922  -0.166  -0.344  0.00  0.00    -0.081 HD
ENDROOT
BRANCH   5   8
ATOM      8  C   UNL     1       3.118  -0.543   1.615  0.00  0.00    +0.219 C 
ATOM      9  O   UNL     1       3.046  -1.714   1.308  0.00  0.00    -0.275 OA
ATOM     10  N   UNL     1       2.003   0.136   1.950  0.00  0.00    -0.297 N 
ATOM     11  C   UNL     1       2.077   1.527   2.424  0.00  0.00    +0.136 C 
ATOM     12  C   UNL     1       1.276   1.637   3.726  0.00  0.00    +0.179 C 
ATOM     13  O   UNL     1      -0.035   1.106   3.519  0.00  0.00    -0.377 OA
ATOM     14  C   UNL     1      -0.057  -0.283   3.183  0.00  0.00    +0.179 C 
ATOM     15  C   UNL     1       0.676  -0.492   1.853  0.00  0.00    +0.136 C 
ENDBRANCH   5   8
BRANCH   6  16
ATOM     16  C   UNL     1       8.403   1.109   0.289  0.00  0.00    +0.028 C 
ATOM     17  C   UNL     1       8.554   1.797  -1.083  0.00  0.00    +0.090 C 
ATOM     18  C   UNL     1       8.829   3.241  -0.728  0.00  0.00    +0.218 C 
ATOM     19  O   UNL     1       9.012   4.138  -1.524  0.00  0.00    -0.275 OA
ATOM     20  N   UNL     1       8.838   3.374   0.604  0.00  0.00    -0.258 N 
ATOM     21  C   UNL     1       8.611   2.236   1.279  0.00  0.00    +0.206 C 
ATOM     22  O   UNL     1       8.576   2.126   2.485  0.00  0.00    -0.277 OA
ATOM     23  H   UNL     1       8.996   4.222   1.046  0.00  0.00    +0.157 HD
ENDBRANCH   6  16
TORSDOF 2
