REMARK  Name = ZINC40544704
REMARK  6 active torsions:
REMARK  status: ('A' for Active; 'I' for Inactive)
REMARK    1  A    between atoms: C_1  and  C_2
REMARK    2  A    between atoms: C_2  and  C_14
REMARK    3  A    between atoms: C_3  and  C_4
REMARK    4  A    between atoms: C_8  and  N_11
REMARK    5  A    between atoms: C_9  and  O_10
REMARK    6  A    between atoms: C_14  and  O_15
REMARK                            x       y       z     vdW  Elec       q    Type
REMARK                         _______ _______ _______ _____ _____    ______ ____
ROOT
ATOM      1  C   UNL     1       0.111   0.100   2.402  0.00  0.00    +0.019 A 
ATOM      2  C   UNL     1      -0.121   1.475   2.430  0.00  0.00    +0.011 A 
ATOM      3  C   UNL     1      -0.116   2.150   3.633  0.00  0.00    +0.003 A 
ATOM      4  C   UNL     1       0.120   1.467   4.814  0.00  0.00    +0.036 A 
ATOM      5  C   UNL     1       0.351   0.105   4.799  0.00  0.00    +0.168 A 
ATOM      6  C   UNL     1       0.343  -0.588   3.599  0.00  0.00    +0.154 A 
ENDROOT
BRANCH   1   9
ATOM      7  C   UNL     1      -1.886   0.661   0.488  0.00  0.00    +0.041 C 
ATOM      8  C   UNL     1      -0.784  -0.320   0.183  0.00  0.00    -0.047 C 
ATOM      9  C   UNL     1       0.106  -0.628   1.117  0.00  0.00    +0.013 C 
BRANCH   8  10
ATOM     10  C   UNL     1      -0.692  -0.950  -1.183  0.00  0.00    +0.186 C 
BRANCH  10  11
ATOM     11  O   UNL     1       0.428  -1.837  -1.224  0.00  0.00    -0.391 OA
ATOM     12  H   UNL     1       0.548  -2.279  -2.076  0.00  0.00    +0.210 HD
ENDBRANCH  10  11
ENDBRANCH   8  10
ENDBRANCH   1   9
BRANCH   5  13
ATOM     13  N   UNL     1       0.603  -0.616   6.067  0.00  0.00    +0.060 N 
ATOM     14  O   UNL     1       0.605  -0.013   7.115  0.00  0.00    -0.126 OA
ATOM     15  O   UNL     1       0.805  -1.808   6.055  0.00  0.00    -0.126 OA
ENDBRANCH   5  13
BRANCH   6  16
ATOM     16  O   UNL     1       0.565  -1.928   3.584  0.00  0.00    -0.504 OA
ATOM     17  H   UNL     1       1.497  -2.171   3.495  0.00  0.00    +0.292 HD
ENDBRANCH   6  16
TORSDOF 5
