REMARK  Name = ZINC42404672
REMARK  7 active torsions:
REMARK  status: ('A' for Active; 'I' for Inactive)
REMARK    1  A    between atoms: C_1  and  C_2
REMARK    2  A    between atoms: C_2  and  C_3
REMARK    3  A    between atoms: C_3  and  C_4
REMARK    4  A    between atoms: C_8  and  C_23
REMARK    5  A    between atoms: C_10  and  N_13
REMARK    6  A    between atoms: C_18  and  C_20
REMARK    7  A    between atoms: C_23  and  N_24
REMARK                            x       y       z     vdW  Elec       q    Type
REMARK                         _______ _______ _______ _____ _____    ______ ____
ROOT
ATOM      1  C   UNL     1      -1.022  -3.284  -1.453  0.00  0.00    -0.009 C 
ATOM      2  C   UNL     1      -1.008  -4.034  -2.787  0.00  0.00    +0.004 C 
ATOM      3  C   UNL     1      -1.473  -5.475  -2.566  0.00  0.00    +0.003 C 
ATOM      4  C   UNL     1      -2.894  -5.471  -1.998  0.00  0.00    -0.011 C 
ATOM      5  C   UNL     1      -2.908  -4.720  -0.665  0.00  0.00    +0.059 C 
ATOM      6  C   UNL     1      -2.442  -3.280  -0.885  0.00  0.00    +0.022 C 
ENDROOT
BRANCH   5   7
ATOM      7  N   UNL     1      -4.272  -4.716  -0.119  0.00  0.00    -0.288 NA
ATOM      8  C   UNL     1      -5.050  -3.593  -0.657  0.00  0.00    +0.085 C 
ATOM      9  C   UNL     1      -6.412  -3.535   0.039  0.00  0.00    +0.015 C 
ATOM     10  C   UNL     1      -7.155  -4.853  -0.193  0.00  0.00    +0.003 C 
ATOM     11  C   UNL     1      -6.302  -6.011   0.333  0.00  0.00    +0.028 C 
ATOM     12  C   UNL     1      -4.943  -5.997  -0.372  0.00  0.00    +0.143 C 
BRANCH  12  13
ATOM     13  C   UNL     1      -4.092  -7.123   0.157  0.00  0.00    +0.228 C 
ATOM     14  O   UNL     1      -3.343  -6.930   1.091  0.00  0.00    -0.274 OA
ATOM     15  N   UNL     1      -4.163  -8.345  -0.409  0.00  0.00    -0.328 N 
ATOM     16  H   UNL     1      -4.762  -8.499  -1.156  0.00  0.00    +0.145 HD
ATOM     17  H   UNL     1      -3.616  -9.069  -0.069  0.00  0.00    +0.145 HD
ENDBRANCH  12  13
ENDBRANCH   5   7
BRANCH   1  18
ATOM     18  C   UNL     1      -0.556  -1.843  -1.674  0.00  0.00    +0.003 C 
BRANCH  18  20
ATOM     19  C   UNL     1       1.371  -0.402  -2.344  0.00  0.00    +0.004 C 
ATOM     20  C   UNL     1       0.906  -1.843  -2.123  0.00  0.00    -0.003 C 
ENDBRANCH  18  20
ENDBRANCH   1  18
BRANCH   4  21
ATOM     21  C   UNL     1      -3.835  -4.776  -2.984  0.00  0.00    -0.081 C 
BRANCH  21  22
ATOM     22  N   UNL     1      -3.728  -5.420  -4.300  0.00  0.00    +0.378 N 
ATOM     23  H   UNL     1      -2.779  -5.348  -4.634  0.00  0.00    -0.090 HD
ATOM     24  H   UNL     1      -3.984  -6.393  -4.220  0.00  0.00    -0.090 HD
ATOM     25  H   UNL     1      -4.349  -4.962  -4.950  0.00  0.00    -0.090 HD
ENDBRANCH  21  22
ENDBRANCH   4  21
TORSDOF 6
