REMARK  Name = ZINC41152412
REMARK  6 active torsions:
REMARK  status: ('A' for Active; 'I' for Inactive)
REMARK    1  A    between atoms: C_1  and  C_2
REMARK    2  A    between atoms: C_2  and  C_3
REMARK    3  A    between atoms: C_3  and  C_4
REMARK    4  A    between atoms: C_3  and  C_5
REMARK    5  A    between atoms: C_3  and  N_17
REMARK    6  A    between atoms: C_7  and  C_10
REMARK                            x       y       z     vdW  Elec       q    Type
REMARK                         _______ _______ _______ _____ _____    ______ ____
ROOT
ATOM      1  C   UNL     1      -1.413  -2.041   0.005  0.00  0.00    +0.161 A 
ATOM      2  N   UNL     1      -2.486  -2.829  -0.089  0.00  0.00    -0.193 NA
ATOM      3  C   UNL     1      -2.120  -4.091  -0.068  0.00  0.00    +0.258 A 
ATOM      4  O   UNL     1      -0.780  -4.133   0.043  0.00  0.00    -0.333 OA
ATOM      5  N   UNL     1      -0.344  -2.782   0.083  0.00  0.00    -0.062 NA
ENDROOT
BRANCH   3   6
ATOM      6  C   UNL     1      -3.022  -5.258  -0.150  0.00  0.00    +0.039 A 
ATOM      7  C   UNL     1      -4.400  -5.072  -0.269  0.00  0.00    +0.014 A 
ATOM      8  C   UNL     1      -5.237  -6.166  -0.345  0.00  0.00    +0.016 A 
ATOM      9  C   UNL     1      -4.712  -7.447  -0.304  0.00  0.00    +0.018 A 
ATOM     10  C   UNL     1      -3.345  -7.638  -0.186  0.00  0.00    +0.016 A 
ATOM     11  C   UNL     1      -2.498  -6.552  -0.115  0.00  0.00    +0.014 A 
ATOM     12 BR   UNL     1      -5.866  -8.941  -0.408  0.00  0.00    -0.050 Br
ENDBRANCH   3   6
BRANCH   1  13
ATOM     13  C   UNL     1      -1.433  -0.534   0.013  0.00  0.00    -0.009 C 
ATOM     14  C   UNL     1      -2.149  -0.040   1.272  0.00  0.00    -0.003 C 
BRANCH  13  15
ATOM     15  N   UNL     1      -2.144  -0.047  -1.177  0.00  0.00    +0.386 N 
ATOM     16  H   UNL     1      -1.671  -0.372  -2.007  0.00  0.00    -0.089 HD
ATOM     17  H   UNL     1      -3.090  -0.396  -1.170  0.00  0.00    -0.089 HD
ATOM     18  H   UNL     1      -2.158   0.962  -1.172  0.00  0.00    -0.089 HD
ENDBRANCH  13  15
BRANCH  13  20
ATOM     19  C   UNL     1      -0.019   1.526   0.010  0.00  0.00    +0.003 C 
ATOM     20  C   UNL     1       0.002  -0.004   0.002  0.00  0.00    -0.009 C 
ENDBRANCH  13  20
ENDBRANCH   1  13
TORSDOF 4
