REMARK  Name = ZINC13637959
REMARK  6 active torsions:
REMARK  status: ('A' for Active; 'I' for Inactive)
REMARK    1  A    between atoms: C_1  and  C_2
REMARK    2  A    between atoms: C_5  and  N_9
REMARK    3  A    between atoms: C_7  and  C_8
REMARK    4  A    between atoms: C_19  and  N_20
REMARK    5  A    between atoms: N_20  and  C_21
REMARK    6  A    between atoms: C_26  and  C_27
REMARK                            x       y       z     vdW  Elec       q    Type
REMARK                         _______ _______ _______ _____ _____    ______ ____
ROOT
ATOM      1  N   UNL     1       0.242  -4.189  -0.035  0.00  0.00    -0.202 N 
ATOM      2  C   UNL     1       0.465  -4.836   1.121  0.00  0.00    +0.258 C 
ATOM      3  O   UNL     1       0.583  -4.198   2.150  0.00  0.00    -0.269 OA
ATOM      4  C   UNL     1       0.569  -6.300   1.163  0.00  0.00    +0.046 A 
ATOM      5  C   UNL     1       0.799  -6.978   2.361  0.00  0.00    +0.014 A 
ATOM      6  C   UNL     1       0.890  -8.354   2.358  0.00  0.00    +0.001 A 
ATOM      7  C   UNL     1       0.754  -9.071   1.179  0.00  0.00    +0.001 A 
ATOM      8  C   UNL     1       0.526  -8.420  -0.016  0.00  0.00    +0.009 A 
ATOM      9  C   UNL     1       0.431  -7.033  -0.034  0.00  0.00    +0.000 A 
ATOM     10  C   UNL     1       0.187  -6.286  -1.285  0.00  0.00    +0.059 C 
ATOM     11  C   UNL     1       0.043  -6.944  -2.488  0.00  0.00    +0.085 C 
ATOM     12  C   UNL     1       0.096  -4.824  -1.209  0.00  0.00    +0.259 C 
ATOM     13  O   UNL     1      -0.109  -4.179  -2.221  0.00  0.00    -0.269 OA
ENDROOT
BRANCH   1  18
ATOM     14  C   UNL     1      -0.123   1.473   0.051  0.00  0.00    +0.044 C 
ATOM     15  C   UNL     1      -0.026  -0.030   0.029  0.00  0.00    -0.047 A 
ATOM     16  C   UNL     1       1.123  -0.655   0.478  0.00  0.00    +0.005 A 
ATOM     17  C   UNL     1       1.215  -2.033   0.459  0.00  0.00    +0.024 A 
ATOM     18  C   UNL     1       0.152  -2.791  -0.013  0.00  0.00    +0.045 A 
ATOM     19  C   UNL     1      -1.000  -2.161  -0.464  0.00  0.00    +0.027 A 
ATOM     20  C   UNL     1      -1.088  -0.783  -0.437  0.00  0.00    -0.046 A 
ATOM     21  C   UNL     1      -2.341  -0.099  -0.920  0.00  0.00    +0.044 C 
ENDBRANCH   1  18
BRANCH  11  22
ATOM     22  N   UNL     1      -0.015  -6.237  -3.647  0.00  0.00    -0.319 N 
ATOM     23  H   UNL     1       0.124  -5.277  -3.637  0.00  0.00    +0.152 HD
BRANCH  22  24
ATOM     24  C   UNL     1      -0.275  -6.891  -4.852  0.00  0.00    +0.040 A 
ATOM     25  C   UNL     1      -0.372  -8.275  -4.886  0.00  0.00    +0.024 A 
ATOM     26  C   UNL     1      -0.630  -8.921  -6.080  0.00  0.00    +0.002 A 
ATOM     27  C   UNL     1      -0.793  -8.195  -7.247  0.00  0.00    +0.001 A 
ATOM     28  C   UNL     1      -0.699  -6.818  -7.229  0.00  0.00    +0.012 A 
ATOM     29  C   UNL     1      -0.446  -6.154  -6.030  0.00  0.00    +0.029 A 
BRANCH  29  30
ATOM     30  C   UNL     1      -0.351  -4.676  -6.004  0.00  0.00    +0.159 A 
ATOM     31  C   UNL     1      -1.417  -3.892  -6.457  0.00  0.00    +0.279 A 
ATOM     32  N   UNL     1      -1.287  -2.536  -6.415  0.00  0.00    -0.298 N 
ATOM     33  C   UNL     1      -0.141  -2.006  -5.941  0.00  0.00    +0.201 A 
ATOM     34  N   UNL     1       0.850  -2.799  -5.520  0.00  0.00    -0.123 NA
ATOM     35  N   UNL     1       0.749  -4.080  -5.544  0.00  0.00    -0.141 NA
ATOM     36  S   UNL     1       0.047  -0.306  -5.878  0.00  0.00    -0.009 S 
ATOM     37  O   UNL     1      -2.545  -4.463  -6.924  0.00  0.00    -0.265 OA
ATOM     38  H   UNL     1      -2.006  -1.962  -6.721  0.00  0.00    +0.171 HD
ENDBRANCH  29  30
ENDBRANCH  22  24
ENDBRANCH  11  22
TORSDOF 4
