REMARK  Name = ZINC45023647
REMARK  5 active torsions:
REMARK  status: ('A' for Active; 'I' for Inactive)
REMARK    1  A    between atoms: C_1  and  O_2
REMARK    2  A    between atoms: O_2  and  C_3
REMARK    3  A    between atoms: C_6  and  C_18
REMARK    4  A    between atoms: C_8  and  O_9
REMARK    5  A    between atoms: O_9  and  C_10
REMARK                            x       y       z     vdW  Elec       q    Type
REMARK                         _______ _______ _______ _____ _____    ______ ____
ROOT
ATOM      1  O   UNL     1       0.107  -2.750  -0.134  0.00  0.00    -0.434 OA
ENDROOT
BRANCH   1   2
ATOM      2  C   UNL     1      -1.235  -2.935  -0.148  0.00  0.00    +0.226 A 
ATOM      3  C   UNL     1      -1.867  -3.603   0.899  0.00  0.00    +0.107 A 
ATOM      4  C   UNL     1      -3.240  -3.769   0.844  0.00  0.00    +0.138 A 
ATOM      5  N   UNL     1      -3.908  -3.291  -0.197  0.00  0.00    -0.203 NA
ATOM      6  C   UNL     1      -3.279  -2.661  -1.178  0.00  0.00    +0.217 A 
ATOM      7  N   UNL     1      -1.967  -2.478  -1.157  0.00  0.00    -0.179 NA
ATOM      8  N   UNL     1      -4.011  -2.177  -2.248  0.00  0.00    -0.327 N 
ATOM      9 CL   UNL     1      -4.078  -4.593   2.121  0.00  0.00    -0.062 Cl
ATOM     10  H   UNL     1      -4.973  -2.300  -2.273  0.00  0.00    +0.145 HD
ATOM     11  H   UNL     1      -3.562  -1.713  -2.972  0.00  0.00    +0.145 HD
ENDBRANCH   1   2
BRANCH   1  17
ATOM     12  C   UNL     1       0.718  -0.666  -1.122  0.00  0.00    +0.162 A 
ATOM     13  C   UNL     1       1.294   0.043  -2.168  0.00  0.00    +0.050 A 
ATOM     14  C   UNL     1       1.814  -0.625  -3.253  0.00  0.00    +0.015 A 
ATOM     15  C   UNL     1       1.763  -2.024  -3.304  0.00  0.00    +0.018 A 
ATOM     16  C   UNL     1       1.182  -2.738  -2.249  0.00  0.00    +0.061 A 
ATOM     17  C   UNL     1       0.667  -2.060  -1.162  0.00  0.00    +0.172 A 
BRANCH  12  19
ATOM     18  C   UNL     1       0.292   1.425  -0.077  0.00  0.00    +0.277 C 
ATOM     19  O   UNL     1       0.207  -0.002  -0.054  0.00  0.00    -0.491 OA
ENDBRANCH  12  19
BRANCH  15  20
ATOM     20  C   UNL     1       2.316  -2.739  -4.462  0.00  0.00    +0.258 C 
ATOM     21  O   UNL     1       2.818  -2.119  -5.375  0.00  0.00    -0.296 OA
ENDBRANCH  15  20
ENDBRANCH   1  17
TORSDOF 4
