REMARK  Name = ZINC33469561
REMARK  5 active torsions:
REMARK  status: ('A' for Active; 'I' for Inactive)
REMARK    1  A    between atoms: C_4  and  N_7
REMARK    2  A    between atoms: C_9  and  C_19
REMARK    3  A    between atoms: C_10  and  C_12
REMARK    4  A    between atoms: C_24  and  C_34
REMARK    5  A    between atoms: N_26  and  C_27
REMARK                            x       y       z     vdW  Elec       q    Type
REMARK                         _______ _______ _______ _____ _____    ______ ____
ROOT
ATOM      1  N   UNL     1       0.825   4.883  -3.312  0.00  0.00    -0.239 N 
ATOM      2  C   UNL     1       0.328   4.688  -2.063  0.00  0.00    +0.122 A 
ATOM      3  C   UNL     1       0.963   3.624  -1.526  0.00  0.00    +0.037 A 
ATOM      4  C   UNL     1       1.879   3.139  -2.480  0.00  0.00    +0.100 A 
ATOM      5  N   UNL     1       1.793   3.899  -3.552  0.00  0.00    -0.166 NA
ENDROOT
BRANCH   3   6
ATOM      6  C   UNL     1       0.728   3.052  -0.152  0.00  0.00    +0.201 C 
ATOM      7  N   UNL     1      -0.243   1.960  -0.238  0.00  0.00    -0.288 N 
ATOM      8  C   UNL     1      -1.564   2.206  -0.122  0.00  0.00    +0.258 C 
ATOM      9  O   UNL     1      -2.368   1.299  -0.238  0.00  0.00    -0.269 OA
ATOM     10  C   UNL     1      -2.026   3.571   0.138  0.00  0.00    +0.142 C 
ATOM     11  C   UNL     1      -1.085   4.516   0.585  0.00  0.00    +0.103 C 
ATOM     12  N   UNL     1       0.215   4.103   0.733  0.00  0.00    -0.270 N 
ATOM     13  S   UNL     1      -1.560   6.176   0.937  0.00  0.00    -0.033 SA
ATOM     14  H   UNL     1       0.102   0.928  -0.398  0.00  0.00    +0.151 HD
BRANCH  12  15
ATOM     15  C   UNL     1       1.037   4.675   1.710  0.00  0.00    +0.036 A 
ATOM     16  C   UNL     1       2.130   5.446   1.335  0.00  0.00    +0.023 A 
ATOM     17  C   UNL     1       2.936   6.013   2.302  0.00  0.00    +0.002 A 
ATOM     18  C   UNL     1       2.663   5.805   3.642  0.00  0.00    +0.000 A 
ATOM     19  C   UNL     1       1.579   5.033   4.018  0.00  0.00    +0.002 A 
ATOM     20  C   UNL     1       0.765   4.468   3.056  0.00  0.00    +0.023 A 
ENDBRANCH  12  15
BRANCH  10  21
ATOM     21  C   UNL     1      -3.398   3.932  -0.054  0.00  0.00    +0.107 C 
ATOM     22  N   UNL     1      -4.487   4.218  -0.206  0.00  0.00    -0.191 NA
ENDBRANCH  10  21
ENDBRANCH   3   6
BRANCH   4  23
ATOM     23  C   UNL     1       2.784   1.975  -2.308  0.00  0.00    +0.003 A 
ATOM     24  C   UNL     1       3.453   1.784  -1.101  0.00  0.00    +0.011 A 
ATOM     25  C   UNL     1       4.289   0.697  -0.943  0.00  0.00    +0.020 A 
ATOM     26  C   UNL     1       4.471  -0.196  -1.985  0.00  0.00    +0.041 A 
ATOM     27  C   UNL     1       3.813  -0.006  -3.188  0.00  0.00    +0.020 A 
ATOM     28  C   UNL     1       2.971   1.074  -3.354  0.00  0.00    +0.011 A 
ATOM     29 CL   UNL     1       5.530  -1.557  -1.783  0.00  0.00    -0.084 Cl
ENDBRANCH   4  23
BRANCH   1  33
ATOM     30  C   UNL     1      -0.336   7.875  -5.971  0.00  0.00    +0.000 A 
ATOM     31  C   UNL     1       0.637   6.964  -6.340  0.00  0.00    +0.002 A 
ATOM     32  C   UNL     1       1.024   5.972  -5.461  0.00  0.00    +0.028 A 
ATOM     33  C   UNL     1       0.435   5.889  -4.206  0.00  0.00    +0.065 A 
ATOM     34  C   UNL     1      -0.546   6.801  -3.841  0.00  0.00    +0.028 A 
ATOM     35  C   UNL     1      -0.925   7.795  -4.723  0.00  0.00    +0.002 A 
ENDBRANCH   1  33
TORSDOF 5
