REMARK  Name = ZINC43147450
REMARK  8 active torsions:
REMARK  status: ('A' for Active; 'I' for Inactive)
REMARK    1  A    between atoms: C_1  and  N_2
REMARK    2  A    between atoms: C_11  and  C_13
REMARK    3  A    between atoms: N_15  and  N_16
REMARK    4  A    between atoms: N_19  and  C_20
REMARK    5  A    between atoms: C_20  and  C_21
REMARK    6  A    between atoms: C_21  and  N_26
REMARK    7  A    between atoms: N_26  and  C_27
REMARK    8  A    between atoms: N_26  and  C_28
REMARK                            x       y       z     vdW  Elec       q    Type
REMARK                         _______ _______ _______ _____ _____    ______ ____
ROOT
ATOM      1  C   UNL     1       2.897  -2.608   0.734  0.00  0.00    +0.281 C 
ATOM      2  O   UNL     1       3.084  -3.808   0.793  0.00  0.00    -0.267 OA
ATOM      3  N   UNL     1       3.938  -1.772   0.557  0.00  0.00    -0.228 N 
ATOM      4  H   UNL     1       3.788  -0.814   0.510  0.00  0.00    +0.173 HD
ENDROOT
BRANCH   1  15
ATOM      5  C   UNL     1       0.080   1.231   0.801  0.00  0.00    +0.176 C 
ATOM      6  N   UNL     1       0.164  -0.229   0.889  0.00  0.00    -0.231 N 
ATOM      7  C   UNL     1      -0.978  -0.924   1.069  0.00  0.00    +0.275 A 
ATOM      8  O   UNL     1      -2.049  -0.352   1.154  0.00  0.00    -0.266 OA
ATOM      9  C   UNL     1      -0.898  -2.389   1.158  0.00  0.00    +0.050 A 
ATOM     10  C   UNL     1      -2.017  -3.196   1.343  0.00  0.00    +0.014 A 
ATOM     11  C   UNL     1      -1.857  -4.564   1.417  0.00  0.00    +0.001 A 
ATOM     12  C   UNL     1      -0.598  -5.139   1.310  0.00  0.00    +0.001 A 
ATOM     13  C   UNL     1       0.522  -4.356   1.128  0.00  0.00    +0.011 A 
ATOM     14  C   UNL     1       0.384  -2.974   1.049  0.00  0.00    +0.020 A 
ATOM     15  C   UNL     1       1.528  -2.068   0.856  0.00  0.00    +0.155 A 
ATOM     16  N   UNL     1       1.316  -0.776   0.788  0.00  0.00    -0.163 NA
ENDBRANCH   1  15
BRANCH   3  17
ATOM     17  N   UNL     1       5.237  -2.284   0.441  0.00  0.00    -0.218 N 
ATOM     18  C   UNL     1       6.278  -1.447   0.264  0.00  0.00    +0.316 C 
ATOM     19  O   UNL     1       7.405  -1.892   0.164  0.00  0.00    -0.251 OA
ATOM     20  N   UNL     1       6.070  -0.117   0.198  0.00  0.00    -0.300 N 
ATOM     21  H   UNL     1       5.386  -3.241   0.488  0.00  0.00    +0.174 HD
ATOM     22  H   UNL     1       5.171   0.238   0.279  0.00  0.00    +0.150 HD
BRANCH  20  23
ATOM     23  C   UNL     1       7.202   0.792   0.006  0.00  0.00    +0.094 C 
BRANCH  23  24
ATOM     24  C   UNL     1       6.686   2.225  -0.145  0.00  0.00    -0.050 C 
ATOM     25  C   UNL     1       5.825   2.344  -1.420  0.00  0.00    -0.010 C 
ATOM     26  C   UNL     1       6.165   3.749  -1.978  0.00  0.00    -0.001 C 
ATOM     27  C   UNL     1       7.683   3.871  -1.694  0.00  0.00    -0.001 C 
ATOM     28  C   UNL     1       7.867   3.195  -0.320  0.00  0.00    -0.010 C 
BRANCH  24  29
ATOM     29  N   UNL     1       5.895   2.601   1.034  0.00  0.00    +0.381 N 
ATOM     30  C   UNL     1       6.746   2.553   2.230  0.00  0.00    -0.096 C 
ATOM     31  C   UNL     1       5.372   3.963   0.859  0.00  0.00    -0.096 C 
ATOM     32  H   UNL     1       5.125   1.957   1.142  0.00  0.00    -0.082 HD
ENDBRANCH  24  29
ENDBRANCH  23  24
ENDBRANCH  20  23
ENDBRANCH   3  17
TORSDOF 5
