REMARK  Name = ZINC57901350
REMARK  7 active torsions:
REMARK  status: ('A' for Active; 'I' for Inactive)
REMARK    1  A    between atoms: C_1  and  C_2
REMARK    2  A    between atoms: C_5  and  C_21
REMARK    3  A    between atoms: C_6  and  O_9
REMARK    4  A    between atoms: C_7  and  C_8
REMARK    5  A    between atoms: O_9  and  C_10
REMARK    6  A    between atoms: C_10  and  C_11
REMARK    7  A    between atoms: C_11  and  C_12
REMARK                            x       y       z     vdW  Elec       q    Type
REMARK                         _______ _______ _______ _____ _____    ______ ____
ROOT
ATOM      1  C   UNL     1       1.146  -3.857   4.221  0.00  0.00    +0.104 C 
ENDROOT
BRANCH   1   2
ATOM      2  C   UNL     1       2.496  -4.185   4.806  0.00  0.00    +0.082 A 
ATOM      3  N   UNL     1       3.213  -3.479   5.645  0.00  0.00    -0.249 NA
ATOM      4  C   UNL     1       4.393  -3.892   6.080  0.00  0.00    +0.048 A 
ATOM      5  C   UNL     1       4.798  -5.096   5.587  0.00  0.00    -0.004 A 
ATOM      6  S   UNL     1       3.446  -5.553   4.543  0.00  0.00    -0.079 S 
ATOM      7  C   UNL     1       6.073  -5.804   5.890  0.00  0.00    -0.038 C 
ATOM      8  N   UNL     1       6.998  -4.840   6.518  0.00  0.00    +0.382 N 
ATOM      9  C   UNL     1       6.313  -4.143   7.614  0.00  0.00    -0.076 C 
ATOM     10  C   UNL     1       5.291  -3.146   7.058  0.00  0.00    +0.037 C 
ATOM     11  H   UNL     1       7.800  -5.332   6.882  0.00  0.00    -0.085 HD
ATOM     12  H   UNL     1       7.300  -4.167   5.829  0.00  0.00    -0.085 HD
ENDBRANCH   1   2
BRANCH   1  13
ATOM     13  C   UNL     1       1.330  -3.087   2.912  0.00  0.00    +0.236 C 
BRANCH  13  14
ATOM     14  O   UNL     1       0.050  -2.776   2.358  0.00  0.00    -0.491 OA
BRANCH  14  20
ATOM     15  C   UNL     1      -0.018   1.503   0.010  0.00  0.00    +0.044 C 
ATOM     16  C   UNL     1       0.002  -0.004   0.002  0.00  0.00    -0.044 A 
ATOM     17  C   UNL     1       0.006  -0.688  -1.200  0.00  0.00    +0.004 A 
ATOM     18  C   UNL     1       0.024  -2.071  -1.211  0.00  0.00    +0.007 A 
ATOM     19  C   UNL     1       0.039  -2.772  -0.020  0.00  0.00    -0.009 A 
ATOM     20  C   UNL     1       0.035  -2.088   1.186  0.00  0.00    +0.127 A 
ATOM     21  C   UNL     1       0.023  -0.700   1.195  0.00  0.00    -0.006 A 
ATOM     22  C   UNL     1       0.026   0.046   2.504  0.00  0.00    +0.048 C 
ATOM     23  C   UNL     1       0.059  -4.279  -0.033  0.00  0.00    +0.047 C 
ENDBRANCH  14  20
ENDBRANCH  13  14
ENDBRANCH   1  13
TORSDOF 4
