REMARK  Name = ZINC36269602
REMARK  5 active torsions:
REMARK  status: ('A' for Active; 'I' for Inactive)
REMARK    1  A    between atoms: C_1  and  O_2
REMARK    2  A    between atoms: O_2  and  C_3
REMARK    3  A    between atoms: C_3  and  C_5
REMARK    4  A    between atoms: C_9  and  N_10
REMARK    5  A    between atoms: C_11  and  C_13
REMARK                            x       y       z     vdW  Elec       q    Type
REMARK                         _______ _______ _______ _____ _____    ______ ____
ROOT
ATOM      1  C   UNL     1      -1.248  -2.096   0.003  0.00  0.00    +0.091 A 
ATOM      2  C   UNL     1      -1.271  -2.858   1.236  0.00  0.00    -0.025 A 
ATOM      3  C   UNL     1      -1.323  -4.198   1.060  0.00  0.00    -0.021 A 
ATOM      4  S   UNL     1      -1.343  -4.419  -0.693  0.00  0.00    -0.079 S 
ATOM      5  C   UNL     1      -1.288  -2.814  -1.185  0.00  0.00    +0.087 A 
ATOM      6  C   UNL     1      -1.353  -5.230   2.143  0.00  0.00    -0.039 C 
ATOM      7  N   UNL     1      -0.934  -4.590   3.404  0.00  0.00    +0.382 N 
ATOM      8  C   UNL     1      -1.709  -3.360   3.614  0.00  0.00    -0.077 C 
ATOM      9  C   UNL     1      -1.246  -2.271   2.640  0.00  0.00    +0.018 C 
ATOM     10  H   UNL     1      -1.096  -5.224   4.172  0.00  0.00    -0.085 HD
ATOM     11  H   UNL     1       0.048  -4.365   3.357  0.00  0.00    -0.085 HD
ENDROOT
BRANCH   5  12
ATOM     12  N   UNL     1      -1.282  -2.320  -2.479  0.00  0.00    -0.274 N 
ATOM     13  C   UNL     1      -1.326  -3.169  -3.525  0.00  0.00    +0.269 C 
ATOM     14  O   UNL     1      -1.370  -4.368  -3.332  0.00  0.00    -0.268 OA
ATOM     15  H   UNL     1      -1.246  -1.363  -2.633  0.00  0.00    +0.156 HD
BRANCH  13  16
ATOM     16  C   UNL     1      -1.319  -2.642  -4.905  0.00  0.00    +0.154 A 
ATOM     17  C   UNL     1      -1.368  -3.466  -6.023  0.00  0.00    +0.155 A 
ATOM     18  N   UNL     1      -1.355  -2.841  -7.173  0.00  0.00    -0.198 NA
ATOM     19  S   UNL     1      -1.284  -1.275  -6.788  0.00  0.00    +0.116 S 
ATOM     20  N   UNL     1      -1.272  -1.348  -5.175  0.00  0.00    -0.186 NA
ENDBRANCH  13  16
ENDBRANCH   5  12
BRANCH   1  21
ATOM     21  C   UNL     1      -1.191  -0.633   0.010  0.00  0.00    +0.342 C 
ATOM     22  O   UNL     1      -2.220   0.016   0.023  0.00  0.00    -0.245 OA
BRANCH  21  24
ATOM     23  C   UNL     1      -0.017   1.425   0.010  0.00  0.00    +0.280 C 
ATOM     24  O   UNL     1       0.002  -0.004   0.002  0.00  0.00    -0.464 OA
ENDBRANCH  21  24
ENDBRANCH   1  21
TORSDOF 4
