REMARK  Name = ZINC06772579
REMARK  7 active torsions:
REMARK  status: ('A' for Active; 'I' for Inactive)
REMARK    1  A    between atoms: C_1  and  C_2
REMARK    2  A    between atoms: C_5  and  N_9
REMARK    3  A    between atoms: C_6  and  C_8
REMARK    4  A    between atoms: C_10  and  C_12
REMARK    5  A    between atoms: C_13  and  N_25
REMARK    6  A    between atoms: N_14  and  C_17
REMARK    7  A    between atoms: C_17  and  C_18
REMARK                            x       y       z     vdW  Elec       q    Type
REMARK                         _______ _______ _______ _____ _____    ______ ____
ROOT
ATOM      1  C   UNL     1       0.011  -2.111  -0.618  0.00  0.00    +0.188 A 
ATOM      2  C   UNL     1      -0.021  -0.805  -1.089  0.00  0.00    +0.147 A 
ATOM      3  N   UNL     1      -0.028  -0.005   0.003  0.00  0.00    -0.226 N 
ATOM      4  N   UNL     1      -0.008  -0.846   1.124  0.00  0.00    -0.063 NA
ATOM      5  N   UNL     1       0.014  -2.069   0.728  0.00  0.00    -0.123 NA
ENDROOT
BRANCH   1   7
ATOM      6  N   UNL     1       0.057  -4.538  -0.856  0.00  0.00    -0.280 N 
ATOM      7  C   UNL     1       0.031  -3.325  -1.443  0.00  0.00    +0.272 C 
ATOM      8  O   UNL     1       0.025  -3.236  -2.657  0.00  0.00    -0.268 OA
ATOM      9  H   UNL     1       0.142  -4.609   0.107  0.00  0.00    +0.155 HD
BRANCH   6  14
ATOM     10  C   UNL     1      -0.336  -9.229  -4.022  0.00  0.00    +0.044 C 
ATOM     11  C   UNL     1      -0.232  -7.983  -3.181  0.00  0.00    -0.050 A 
ATOM     12  C   UNL     1      -0.753  -6.790  -3.648  0.00  0.00    +0.005 A 
ATOM     13  C   UNL     1      -0.659  -5.646  -2.880  0.00  0.00    +0.024 A 
ATOM     14  C   UNL     1      -0.040  -5.695  -1.637  0.00  0.00    +0.037 A 
ATOM     15  C   UNL     1       0.487  -6.893  -1.173  0.00  0.00    -0.029 A 
ATOM     16  C   UNL     1       0.385  -8.035  -1.945  0.00  0.00    +0.008 A 
ATOM     17  C   UNL     1       1.165  -6.949   0.171  0.00  0.00    +0.045 C 
ENDBRANCH   6  14
ENDBRANCH   1   7
BRANCH   2  18
ATOM     18  N   UNL     1      -0.041  -0.402  -2.409  0.00  0.00    -0.341 N 
ATOM     19  H   UNL     1      -0.061   0.543  -2.627  0.00  0.00    +0.144 HD
ATOM     20  H   UNL     1      -0.034  -1.064  -3.118  0.00  0.00    +0.144 HD
ENDBRANCH   2  18
BRANCH   3  21
ATOM     21  C   UNL     1      -0.055   1.460   0.011  0.00  0.00    +0.182 C 
BRANCH  21  22
ATOM     22  C   UNL     1       1.356   1.989   0.010  0.00  0.00    -0.025 A 
ATOM     23  C   UNL     1       1.999   2.239  -1.189  0.00  0.00    +0.005 A 
ATOM     24  C   UNL     1       3.293   2.724  -1.191  0.00  0.00    +0.001 A 
ATOM     25  C   UNL     1       3.945   2.961   0.005  0.00  0.00    +0.015 A 
ATOM     26  C   UNL     1       3.302   2.711   1.204  0.00  0.00    +0.018 A 
ATOM     27  C   UNL     1       2.005   2.230   1.206  0.00  0.00    +0.020 A 
ATOM     28 BR   UNL     1       4.193   3.034   2.840  0.00  0.00    -0.050 Br
ENDBRANCH  21  22
ENDBRANCH   3  21
TORSDOF 5
