REMARK  Name = ZINC08299629
REMARK  4 active torsions:
REMARK  status: ('A' for Active; 'I' for Inactive)
REMARK    1  A    between atoms: C_7  and  C_9
REMARK    2  A    between atoms: C_17  and  C_19
REMARK    3  A    between atoms: C_19  and  N_20
REMARK    4  A    between atoms: C_22  and  C_25
REMARK                            x       y       z     vdW  Elec       q    Type
REMARK                         _______ _______ _______ _____ _____    ______ ____
ROOT
ATOM      1  C   UNL     1       2.121  -0.059   1.227  0.00  0.00    +0.062 C 
ATOM      2  C   UNL     1       0.664  -0.530   1.204  0.00  0.00    -0.065 C 
ATOM      3  C   UNL     1       0.641  -0.517  -1.218  0.00  0.00    -0.078 C 
ATOM      4  C   UNL     1       2.098  -0.045  -1.264  0.00  0.00    -0.015 C 
ATOM      5  C   UNL     1       2.385   0.800  -0.016  0.00  0.00    -0.004 C 
ATOM      6  C   UNL     1       1.420   1.992  -0.001  0.00  0.00    -0.010 C 
ATOM      7  C   UNL     1      -0.018   1.465   0.010  0.00  0.00    -0.046 C 
ATOM      8  N   UNL     1      -0.025  -0.014   0.002  0.00  0.00    +0.383 N 
ATOM      9  H   UNL     1      -0.998  -0.342   0.010  0.00  0.00    -0.081 HD
ENDROOT
BRANCH   1  16
ATOM     10  C   UNL     1       2.567   1.458   7.069  0.00  0.00    +0.120 A 
ATOM     11  C   UNL     1       2.949   2.717   6.745  0.00  0.00    +0.068 A 
ATOM     12  S   UNL     1       2.932   2.620   4.961  0.00  0.00    -0.061 S 
ATOM     13  C   UNL     1       2.423   0.965   4.830  0.00  0.00    +0.164 A 
ATOM     14  N   UNL     1       2.311   0.608   6.094  0.00  0.00    -0.233 NA
ATOM     15  N   UNL     1       2.196   0.209   3.685  0.00  0.00    -0.265 N 
ATOM     16  C   UNL     1       2.367   0.761   2.468  0.00  0.00    +0.220 C 
ATOM     17  O   UNL     1       2.718   1.918   2.371  0.00  0.00    -0.275 OA
ATOM     18  H   UNL     1       1.916  -0.717   3.763  0.00  0.00    +0.157 HD
ENDBRANCH   1  16
BRANCH   7  19
ATOM     19  C   UNL     1      -0.733   1.959   1.269  0.00  0.00    +0.130 C 
BRANCH  19  20
ATOM     20  N   UNL     1      -2.140   1.552   1.223  0.00  0.00    -0.252 N 
ATOM     21  C   UNL     1      -2.803   0.841   2.157  0.00  0.00    +0.143 A 
ATOM     22  C   UNL     1      -4.084   0.695   1.708  0.00  0.00    +0.167 A 
ATOM     23  N   UNL     1      -4.189   1.304   0.514  0.00  0.00    -0.125 NA
ATOM     24  N   UNL     1      -3.055   1.823   0.195  0.00  0.00    -0.065 NA
BRANCH  22  25
ATOM     25  C   UNL     1      -5.169  -0.016   2.411  0.00  0.00    +0.263 C 
ATOM     26  O   UNL     1      -4.957  -0.532   3.492  0.00  0.00    -0.269 OA
ATOM     27  N   UNL     1      -6.394  -0.094   1.856  0.00  0.00    -0.324 N 
ATOM     28  H   UNL     1      -6.563   0.318   0.994  0.00  0.00    +0.145 HD
ATOM     29  H   UNL     1      -7.107  -0.561   2.318  0.00  0.00    +0.145 HD
ENDBRANCH  22  25
ENDBRANCH  19  20
ENDBRANCH   7  19
TORSDOF 4
