REMARK  Name = ZINC13140617
REMARK  9 active torsions:
REMARK  status: ('A' for Active; 'I' for Inactive)
REMARK    1  A    between atoms: C_1  and  C_2
REMARK    2  A    between atoms: C_3  and  C_24
REMARK    3  A    between atoms: C_4  and  S_7
REMARK    4  A    between atoms: S_7  and  C_8
REMARK    5  A    between atoms: C_8  and  C_9
REMARK    6  A    between atoms: N_11  and  N_12
REMARK    7  A    between atoms: C_13  and  C_14
REMARK    8  A    between atoms: C_14  and  O_15
REMARK    9  A    between atoms: O_15  and  C_16
REMARK                            x       y       z     vdW  Elec       q    Type
REMARK                         _______ _______ _______ _____ _____    ______ ____
ROOT
ATOM      1  N   UNL     1      -2.280  -8.574  -0.033  0.00  0.00    -0.293 N 
ATOM      2  C   UNL     1      -1.803  -9.777  -0.042  0.00  0.00    +0.121 C 
ATOM      3  N   UNL     1      -0.436  -9.979  -0.050  0.00  0.00    -0.344 N 
ATOM      4  H   UNL     1       0.166  -9.218  -0.048  0.00  0.00    +0.143 HD
ATOM      5  H   UNL     1      -0.079 -10.880  -0.056  0.00  0.00    +0.143 HD
ATOM      6  H   UNL     1      -3.240  -8.433  -0.028  0.00  0.00    +0.186 HD
ENDROOT
BRANCH   1   9
ATOM      7  C   UNL     1      -1.907  -6.222  -0.023  0.00  0.00    +0.241 C 
ATOM      8  O   UNL     1      -3.107  -6.045  -0.016  0.00  0.00    -0.273 OA
ATOM      9  N   UNL     1      -1.410  -7.476  -0.032  0.00  0.00    -0.228 N 
ATOM     10  H   UNL     1      -0.450  -7.617  -0.037  0.00  0.00    +0.175 HD
BRANCH   7  11
ATOM     11  C   UNL     1      -0.971  -5.041  -0.021  0.00  0.00    +0.173 C 
BRANCH  11  12
ATOM     12  S   UNL     1      -1.936  -3.505  -0.008  0.00  0.00    -0.095 S 
BRANCH  12  16
ATOM     13  C   UNL     1      -0.018   1.503   0.010  0.00  0.00    +0.054 C 
ATOM     14  C   UNL     1       0.002  -0.004   0.002  0.00  0.00    +0.025 A 
ATOM     15  C   UNL     1      -1.071  -0.880   0.002  0.00  0.00    +0.095 A 
ATOM     16  C   UNL     1      -0.716  -2.234  -0.007  0.00  0.00    +0.124 A 
ATOM     17  N   UNL     1       0.563  -2.515  -0.014  0.00  0.00    -0.203 NA
ATOM     18  S   UNL     1       1.329  -1.030  -0.017  0.00  0.00    +0.009 S 
BRANCH  15  19
ATOM     19  C   UNL     1      -2.432  -0.437   0.011  0.00  0.00    +0.103 C 
ATOM     20  N   UNL     1      -3.512  -0.085   0.018  0.00  0.00    -0.191 NA
ENDBRANCH  15  19
ENDBRANCH  12  16
ENDBRANCH  11  12
ENDBRANCH   7  11
ENDBRANCH   1   9
BRANCH   2  21
ATOM     21  C   UNL     1      -2.739 -10.959  -0.044  0.00  0.00    +0.299 C 
BRANCH  21  22
ATOM     22  O   UNL     1      -1.978 -12.168  -0.054  0.00  0.00    -0.485 OA
BRANCH  22  23
ATOM     23  C   UNL     1      -2.676 -13.335  -0.057  0.00  0.00    +0.121 A 
ATOM     24  C   UNL     1      -4.063 -13.316  -0.056  0.00  0.00    +0.048 A 
ATOM     25  C   UNL     1      -4.770 -14.502  -0.059  0.00  0.00    +0.042 A 
ATOM     26  C   UNL     1      -4.095 -15.711  -0.062  0.00  0.00    +0.124 A 
ATOM     27  C   UNL     1      -2.711 -15.732  -0.063  0.00  0.00    +0.042 A 
ATOM     28  C   UNL     1      -2.001 -14.547  -0.067  0.00  0.00    +0.048 A 
ATOM     29  F   UNL     1      -4.788 -16.871  -0.065  0.00  0.00    -0.205 F 
ENDBRANCH  22  23
ENDBRANCH  21  22
ENDBRANCH   2  21
TORSDOF 8
