REMARK  Name = ZINC50674947
REMARK  11 active torsions:
REMARK  status: ('A' for Active; 'I' for Inactive)
REMARK    1  A    between atoms: C_1  and  C_2
REMARK    2  A    between atoms: C_2  and  C_4
REMARK    3  A    between atoms: C_2  and  N_9
REMARK    4  A    between atoms: C_4  and  C_5
REMARK    5  A    between atoms: C_5  and  N_6
REMARK    6  A    between atoms: N_6  and  C_7
REMARK    7  A    between atoms: N_6  and  C_8
REMARK    8  A    between atoms: N_9  and  S_10
REMARK    9  A    between atoms: S_10  and  C_13
REMARK   10  A    between atoms: C_15  and  N_22
REMARK   11  A    between atoms: C_18  and  N_19
REMARK                            x       y       z     vdW  Elec       q    Type
REMARK                         _______ _______ _______ _____ _____    ______ ____
ROOT
ATOM      1  S   UNL     1      -2.244  -0.806  -1.471  0.00  0.00    +0.061 S 
ATOM      2  O   UNL     1      -3.601  -1.180  -1.282  0.00  0.00    -0.153 OA
ATOM      3  O   UNL     1      -1.866   0.329  -2.239  0.00  0.00    -0.153 OA
ENDROOT
BRANCH   1   4
ATOM      4  C   UNL     1      -1.435  -2.195  -2.194  0.00  0.00    +0.137 A 
ATOM      5  C   UNL     1      -0.675  -2.033  -3.336  0.00  0.00    +0.053 A 
ATOM      6  C   UNL     1      -0.037  -3.128  -3.905  0.00  0.00    +0.027 A 
ATOM      7  C   UNL     1      -0.166  -4.383  -3.323  0.00  0.00    +0.025 A 
ATOM      8  C   UNL     1      -0.927  -4.537  -2.181  0.00  0.00    +0.036 A 
ATOM      9  C   UNL     1      -1.556  -3.444  -1.614  0.00  0.00    +0.152 A 
BRANCH   9  10
ATOM     10  N   UNL     1      -2.367  -3.612  -0.387  0.00  0.00    +0.058 N 
ATOM     11  O   UNL     1      -2.581  -4.720   0.049  0.00  0.00    -0.126 OA
ATOM     12  O   UNL     1      -2.815  -2.643   0.179  0.00  0.00    -0.126 OA
ENDBRANCH   9  10
BRANCH   6  13
ATOM     13  N   UNL     1       0.732  -2.968  -5.060  0.00  0.00    -0.358 N 
ATOM     14  H   UNL     1       0.821  -2.091  -5.466  0.00  0.00    +0.142 HD
ATOM     15  H   UNL     1       1.176  -3.733  -5.457  0.00  0.00    +0.142 HD
ENDBRANCH   6  13
ENDBRANCH   1   4
BRANCH   1  16
ATOM     16  N   UNL     1      -1.597  -0.594   0.038  0.00  0.00    -0.187 NA
ATOM     17  H   UNL     1      -2.149  -0.720   0.825  0.00  0.00    +0.148 HD
BRANCH  16  19
ATOM     18  C   UNL     1      -0.081   1.307   0.307  0.00  0.00    +0.025 C 
ATOM     19  C   UNL     1      -0.189  -0.214   0.185  0.00  0.00    +0.072 C 
BRANCH  19  20
ATOM     20  C   UNL     1       0.387  -0.869   1.442  0.00  0.00    +0.001 C 
BRANCH  20  21
ATOM     21  C   UNL     1       0.394  -2.389   1.268  0.00  0.00    -0.078 C 
BRANCH  21  22
ATOM     22  N   UNL     1       0.947  -3.018   2.475  0.00  0.00    +0.376 N 
ATOM     23  C   UNL     1       0.055  -2.761   3.614  0.00  0.00    -0.097 C 
ATOM     24  C   UNL     1       1.064  -4.467   2.263  0.00  0.00    -0.097 C 
ATOM     25  H   UNL     1       1.858  -2.631   2.668  0.00  0.00    -0.083 HD
ENDBRANCH  21  22
ENDBRANCH  20  21
ENDBRANCH  19  20
ENDBRANCH  16  19
ENDBRANCH   1  16
TORSDOF 8
