REMARK  Name = ZINC10341125
REMARK  6 active torsions:
REMARK  status: ('A' for Active; 'I' for Inactive)
REMARK    1  A    between atoms: C_1  and  N_2
REMARK    2  A    between atoms: C_3  and  N_22
REMARK    3  A    between atoms: C_4  and  C_11
REMARK    4  A    between atoms: N_7  and  C_10
REMARK    5  A    between atoms: C_11  and  C_13
REMARK    6  A    between atoms: C_13  and  N_41
REMARK                            x       y       z     vdW  Elec       q    Type
REMARK                         _______ _______ _______ _____ _____    ______ ____
ROOT
ATOM      1  C   UNL     1      -7.598  -2.836  -3.229  0.00  0.00    +0.155 C 
ATOM      2  N   UNL     1      -6.484  -3.452  -2.504  0.00  0.00    -0.284 N 
ATOM      3  C   UNL     1      -5.255  -2.857  -2.533  0.00  0.00    +0.116 A 
ATOM      4  C   UNL     1      -4.192  -3.458  -1.838  0.00  0.00    +0.118 A 
ATOM      5  C   UNL     1      -4.467  -4.700  -1.103  0.00  0.00    +0.269 A 
ATOM      6  O   UNL     1      -3.585  -5.261  -0.480  0.00  0.00    -0.267 OA
ATOM      7  N   UNL     1      -5.717  -5.205  -1.134  0.00  0.00    -0.263 N 
ATOM      8  C   UNL     1      -6.693  -4.588  -1.820  0.00  0.00    +0.333 A 
ATOM      9  O   UNL     1      -7.806  -5.076  -1.822  0.00  0.00    -0.246 OA
ATOM     10  C   UNL     1      -6.015  -6.443  -0.409  0.00  0.00    +0.157 C 
ENDROOT
BRANCH   3  11
ATOM     11  N   UNL     1      -5.063  -1.702  -3.226  0.00  0.00    -0.344 N 
ATOM     12  H   UNL     1      -4.176  -1.469  -3.544  0.00  0.00    +0.144 HD
ATOM     13  H   UNL     1      -5.812  -1.112  -3.403  0.00  0.00    +0.144 HD
ENDBRANCH   3  11
BRANCH   4  14
ATOM     14  C   UNL     1      -2.902  -2.884  -1.840  0.00  0.00    +0.155 C 
ATOM     15  O   UNL     1      -2.722  -1.800  -2.358  0.00  0.00    -0.294 OA
BRANCH  14  16
ATOM     16  C   UNL     1      -1.750  -3.616  -1.202  0.00  0.00    +0.003 C 
BRANCH  16  25
ATOM     17  C   UNL     1       0.660  -3.601  -0.972  0.00  0.00    -0.073 C 
ATOM     18  C   UNL     1       1.912  -2.888  -1.510  0.00  0.00    +0.024 C 
ATOM     19  C   UNL     1       1.799  -1.441  -1.155  0.00  0.00    -0.011 A 
ATOM     20  C   UNL     1       0.680  -0.795  -0.720  0.00  0.00    -0.054 A 
ATOM     21  C   UNL     1       0.814   0.564  -0.446  0.00  0.00    +0.009 A 
ATOM     22  C   UNL     1       2.009   1.175  -0.618  0.00  0.00    +0.045 A 
ATOM     23  S   UNL     1       3.034  -0.173  -1.189  0.00  0.00    -0.101 S 
ATOM     24  C   UNL     1      -0.624  -1.571  -0.561  0.00  0.00    -0.042 C 
ATOM     25  N   UNL     1      -0.527  -2.808  -1.371  0.00  0.00    +0.387 N 
ATOM     26  H   UNL     1      -0.434  -2.549  -2.361  0.00  0.00    -0.081 HD
ENDBRANCH  16  25
ENDBRANCH  14  16
ENDBRANCH   4  14
TORSDOF 4
