REMARK  Name = ZINC19810290
REMARK  12 active torsions:
REMARK  status: ('A' for Active; 'I' for Inactive)
REMARK    1  A    between atoms: C_1  and  C_2
REMARK    2  A    between atoms: C_2  and  N_3
REMARK    3  A    between atoms: C_4  and  C_23
REMARK    4  A    between atoms: C_6  and  C_13
REMARK    5  A    between atoms: C_9  and  C_10
REMARK    6  A    between atoms: C_9  and  C_11
REMARK    7  A    between atoms: C_11  and  O_12
REMARK    8  A    between atoms: C_13  and  N_14
REMARK    9  A    between atoms: N_14  and  C_15
REMARK   10  A    between atoms: C_15  and  C_16
REMARK   11  A    between atoms: N_19  and  C_22
REMARK   12  A    between atoms: C_20  and  C_21
REMARK                            x       y       z     vdW  Elec       q    Type
REMARK                         _______ _______ _______ _____ _____    ______ ____
ROOT
ATOM      1  N   UNL     1      -1.069  -1.996   0.790  0.00  0.00    +0.389 N 
ATOM      2  C   UNL     1      -1.428  -0.935  -0.175  0.00  0.00    -0.035 C 
ATOM      3  C   UNL     1      -1.774  -1.627  -1.506  0.00  0.00    -0.039 C 
ATOM      4  C   UNL     1      -1.619  -3.140  -1.227  0.00  0.00    -0.010 C 
ATOM      5  C   UNL     1      -1.762  -3.224   0.313  0.00  0.00    -0.044 C 
ATOM      6  C   UNL     1      -3.237  -3.205   0.721  0.00  0.00    -0.007 C 
ATOM      7  H   UNL     1       0.020  -2.137   0.852  0.00  0.00    -0.080 HD
ENDROOT
BRANCH   2   8
ATOM      8  C   UNL     1      -0.260  -0.003  -0.371  0.00  0.00    -0.061 A 
ATOM      9  C   UNL     1      -0.475   1.355  -0.513  0.00  0.00    +0.003 A 
ATOM     10  C   UNL     1       0.595   2.210  -0.692  0.00  0.00    +0.020 A 
ATOM     11  C   UNL     1       1.884   1.707  -0.728  0.00  0.00    +0.041 A 
ATOM     12  C   UNL     1       2.099   0.348  -0.585  0.00  0.00    +0.020 A 
ATOM     13  C   UNL     1       1.027  -0.506  -0.406  0.00  0.00    +0.003 A 
ATOM     14 CL   UNL     1       3.229   2.781  -0.953  0.00  0.00    -0.084 Cl
ENDBRANCH   2   8
BRANCH   1  16
ATOM     15  C   UNL     1      -0.700  -0.427   2.633  0.00  0.00    -0.017 C 
ATOM     16  C   UNL     1      -1.499  -1.639   2.149  0.00  0.00    -0.081 C 
ENDBRANCH   1  16
BRANCH   5  17
ATOM     17  C   UNL     1      -1.071  -4.479   0.852  0.00  0.00    +0.143 C 
BRANCH  17  18
ATOM     18  O   UNL     1      -1.690  -5.640   0.294  0.00  0.00    -0.396 OA
ATOM     19  H   UNL     1      -1.325  -6.641   0.567  0.00  0.00    +0.209 HD
ENDBRANCH  17  18
ENDBRANCH   5  17
BRANCH   3  20
ATOM     20  C   UNL     1      -0.802  -1.187  -2.603  0.00  0.00    -0.080 C 
BRANCH  20  21
ATOM     21  N   UNL     1      -1.220  -1.763  -3.888  0.00  0.00    +0.382 N 
ATOM     22  H   UNL     1      -1.219  -2.861  -3.816  0.00  0.00    -0.085 HD
ATOM     23  H   UNL     1      -2.234  -1.413  -4.135  0.00  0.00    -0.085 HD
BRANCH  21  24
ATOM     24  C   UNL     1      -0.308  -1.361  -4.967  0.00  0.00    -0.043 C 
BRANCH  24  25
ATOM     25  C   UNL     1      -0.768  -1.970  -6.267  0.00  0.00    -0.024 A 
ATOM     26  C   UNL     1      -0.239  -3.115  -6.872  0.00  0.00    +0.136 A 
ATOM     27  N   UNL     1      -0.896  -3.330  -7.983  0.00  0.00    -0.179 NA
ATOM     28  N   UNL     1      -1.864  -2.327  -8.120  0.00  0.00    -0.271 N 
ATOM     29  C   UNL     1      -1.768  -1.508  -7.052  0.00  0.00    +0.037 A 
ATOM     30  C   UNL     1      -2.621  -0.295  -6.783  0.00  0.00    +0.065 C 
ATOM     31  C   UNL     1      -2.816  -2.194  -9.225  0.00  0.00    +0.172 C 
ENDBRANCH  24  25
ENDBRANCH  21  24
ENDBRANCH  20  21
ENDBRANCH   3  20
TORSDOF 8
