REMARK  Name = ZINC39605697
REMARK  7 active torsions:
REMARK  status: ('A' for Active; 'I' for Inactive)
REMARK    1  A    between atoms: C_1  and  O_2
REMARK    2  A    between atoms: O_2  and  C_3
REMARK    3  A    between atoms: C_5  and  C_13
REMARK    4  A    between atoms: C_7  and  O_11
REMARK    5  A    between atoms: C_8  and  O_9
REMARK    6  A    between atoms: O_9  and  C_10
REMARK    7  A    between atoms: O_11  and  C_12
REMARK                            x       y       z     vdW  Elec       q    Type
REMARK                         _______ _______ _______ _____ _____    ______ ____
ROOT
ATOM      1  C   UNL     1       0.380  -0.635  -1.205  0.00  0.00    +0.165 A 
ATOM      2  C   UNL     1       0.947   0.133  -2.210  0.00  0.00    +0.054 A 
ATOM      3  C   UNL     1       1.787  -0.452  -3.139  0.00  0.00    -0.023 A 
ATOM      4  C   UNL     1       2.065  -1.805  -3.069  0.00  0.00    +0.054 A 
ATOM      5  C   UNL     1       1.502  -2.579  -2.067  0.00  0.00    +0.165 A 
ATOM      6  C   UNL     1       0.661  -1.994  -1.128  0.00  0.00    +0.204 A 
ENDROOT
BRANCH   3   7
ATOM      7  C   UNL     1       2.402   0.386  -4.230  0.00  0.00    +0.108 C 
ATOM      8  C   UNL     1       3.583  -0.325  -4.777  0.00  0.00    +0.011 C 
ATOM      9  C   UNL     1       3.839  -0.598  -6.061  0.00  0.00    +0.139 C 
ATOM     10  N   UNL     1       5.019  -1.247  -6.184  0.00  0.00    -0.160 NA
ATOM     11  N   UNL     1       5.602  -1.454  -5.115  0.00  0.00    -0.160 NA
ATOM     12  C   UNL     1       4.763  -0.902  -4.039  0.00  0.00    +0.244 C 
ATOM     13  N   UNL     1       5.479   0.057  -3.251  0.00  0.00    -0.288 N 
ATOM     14  C   UNL     1       5.134   1.003  -2.463  0.00  0.00    +0.225 C 
ATOM     15  O   UNL     1       6.078   1.472  -1.864  0.00  0.00    -0.275 OA
ATOM     16  C   UNL     1       3.852   1.665  -2.105  0.00  0.00    +0.165 C 
ATOM     17  S   UNL     1       2.838   2.002  -3.554  0.00  0.00    -0.139 S 
ATOM     18  H   UNL     1       6.442  -0.031  -3.334  0.00  0.00    +0.151 HD
ENDBRANCH   3   7
BRANCH   1  20
ATOM     19  C   UNL     1      -0.692   1.343  -0.432  0.00  0.00    +0.277 C 
ATOM     20  O   UNL     1      -0.447  -0.058  -0.292  0.00  0.00    -0.491 OA
ENDBRANCH   1  20
BRANCH   6  21
ATOM     21  O   UNL     1       0.110  -2.749  -0.139  0.00  0.00    -0.488 OA
ATOM     22  C   UNL     1      -1.152  -3.359  -0.416  0.00  0.00    +0.277 C 
ENDBRANCH   6  21
BRANCH   5  23
ATOM     23  O   UNL     1       1.775  -3.910  -1.999  0.00  0.00    -0.491 OA
ATOM     24  C   UNL     1       2.652  -4.443  -2.994  0.00  0.00    +0.277 C 
ENDBRANCH   5  23
TORSDOF 4
