REMARK  Name = ZINC09586520
REMARK  9 active torsions:
REMARK  status: ('A' for Active; 'I' for Inactive)
REMARK    1  A    between atoms: C_1  and  C_2
REMARK    2  A    between atoms: C_4  and  C_18
REMARK    3  A    between atoms: C_5  and  C_17
REMARK    4  A    between atoms: N_6  and  C_7
REMARK    5  A    between atoms: C_10  and  S_13
REMARK    6  A    between atoms: S_13  and  N_16
REMARK    7  A    between atoms: C_18  and  C_20
REMARK    8  A    between atoms: C_20  and  N_59
REMARK    9  A    between atoms: C_23  and  C_26
REMARK                            x       y       z     vdW  Elec       q    Type
REMARK                         _______ _______ _______ _____ _____    ______ ____
ROOT
ATOM      1  C   UNL     1      -2.072   1.292   6.387  0.00  0.00    +0.064 C 
ATOM      2  C   UNL     1      -2.974   2.451   6.049  0.00  0.00    +0.022 A 
ATOM      3  C   UNL     1      -3.805   3.067   6.907  0.00  0.00    +0.034 A 
ATOM      4  C   UNL     1      -4.477   4.128   6.145  0.00  0.00    +0.037 A 
ATOM      5  C   UNL     1      -3.970   4.053   4.861  0.00  0.00    +0.031 A 
ATOM      6  N   UNL     1      -3.078   3.044   4.822  0.00  0.00    -0.317 N 
ATOM      7  C   UNL     1      -4.350   4.943   3.706  0.00  0.00    +0.064 C 
ENDROOT
BRANCH   6   8
ATOM      8  C   UNL     1      -2.355   2.659   3.684  0.00  0.00    +0.047 A 
ATOM      9  C   UNL     1      -2.560   1.408   3.119  0.00  0.00    +0.028 A 
ATOM     10  C   UNL     1      -1.846   1.032   1.999  0.00  0.00    +0.030 A 
ATOM     11  C   UNL     1      -0.927   1.900   1.439  0.00  0.00    +0.105 A 
ATOM     12  C   UNL     1      -0.716   3.145   2.003  0.00  0.00    +0.030 A 
ATOM     13  C   UNL     1      -1.431   3.529   3.120  0.00  0.00    +0.028 A 
BRANCH  11  14
ATOM     14  S   UNL     1      -0.017   1.417   0.010  0.00  0.00    +0.056 S 
ATOM     15  O   UNL     1       0.002  -0.004   0.002  0.00  0.00    -0.153 OA
ATOM     16  O   UNL     1       1.172   2.195   0.003  0.00  0.00    -0.153 OA
BRANCH  14  17
ATOM     17  N   UNL     1      -0.897   1.885  -1.312  0.00  0.00    -0.204 NA
ATOM     18  H   UNL     1      -1.201   1.223  -1.952  0.00  0.00    +0.144 HD
ATOM     19  H   UNL     1      -1.110   2.822  -1.446  0.00  0.00    +0.144 HD
ENDBRANCH  14  17
ENDBRANCH  11  14
ENDBRANCH   6   8
BRANCH   4  20
ATOM     20  C   UNL     1      -5.477   5.075   6.644  0.00  0.00    +0.149 C 
ATOM     21  O   UNL     1      -5.952   5.905   5.898  0.00  0.00    -0.294 OA
BRANCH  20  22
ATOM     22  C   UNL     1      -5.915   5.018   8.085  0.00  0.00    +0.003 C 
BRANCH  22  28
ATOM     23  C   UNL     1      -7.210   6.181   9.771  0.00  0.00    -0.073 C 
ATOM     24  C   UNL     1      -7.999   7.473  10.002  0.00  0.00    +0.017 C 
ATOM     25  C   UNL     1      -9.143   7.548   9.030  0.00  0.00    -0.048 C 
ATOM     26  C   UNL     1      -9.206   6.803   7.948  0.00  0.00    -0.041 C 
ATOM     27  C   UNL     1      -8.150   5.800   7.582  0.00  0.00    -0.050 C 
ATOM     28  N   UNL     1      -6.911   6.087   8.328  0.00  0.00    +0.387 N 
ATOM     29  H   UNL     1      -6.525   6.982   8.006  0.00  0.00    -0.081 HD
BRANCH  25  30
ATOM     30  C   UNL     1     -10.241   8.500   9.300  0.00  0.00    -0.022 A 
ATOM     31  C   UNL     1      -9.995   9.873   9.298  0.00  0.00    +0.008 A 
ATOM     32  C   UNL     1     -11.026  10.756   9.544  0.00  0.00    +0.001 A 
ATOM     33  C   UNL     1     -12.299  10.282   9.806  0.00  0.00    +0.000 A 
ATOM     34  C   UNL     1     -12.549   8.921   9.816  0.00  0.00    +0.001 A 
ATOM     35  C   UNL     1     -11.528   8.028   9.564  0.00  0.00    +0.008 A 
ENDBRANCH  25  30
ENDBRANCH  22  28
ENDBRANCH  20  22
ENDBRANCH   4  20
TORSDOF 7
