REMARK  Name = ZINC52840864
REMARK  6 active torsions:
REMARK  status: ('A' for Active; 'I' for Inactive)
REMARK    1  A    between atoms: C_1  and  C_2
REMARK    2  A    between atoms: C_7  and  N_10
REMARK    3  A    between atoms: N_10  and  C_11
REMARK    4  A    between atoms: N_10  and  C_12
REMARK    5  A    between atoms: C_15  and  N_19
REMARK    6  A    between atoms: C_17  and  N_18
REMARK                            x       y       z     vdW  Elec       q    Type
REMARK                         _______ _______ _______ _____ _____    ______ ____
ROOT
ATOM      1  C   UNL     1       2.540  -3.366   0.232  0.00  0.00    +0.051 A 
ATOM      2  C   UNL     1       2.339  -4.731   0.370  0.00  0.00    +0.027 A 
ATOM      3  C   UNL     1       3.418  -5.572   0.572  0.00  0.00    +0.034 A 
ATOM      4  C   UNL     1       4.699  -5.056   0.637  0.00  0.00    +0.128 A 
ATOM      5  C   UNL     1       4.908  -3.696   0.501  0.00  0.00    +0.057 A 
ATOM      6  C   UNL     1       3.833  -2.847   0.292  0.00  0.00    +0.048 A 
ENDROOT
BRANCH   6   7
ATOM      7  N   UNL     1       4.043  -1.470   0.148  0.00  0.00    -0.356 N 
ATOM      8  H   UNL     1       3.289  -0.876   0.006  0.00  0.00    +0.142 HD
ATOM      9  H   UNL     1       4.943  -1.110   0.190  0.00  0.00    +0.142 HD
ENDBRANCH   6   7
BRANCH   4  10
ATOM     10  N   UNL     1       5.849  -5.962   0.853  0.00  0.00    +0.056 N 
ATOM     11  O   UNL     1       5.668  -7.151   0.973  0.00  0.00    -0.126 OA
ATOM     12  O   UNL     1       6.970  -5.513   0.910  0.00  0.00    -0.126 OA
ENDBRANCH   4  10
BRANCH   1  13
ATOM     13  N   UNL     1       1.448  -2.513   0.028  0.00  0.00    -0.328 N 
ATOM     14  C   UNL     1       0.630  -2.648  -1.179  0.00  0.00    +0.129 C 
BRANCH  13  20
ATOM     15  C   UNL     1      -2.631  -2.262   1.355  0.00  0.00    +0.007 C 
ATOM     16  C   UNL     1      -1.123  -2.521   1.361  0.00  0.00    -0.012 C 
ATOM     17  C   UNL     1      -0.693  -3.000   2.748  0.00  0.00    +0.003 C 
ATOM     18  C   UNL     1       0.815  -3.259   2.754  0.00  0.00    +0.002 C 
ATOM     19  C   UNL     1       1.556  -1.965   2.409  0.00  0.00    +0.022 C 
ATOM     20  C   UNL     1       1.126  -1.486   1.021  0.00  0.00    +0.073 C 
ATOM     21  C   UNL     1      -0.382  -1.227   1.016  0.00  0.00    +0.025 C 
ENDBRANCH  13  20
ENDBRANCH   1  13
TORSDOF 4
