REMARK  Name = ZINC36874087
REMARK  6 active torsions:
REMARK  status: ('A' for Active; 'I' for Inactive)
REMARK    1  A    between atoms: C_1  and  C_2
REMARK    2  A    between atoms: C_2  and  C_3
REMARK    3  A    between atoms: C_2  and  C_4
REMARK    4  A    between atoms: C_2  and  C_5
REMARK    5  A    between atoms: C_8  and  C_11
REMARK    6  A    between atoms: C_14  and  C_17
REMARK                            x       y       z     vdW  Elec       q    Type
REMARK                         _______ _______ _______ _____ _____    ______ ____
ROOT
ATOM      1  C   UNL     1       2.696  -1.861  -4.733  0.00  0.00    +0.066 A 
ATOM      2  C   UNL     1       2.170  -2.639  -5.717  0.00  0.00    +0.139 A 
ATOM      3  N   UNL     1       3.122  -2.842  -6.634  0.00  0.00    -0.242 NA
ATOM      4  C   UNL     1       4.217  -2.229  -6.270  0.00  0.00    +0.093 A 
ATOM      5  N   UNL     1       3.998  -1.600  -5.095  0.00  0.00    -0.343 N 
ATOM      6  H   UNL     1       4.639  -1.067  -4.599  0.00  0.00    +0.167 HD
ENDROOT
BRANCH   4   7
ATOM      7  C   UNL     1       5.512  -2.221  -7.040  0.00  0.00    -0.004 C 
ATOM      8  C   UNL     1       5.569  -0.983  -7.959  0.00  0.00    -0.010 C 
ATOM      9  C   UNL     1       6.246  -1.532  -9.243  0.00  0.00    -0.020 C 
ATOM     10  C   UNL     1       5.666  -2.967  -9.313  0.00  0.00    -0.082 C 
ATOM     11  N   UNL     1       5.591  -3.414  -7.903  0.00  0.00    +0.386 N 
ATOM     12  H   UNL     1       6.414  -3.949  -7.669  0.00  0.00    -0.085 HD
ATOM     13  H   UNL     1       4.769  -3.984  -7.769  0.00  0.00    -0.085 HD
ENDBRANCH   4   7
BRANCH   1  17
ATOM     14  C   UNL     1       0.707  -0.490  -1.238  0.00  0.00    -0.042 A 
ATOM     15  C   UNL     1       0.033  -1.285  -2.147  0.00  0.00    +0.005 A 
ATOM     16  C   UNL     1       0.673  -1.733  -3.284  0.00  0.00    +0.010 A 
ATOM     17  C   UNL     1       2.004  -1.383  -3.516  0.00  0.00    -0.000 A 
ATOM     18  C   UNL     1       2.678  -0.581  -2.595  0.00  0.00    +0.010 A 
ATOM     19  C   UNL     1       2.025  -0.135  -1.464  0.00  0.00    +0.005 A 
BRANCH  14  21
ATOM     20  C   UNL     1      -0.019   1.526   0.010  0.00  0.00    +0.015 C 
ATOM     21  C   UNL     1       0.002  -0.004   0.002  0.00  0.00    -0.013 C 
ATOM     22  C   UNL     1       0.742  -0.511   1.242  0.00  0.00    +0.015 C 
ATOM     23  C   UNL     1      -1.433  -0.534   0.013  0.00  0.00    +0.015 C 
ENDBRANCH  14  21
ENDBRANCH   1  17
TORSDOF 3
