REMARK  Name = ZINC27498557
REMARK  6 active torsions:
REMARK  status: ('A' for Active; 'I' for Inactive)
REMARK    1  A    between atoms: C_3  and  C_8
REMARK    2  A    between atoms: N_10  and  C_11
REMARK    3  A    between atoms: C_11  and  C_12
REMARK    4  A    between atoms: N_14  and  N_15
REMARK    5  A    between atoms: N_15  and  C_16
REMARK    6  A    between atoms: C_19  and  N_26
REMARK                            x       y       z     vdW  Elec       q    Type
REMARK                         _______ _______ _______ _____ _____    ______ ____
ROOT
ATOM      1  C   UNL     1       7.263   1.299   0.151  0.00  0.00    +0.246 C 
ATOM      2  O   UNL     1       7.029   0.129  -0.068  0.00  0.00    -0.273 OA
ATOM      3  N   UNL     1       8.536   1.741   0.159  0.00  0.00    -0.235 N 
ATOM      4  H   UNL     1       8.724   2.676   0.334  0.00  0.00    +0.173 HD
ENDROOT
BRANCH   3   5
ATOM      5  N   UNL     1       9.589   0.849  -0.086  0.00  0.00    -0.259 N 
ATOM      6  H   UNL     1       9.410  -0.100  -0.175  0.00  0.00    +0.170 HD
BRANCH   5   7
ATOM      7  C   UNL     1      10.839   1.306  -0.197  0.00  0.00    +0.116 C 
ATOM      8  C   UNL     1      11.265   2.657  -0.210  0.00  0.00    +0.026 A 
ATOM      9  C   UNL     1      10.585   3.877  -0.121  0.00  0.00    +0.044 A 
ATOM     10  C   UNL     1      11.295   5.061  -0.166  0.00  0.00    +0.127 A 
ATOM     11  C   UNL     1      12.675   5.044  -0.298  0.00  0.00    +0.034 A 
ATOM     12  C   UNL     1      13.366   3.847  -0.388  0.00  0.00    +0.026 A 
ATOM     13  C   UNL     1      12.678   2.637  -0.345  0.00  0.00    +0.043 A 
ATOM     14  N   UNL     1      13.111   1.346  -0.412  0.00  0.00    -0.280 N 
ATOM     15  C   UNL     1      12.101   0.498  -0.327  0.00  0.00    +0.264 C 
ATOM     16  O   UNL     1      12.178  -0.717  -0.353  0.00  0.00    -0.268 OA
ATOM     17  H   UNL     1      14.040   1.084  -0.506  0.00  0.00    +0.155 HD
BRANCH  10  18
ATOM     18  N   UNL     1      10.580   6.354  -0.072  0.00  0.00    +0.056 N 
ATOM     19  O   UNL     1       9.376   6.371   0.043  0.00  0.00    -0.126 OA
ATOM     20  O   UNL     1      11.199   7.391  -0.111  0.00  0.00    -0.126 OA
ENDBRANCH  10  18
ENDBRANCH   5   7
ENDBRANCH   3   5
BRANCH   1  21
ATOM     21  C   UNL     1       6.131   2.258   0.414  0.00  0.00    +0.202 C 
BRANCH  21  24
ATOM     22  C   UNL     1       3.699   2.197   0.555  0.00  0.00    +0.244 C 
ATOM     23  O   UNL     1       3.713   3.389   0.793  0.00  0.00    -0.270 OA
ATOM     24  N   UNL     1       4.857   1.538   0.350  0.00  0.00    -0.303 N 
ATOM     25  H   UNL     1       4.846   0.587   0.161  0.00  0.00    +0.150 HD
BRANCH  22  28
ATOM     26  C   UNL     1       0.016   1.467   0.641  0.00  0.00    +0.002 A 
ATOM     27  C   UNL     1       1.213   2.151   0.703  0.00  0.00    +0.013 A 
ATOM     28  C   UNL     1       2.413   1.471   0.491  0.00  0.00    +0.038 A 
ATOM     29  C   UNL     1       2.394   0.102   0.218  0.00  0.00    +0.028 A 
ATOM     30  C   UNL     1       1.190  -0.570   0.159  0.00  0.00    +0.019 A 
ATOM     31  C   UNL     1       0.003   0.111   0.370  0.00  0.00    +0.015 A 
ATOM     32 BR   UNL     1       1.161  -2.424  -0.210  0.00  0.00    -0.050 Br
ENDBRANCH  22  28
ENDBRANCH  21  24
ENDBRANCH   1  21
TORSDOF 6
