REMARK  Name = ZINC19365052
REMARK  6 active torsions:
REMARK  status: ('A' for Active; 'I' for Inactive)
REMARK    1  A    between atoms: C_1  and  C_2
REMARK    2  A    between atoms: C_2  and  C_3
REMARK    3  A    between atoms: C_3  and  N_13
REMARK    4  A    between atoms: N_13  and  C_14
REMARK    5  A    between atoms: C_14  and  C_15
REMARK    6  A    between atoms: C_15  and  N_16
REMARK                            x       y       z     vdW  Elec       q    Type
REMARK                         _______ _______ _______ _____ _____    ______ ____
ROOT
ATOM      1  C   UNL     1      -1.412  -0.526   0.013  0.00  0.00    +0.021 C 
ATOM      2  C   UNL     1      -2.109  -0.752  -1.160  0.00  0.00    +0.116 C 
ATOM      3  C   UNL     1      -1.461  -0.622  -2.477  0.00  0.00    +0.258 C 
ATOM      4  O   UNL     1      -0.288  -0.311  -2.568  0.00  0.00    -0.270 OA
ATOM      5  N   UNL     1      -2.203  -0.858  -3.579  0.00  0.00    -0.236 N 
ATOM      6  C   UNL     1      -3.495  -1.201  -3.492  0.00  0.00    +0.313 C 
ATOM      7  O   UNL     1      -4.108  -1.400  -4.523  0.00  0.00    -0.252 OA
ATOM      8  N   UNL     1      -4.148  -1.337  -2.329  0.00  0.00    -0.236 N 
ATOM      9  C   UNL     1      -3.531  -1.139  -1.147  0.00  0.00    +0.258 C 
ATOM     10  O   UNL     1      -4.133  -1.271  -0.098  0.00  0.00    -0.270 OA
ATOM     11  H   UNL     1      -1.791  -0.776  -4.453  0.00  0.00    +0.159 HD
ATOM     12  H   UNL     1      -5.085  -1.588  -2.339  0.00  0.00    +0.159 HD
ENDROOT
BRANCH   1  14
ATOM     13  C   UNL     1       0.987  -1.140  -0.121  0.00  0.00    +0.010 C 
ATOM     14  C   UNL     1      -0.008   0.020  -0.038  0.00  0.00    +0.048 C 
ENDBRANCH   1  14
BRANCH   1  15
ATOM     15  N   UNL     1      -1.988  -0.793   1.202  0.00  0.00    -0.348 N 
ATOM     16  H   UNL     1      -2.858  -1.222   1.234  0.00  0.00    +0.146 HD
BRANCH  15  17
ATOM     17  C   UNL     1      -1.300  -0.437   2.445  0.00  0.00    +0.083 C 
BRANCH  17  18
ATOM     18  C   UNL     1      -2.164  -0.846   3.640  0.00  0.00    -0.060 C 
BRANCH  18  19
ATOM     19  N   UNL     1      -1.475  -0.489   4.888  0.00  0.00    +0.381 N 
ATOM     20  C   UNL     1      -0.239  -1.274   5.004  0.00  0.00    -0.079 C 
ATOM     21  C   UNL     1       0.523  -0.848   6.260  0.00  0.00    -0.019 C 
ATOM     22  C   UNL     1      -0.355  -1.091   7.491  0.00  0.00    -0.004 C 
ATOM     23  C   UNL     1      -1.672  -0.327   7.325  0.00  0.00    -0.019 C 
ATOM     24  C   UNL     1      -2.353  -0.772   6.029  0.00  0.00    -0.079 C 
ATOM     25  H   UNL     1      -1.247   0.493   4.875  0.00  0.00    -0.082 HD
ENDBRANCH  18  19
ENDBRANCH  17  18
ENDBRANCH  15  17
ENDBRANCH   1  15
TORSDOF 5
