REMARK  Name = ZINC39637556
REMARK  8 active torsions:
REMARK  status: ('A' for Active; 'I' for Inactive)
REMARK    1  A    between atoms: C_1  and  C_2
REMARK    2  A    between atoms: C_7  and  N_12
REMARK    3  A    between atoms: C_9  and  C_11
REMARK    4  A    between atoms: C_13  and  C_15
REMARK    5  A    between atoms: C_26  and  C_28
REMARK    6  A    between atoms: C_28  and  C_29
REMARK    7  A    between atoms: C_29  and  O_30
REMARK    8  A    between atoms: O_30  and  C_31
REMARK                            x       y       z     vdW  Elec       q    Type
REMARK                         _______ _______ _______ _____ _____    ______ ____
ROOT
ATOM      1  C   UNL     1       1.936  -4.254   4.128  0.00  0.00    +0.100 C 
ATOM      2  C   UNL     1       3.430  -4.481   3.807  0.00  0.00    +0.121 C 
ATOM      3  N   UNL     1       3.796  -5.698   4.571  0.00  0.00    -0.300 N 
ATOM      4  C   UNL     1       2.616  -6.585   4.437  0.00  0.00    +0.115 C 
ATOM      5  C   UNL     1       1.405  -5.637   4.541  0.00  0.00    -0.004 C 
ATOM      6  C   UNL     1       0.301  -6.085   3.587  0.00  0.00    -0.010 C 
ATOM      7  C   UNL     1      -0.251  -7.436   4.051  0.00  0.00    -0.082 C 
ATOM      8  N   UNL     1      -0.777  -7.309   5.416  0.00  0.00    +0.379 N 
ATOM      9  C   UNL     1       0.310  -6.968   6.342  0.00  0.00    -0.082 C 
ATOM     10  C   UNL     1       0.885  -5.598   5.975  0.00  0.00    -0.010 C 
ATOM     11  C   UNL     1       4.942  -5.941   5.237  0.00  0.00    +0.218 C 
ATOM     12  O   UNL     1       5.093  -6.995   5.818  0.00  0.00    -0.276 OA
ATOM     13  H   UNL     1      -1.477  -6.582   5.439  0.00  0.00    -0.086 HD
ATOM     14  H   UNL     1      -1.195  -8.183   5.697  0.00  0.00    -0.086 HD
ENDROOT
BRANCH   1  16
ATOM     15  N   UNL     1       0.128  -2.959   3.045  0.00  0.00    -0.312 N 
ATOM     16  C   UNL     1       1.207  -3.754   2.907  0.00  0.00    +0.218 C 
ATOM     17  O   UNL     1       1.591  -4.068   1.801  0.00  0.00    -0.275 OA
ATOM     18  H   UNL     1      -0.180  -2.708   3.930  0.00  0.00    +0.149 HD
BRANCH  15  24
ATOM     19  C   UNL     1      -4.223  -1.330   1.353  0.00  0.00    +0.008 C 
ATOM     20  C   UNL     1      -2.772  -1.648   0.986  0.00  0.00    -0.009 C 
ATOM     21  C   UNL     1      -2.088  -0.383   0.465  0.00  0.00    +0.003 C 
ATOM     22  C   UNL     1      -0.637  -0.701   0.099  0.00  0.00    +0.002 C 
ATOM     23  C   UNL     1       0.103  -1.208   1.338  0.00  0.00    +0.022 C 
ATOM     24  C   UNL     1      -0.581  -2.474   1.858  0.00  0.00    +0.076 C 
ATOM     25  C   UNL     1      -2.032  -2.155   2.225  0.00  0.00    +0.009 C 
ATOM     26  C   UNL     1      -2.716  -3.421   2.745  0.00  0.00    +0.009 C 
ENDBRANCH  15  24
ENDBRANCH   1  16
BRANCH  11  27
ATOM     27  C   UNL     1       6.036  -4.905   5.258  0.00  0.00    +0.124 C 
BRANCH  27  28
ATOM     28  C   UNL     1       7.218  -5.429   6.076  0.00  0.00    +0.168 C 
BRANCH  28  29
ATOM     29  O   UNL     1       8.255  -4.446   6.097  0.00  0.00    -0.382 OA
ATOM     30  C   UNL     1       9.412  -4.837   6.839  0.00  0.00    +0.194 C 
ENDBRANCH  28  29
ENDBRANCH  27  28
ENDBRANCH  11  27
TORSDOF 5
