REMARK  Name = ZINC67491230
REMARK  7 active torsions:
REMARK  status: ('A' for Active; 'I' for Inactive)
REMARK    1  A    between atoms: C_1  and  C_2
REMARK    2  A    between atoms: C_2  and  N_3
REMARK    3  A    between atoms: C_4  and  C_6
REMARK    4  A    between atoms: C_9  and  N_23
REMARK    5  A    between atoms: C_13  and  C_15
REMARK    6  A    between atoms: C_15  and  N_16
REMARK    7  A    between atoms: C_19  and  C_21
REMARK                            x       y       z     vdW  Elec       q    Type
REMARK                         _______ _______ _______ _____ _____    ______ ____
ROOT
ATOM      1  C   UNL     1       1.532  -2.285  -2.665  0.00  0.00    +0.160 C 
ATOM      2  C   UNL     1       0.569  -2.236  -3.870  0.00  0.00    +0.017 C 
ATOM      3  C   UNL     1       0.932  -3.522  -4.657  0.00  0.00    -0.055 C 
ATOM      4  C   UNL     1       1.263  -4.508  -3.508  0.00  0.00    +0.092 C 
ATOM      5  N   UNL     1       1.946  -3.684  -2.489  0.00  0.00    -0.290 N 
ATOM      6  C   UNL     1       2.803  -4.138  -1.554  0.00  0.00    +0.238 C 
ATOM      7  O   UNL     1       3.306  -3.366  -0.765  0.00  0.00    -0.274 OA
ENDROOT
BRANCH   1   9
ATOM      8  N   UNL     1       0.688  -0.476  -1.203  0.00  0.00    -0.314 N 
ATOM      9  C   UNL     1       0.827  -1.799  -1.425  0.00  0.00    +0.234 C 
ATOM     10  O   UNL     1       0.384  -2.597  -0.627  0.00  0.00    -0.274 OA
ATOM     11  H   UNL     1       1.042   0.162  -1.842  0.00  0.00    +0.149 HD
BRANCH   8  13
ATOM     12  C   UNL     1      -0.019   1.526   0.010  0.00  0.00    +0.024 C 
ATOM     13  C   UNL     1       0.002  -0.004   0.002  0.00  0.00    +0.101 C 
ENDBRANCH   8  13
ENDBRANCH   1   9
BRANCH   3  14
ATOM     14  N   UNL     1      -0.212  -3.997  -5.446  0.00  0.00    +0.381 N 
ATOM     15  H   UNL     1      -0.487  -3.283  -6.104  0.00  0.00    -0.090 HD
ATOM     16  H   UNL     1       0.049  -4.833  -5.948  0.00  0.00    -0.090 HD
ATOM     17  H   UNL     1      -0.984  -4.203  -4.830  0.00  0.00    -0.090 HD
ENDBRANCH   3  14
BRANCH   6  18
ATOM     18  C   UNL     1       3.139  -5.606  -1.488  0.00  0.00    +0.239 C 
BRANCH  18  19
ATOM     19  N   UNL     1       4.085  -5.843  -0.395  0.00  0.00    -0.261 N 
ATOM     20  C   UNL     1       3.923  -6.717   0.622  0.00  0.00    +0.129 A 
ATOM     21  C   UNL     1       5.016  -6.634   1.415  0.00  0.00    +0.081 A 
ATOM     22  C   UNL     1       5.876  -5.676   0.865  0.00  0.00    +0.078 A 
ATOM     23  N   UNL     1       5.321  -5.206  -0.223  0.00  0.00    -0.175 NA
ATOM     24  C   UNL     1       7.213  -5.263   1.425  0.00  0.00    +0.069 C 
ATOM     25 CL   UNL     1       5.302  -7.552   2.861  0.00  0.00    -0.080 Cl
ENDBRANCH  18  19
ENDBRANCH   6  18
TORSDOF 5
