REMARK  Name = ZINC39663011
REMARK  3 active torsions:
REMARK  status: ('A' for Active; 'I' for Inactive)
REMARK    1  A    between atoms: C_6  and  C_7
REMARK    2  A    between atoms: C_11  and  C_20
REMARK    3  A    between atoms: N_22  and  C_23
REMARK                            x       y       z     vdW  Elec       q    Type
REMARK                         _______ _______ _______ _____ _____    ______ ____
ROOT
ATOM      1  C   UNL     1      -1.549  -0.821   0.108  0.00  0.00    +0.247 C 
ATOM      2  O   UNL     1      -2.650  -0.326   0.257  0.00  0.00    -0.270 OA
ATOM      3  N   UNL     1      -1.424  -2.155  -0.037  0.00  0.00    -0.296 N 
ATOM      4  C   UNL     1      -0.174  -2.948  -0.096  0.00  0.00    +0.121 C 
ATOM      5  C   UNL     1      -0.487  -4.230   0.708  0.00  0.00    +0.100 C 
ATOM      6  C   UNL     1      -2.018  -4.364   0.653  0.00  0.00    -0.004 C 
ATOM      7  C   UNL     1      -2.506  -3.160  -0.166  0.00  0.00    +0.115 C 
ATOM      8  C   UNL     1      -2.410  -5.667  -0.037  0.00  0.00    -0.010 C 
ATOM      9  C   UNL     1      -3.935  -5.806  -0.028  0.00  0.00    -0.082 C 
ATOM     10  N   UNL     1      -4.420  -5.797   1.358  0.00  0.00    +0.379 N 
ATOM     11  C   UNL     1      -4.121  -4.504   1.985  0.00  0.00    -0.082 C 
ATOM     12  C   UNL     1      -2.604  -4.310   2.061  0.00  0.00    -0.010 C 
ATOM     13  H   UNL     1      -5.418  -5.949   1.364  0.00  0.00    -0.086 HD
ATOM     14  H   UNL     1      -3.967  -6.534   1.877  0.00  0.00    -0.086 HD
ENDROOT
BRANCH   1  20
ATOM     15  C   UNL     1       0.830  -0.414  -0.507  0.00  0.00    +0.014 A 
ATOM     16  C   UNL     1       1.947   0.394  -0.524  0.00  0.00    +0.021 A 
ATOM     17  C   UNL     1       1.901   1.655   0.047  0.00  0.00    +0.041 A 
ATOM     18  C   UNL     1       0.735   2.112   0.639  0.00  0.00    +0.021 A 
ATOM     19  C   UNL     1      -0.388   1.313   0.662  0.00  0.00    +0.014 A 
ATOM     20  C   UNL     1      -0.348   0.041   0.087  0.00  0.00    +0.037 A 
ATOM     21 CL   UNL     1       3.312   2.667   0.022  0.00  0.00    -0.084 Cl
ENDBRANCH   1  20
BRANCH   5  22
ATOM     22  C   UNL     1      -0.022  -4.081   2.134  0.00  0.00    +0.218 C 
ATOM     23  O   UNL     1      -0.004  -2.986   2.655  0.00  0.00    -0.275 OA
ATOM     24  N   UNL     1       0.375  -5.165   2.830  0.00  0.00    -0.314 N 
ATOM     25  H   UNL     1       0.361  -6.041   2.413  0.00  0.00    +0.149 HD
BRANCH  24  26
ATOM     26  C   UNL     1       0.827  -5.021   4.216  0.00  0.00    +0.059 C 
ATOM     27  C   UNL     1       2.313  -4.655   4.235  0.00  0.00    -0.056 C 
ATOM     28  N   UNL     1       3.073  -5.681   4.953  0.00  0.00    +0.381 N 
ATOM     29  C   UNL     1       2.948  -6.978   4.284  0.00  0.00    -0.078 C 
ATOM     30  C   UNL     1       1.483  -7.421   4.266  0.00  0.00    -0.014 C 
ATOM     31  C   UNL     1       0.631  -6.347   4.962  0.00  0.00    +0.004 C 
ATOM     32  C   UNL     1       1.147  -6.176   6.396  0.00  0.00    -0.014 C 
ATOM     33  C   UNL     1       2.625  -5.774   6.345  0.00  0.00    -0.078 C 
ATOM     34  H   UNL     1       4.047  -5.420   4.948  0.00  0.00    -0.082 HD
ENDBRANCH  24  26
ENDBRANCH   5  22
TORSDOF 3
