REMARK  Name = ZINC40225934
REMARK  6 active torsions:
REMARK  status: ('A' for Active; 'I' for Inactive)
REMARK    1  A    between atoms: C_9  and  C_10
REMARK    2  A    between atoms: C_10  and  C_12
REMARK    3  A    between atoms: C_10  and  N_21
REMARK    4  A    between atoms: C_12  and  C_13
REMARK    5  A    between atoms: C_16  and  O_20
REMARK    6  A    between atoms: C_17  and  O_19
REMARK                            x       y       z     vdW  Elec       q    Type
REMARK                         _______ _______ _______ _____ _____    ______ ____
ROOT
ATOM      1  C   UNL     1       4.890  -0.565  -0.050  0.00  0.00    -0.001 C 
ENDROOT
BRANCH   1  10
ATOM      2  C   UNL     1      -0.016   1.356   0.009  0.00  0.00    +0.005 A 
ATOM      3  C   UNL     1       1.194   2.070   0.002  0.00  0.00    +0.018 A 
ATOM      4  C   UNL     1       2.373   1.413  -0.013  0.00  0.00    +0.094 A 
ATOM      5  N   UNL     1       2.407   0.050  -0.021  0.00  0.00    -0.288 N 
ATOM      6  C   UNL     1       1.240  -0.675  -0.014  0.00  0.00    +0.161 A 
ATOM      7  C   UNL     1       0.002  -0.004   0.002  0.00  0.00    +0.048 A 
ATOM      8  N   UNL     1       1.583  -1.953  -0.025  0.00  0.00    -0.129 NA
ATOM      9  N   UNL     1       2.866  -2.053  -0.038  0.00  0.00    -0.135 NA
ATOM     10  C   UNL     1       3.413  -0.865  -0.037  0.00  0.00    +0.123 A 
ENDBRANCH   1  10
BRANCH   1  11
ATOM     11  N   UNL     1       5.555  -1.421  -1.041  0.00  0.00    +0.385 N 
ATOM     12  H   UNL     1       5.167  -1.242  -1.955  0.00  0.00    -0.089 HD
ATOM     13  H   UNL     1       6.544  -1.220  -1.050  0.00  0.00    -0.089 HD
ATOM     14  H   UNL     1       5.411  -2.390  -0.799  0.00  0.00    -0.089 HD
ENDBRANCH   1  11
BRANCH   1  15
ATOM     15  C   UNL     1       5.479  -0.837   1.336  0.00  0.00    +0.026 C 
BRANCH  15  16
ATOM     16  C   UNL     1       6.927  -0.421   1.357  0.00  0.00    -0.045 A 
ATOM     17  C   UNL     1       7.910  -1.328   1.010  0.00  0.00    +0.007 A 
ATOM     18  C   UNL     1       9.240  -0.952   1.028  0.00  0.00    +0.049 A 
ATOM     19  C   UNL     1       9.590   0.338   1.395  0.00  0.00    +0.158 A 
ATOM     20  C   UNL     1       8.600   1.251   1.744  0.00  0.00    +0.158 A 
ATOM     21  C   UNL     1       7.269   0.869   1.719  0.00  0.00    +0.052 A 
BRANCH  20  22
ATOM     22  O   UNL     1       8.939   2.518   2.105  0.00  0.00    -0.503 OA
ATOM     23  H   UNL     1       8.976   3.141   1.366  0.00  0.00    +0.292 HD
ENDBRANCH  20  22
BRANCH  19  24
ATOM     24  O   UNL     1      10.898   0.710   1.413  0.00  0.00    -0.503 OA
ATOM     25  H   UNL     1      11.216   1.074   0.576  0.00  0.00    +0.292 HD
ENDBRANCH  19  24
ENDBRANCH  15  16
ENDBRANCH   1  15
TORSDOF 6
