REMARK  Name = ZINC38083829
REMARK  5 active torsions:
REMARK  status: ('A' for Active; 'I' for Inactive)
REMARK    1  A    between atoms: C_1  and  C_2
REMARK    2  A    between atoms: C_2  and  N_3
REMARK    3  A    between atoms: C_7  and  N_11
REMARK    4  A    between atoms: N_11  and  C_12
REMARK    5  A    between atoms: C_12  and  C_13
REMARK                            x       y       z     vdW  Elec       q    Type
REMARK                         _______ _______ _______ _____ _____    ______ ____
ROOT
ATOM      1  N   UNL     1       2.957  -2.534  -2.576  0.00  0.00    +0.387 N 
ATOM      2  H   UNL     1       2.355  -3.132  -2.031  0.00  0.00    -0.085 HD
ATOM      3  H   UNL     1       3.039  -2.901  -3.512  0.00  0.00    -0.085 HD
ENDROOT
BRANCH   1   8
ATOM      4  N   UNL     1       0.688  -0.476  -1.203  0.00  0.00    -0.244 N 
ATOM      5  C   UNL     1       0.048  -0.715  -2.355  0.00  0.00    +0.221 C 
ATOM      6  O   UNL     1      -1.142  -0.574  -2.539  0.00  0.00    -0.275 OA
ATOM      7  C   UNL     1       1.045  -1.188  -3.390  0.00  0.00    +0.090 C 
ATOM      8  C   UNL     1       2.386  -1.181  -2.629  0.00  0.00    +0.025 C 
ATOM      9  C   UNL     1       2.007  -0.700  -1.246  0.00  0.00    +0.208 C 
ATOM     10  O   UNL     1       2.776  -0.544  -0.321  0.00  0.00    -0.277 OA
BRANCH   4  12
ATOM     11  C   UNL     1      -0.019   1.526   0.010  0.00  0.00    +0.025 C 
ATOM     12  C   UNL     1       0.002  -0.004   0.002  0.00  0.00    +0.113 C 
ENDBRANCH   4  12
ENDBRANCH   1   8
BRANCH   1  13
ATOM     13  C   UNL     1       4.287  -2.480  -1.954  0.00  0.00    -0.076 C 
BRANCH  13  14
ATOM     14  C   UNL     1       4.881  -3.889  -1.899  0.00  0.00    -0.006 C 
ATOM     15  C   UNL     1       5.133  -4.393  -3.329  0.00  0.00    +0.026 C 
ATOM     16  C   UNL     1       6.014  -5.672  -3.244  0.00  0.00    +0.166 C 
ATOM     17  S   UNL     1       7.197  -5.178  -1.921  0.00  0.00    -0.031 S 
ATOM     18  O   UNL     1       8.347  -4.598  -2.521  0.00  0.00    -0.174 OA
ATOM     19  O   UNL     1       7.354  -6.261  -1.013  0.00  0.00    -0.174 OA
ATOM     20  C   UNL     1       6.213  -3.853  -1.111  0.00  0.00    +0.167 C 
ENDBRANCH  13  14
ENDBRANCH   1  13
TORSDOF 4
