REMARK  Name = ZINC35011976
REMARK  7 active torsions:
REMARK  status: ('A' for Active; 'I' for Inactive)
REMARK    1  A    between atoms: C_1  and  C_2
REMARK    2  A    between atoms: C_2  and  N_3
REMARK    3  A    between atoms: C_4  and  C_6
REMARK    4  A    between atoms: C_6  and  C_8
REMARK    5  A    between atoms: C_6  and  N_9
REMARK    6  A    between atoms: N_9  and  C_10
REMARK    7  A    between atoms: C_16  and  C_18
REMARK                            x       y       z     vdW  Elec       q    Type
REMARK                         _______ _______ _______ _____ _____    ______ ____
ROOT
ATOM      1  C   UNL     1      -4.353  -4.343  -0.217  0.00  0.00    -0.067 C 
ATOM      2  C   UNL     1      -5.276  -3.850   0.899  0.00  0.00    -0.015 C 
ATOM      3  C   UNL     1      -4.762  -4.359   2.247  0.00  0.00    -0.002 C 
ATOM      4  C   UNL     1      -4.742  -5.889   2.241  0.00  0.00    +0.000 C 
ATOM      5  C   UNL     1      -3.819  -6.382   1.124  0.00  0.00    +0.002 C 
ATOM      6  C   UNL     1      -4.333  -5.873  -0.224  0.00  0.00    -0.022 C 
ENDROOT
BRANCH   6   7
ATOM      7  C   UNL     1      -3.410  -6.366  -1.340  0.00  0.00    -0.009 C 
ATOM      8  C   UNL     1      -3.390  -7.896  -1.347  0.00  0.00    +0.004 C 
ATOM      9  C   UNL     1      -2.467  -8.389  -2.463  0.00  0.00    +0.000 C 
ATOM     10  C   UNL     1      -2.980  -7.879  -3.812  0.00  0.00    +0.000 C 
ATOM     11  C   UNL     1      -3.000  -6.350  -3.805  0.00  0.00    +0.000 C 
ATOM     12  C   UNL     1      -3.923  -5.856  -2.689  0.00  0.00    +0.004 C 
ENDBRANCH   6   7
BRANCH   1  13
ATOM     13  N   UNL     1      -2.993  -3.836   0.012  0.00  0.00    +0.388 N 
ATOM     14  H   UNL     1      -2.374  -4.202  -0.696  0.00  0.00    -0.084 HD
ATOM     15  H   UNL     1      -2.673  -4.131   0.922  0.00  0.00    -0.084 HD
BRANCH  13  16
ATOM     16  C   UNL     1      -2.999  -2.369  -0.053  0.00  0.00    +0.013 C 
ATOM     17  C   UNL     1      -1.626  -1.834   0.356  0.00  0.00    -0.004 C 
BRANCH  16  19
ATOM     18  N   UNL     1      -3.371  -0.617  -1.758  0.00  0.00    -0.317 N 
ATOM     19  C   UNL     1      -3.311  -1.929  -1.460  0.00  0.00    +0.199 C 
ATOM     20  O   UNL     1      -3.508  -2.757  -2.324  0.00  0.00    -0.278 OA
ATOM     21  H   UNL     1      -3.213   0.046  -1.067  0.00  0.00    +0.149 HD
BRANCH  18  23
ATOM     22  C   UNL     1      -3.680   1.339  -3.194  0.00  0.00    +0.024 C 
ATOM     23  C   UNL     1      -3.673  -0.189  -3.127  0.00  0.00    +0.101 C 
ENDBRANCH  18  23
ENDBRANCH  16  19
ENDBRANCH  13  16
ENDBRANCH   1  13
TORSDOF 5
