REMARK  Name = ZINC66529354
REMARK  11 active torsions:
REMARK  status: ('A' for Active; 'I' for Inactive)
REMARK    1  A    between atoms: C_1  and  C_2
REMARK    2  A    between atoms: C_5  and  C_24
REMARK    3  A    between atoms: C_6  and  O_9
REMARK    4  A    between atoms: C_7  and  C_8
REMARK    5  A    between atoms: O_9  and  C_10
REMARK    6  A    between atoms: C_10  and  C_11
REMARK    7  A    between atoms: C_11  and  C_13
REMARK    8  A    between atoms: C_11  and  O_23
REMARK    9  A    between atoms: C_13  and  N_14
REMARK   10  A    between atoms: C_20  and  C_21
REMARK   11  A    between atoms: C_20  and  C_22
REMARK                            x       y       z     vdW  Elec       q    Type
REMARK                         _______ _______ _______ _____ _____    ______ ____
ROOT
ATOM      1  C   UNL     1       1.146  -3.857   4.221  0.00  0.00    +0.135 C 
ENDROOT
BRANCH   1   2
ATOM      2  O   UNL     1       0.534  -5.119   3.949  0.00  0.00    -0.390 OA
ATOM      3  H   UNL     1       1.047  -5.685   3.356  0.00  0.00    +0.210 HD
ENDBRANCH   1   2
BRANCH   1   4
ATOM      4  C   UNL     1       1.330  -3.087   2.912  0.00  0.00    +0.258 C 
BRANCH   4   5
ATOM      5  O   UNL     1       0.050  -2.776   2.358  0.00  0.00    -0.489 OA
BRANCH   5  11
ATOM      6  C   UNL     1      -0.018   1.503   0.010  0.00  0.00    +0.044 C 
ATOM      7  C   UNL     1       0.002  -0.004   0.002  0.00  0.00    -0.044 A 
ATOM      8  C   UNL     1       0.006  -0.688  -1.200  0.00  0.00    +0.004 A 
ATOM      9  C   UNL     1       0.024  -2.071  -1.211  0.00  0.00    +0.007 A 
ATOM     10  C   UNL     1       0.039  -2.772  -0.020  0.00  0.00    -0.009 A 
ATOM     11  C   UNL     1       0.035  -2.088   1.186  0.00  0.00    +0.127 A 
ATOM     12  C   UNL     1       0.023  -0.700   1.195  0.00  0.00    -0.006 A 
ATOM     13  C   UNL     1       0.026   0.046   2.504  0.00  0.00    +0.048 C 
ATOM     14  C   UNL     1       0.059  -4.279  -0.033  0.00  0.00    +0.047 C 
ENDBRANCH   5  11
ENDBRANCH   4   5
ENDBRANCH   1   4
BRANCH   1  15
ATOM     15  C   UNL     1       2.510  -4.081   4.877  0.00  0.00    -0.042 C 
BRANCH  15  16
ATOM     16  N   UNL     1       2.333  -4.821   6.134  0.00  0.00    +0.392 N 
ATOM     17  C   UNL     1       1.587  -3.991   7.093  0.00  0.00    -0.058 C 
ATOM     18  C   UNL     1       1.193  -4.856   8.292  0.00  0.00    +0.085 C 
ATOM     19  N   UNL     1       2.365  -5.562   8.803  0.00  0.00    -0.318 N 
ATOM     20  C   UNL     1       3.486  -5.710   8.086  0.00  0.00    +0.202 C 
ATOM     21  O   UNL     1       4.409  -6.330   8.572  0.00  0.00    -0.277 OA
ATOM     22  C   UNL     1       3.647  -5.142   6.705  0.00  0.00    +0.007 C 
ATOM     23  C   UNL     1       4.351  -6.167   5.814  0.00  0.00    -0.000 C 
ATOM     24  C   UNL     1       4.493  -3.869   6.776  0.00  0.00    -0.000 C 
ATOM     25  H   UNL     1       2.331  -5.937   9.696  0.00  0.00    +0.149 HD
ATOM     26  H   UNL     1       1.824  -5.674   5.956  0.00  0.00    -0.080 HD
ENDBRANCH  15  16
ENDBRANCH   1  15
TORSDOF 6
