REMARK  Name = ZINC21817285
REMARK  6 active torsions:
REMARK  status: ('A' for Active; 'I' for Inactive)
REMARK    1  A    between atoms: C_1  and  C_2
REMARK    2  A    between atoms: C_7  and  N_12
REMARK    3  A    between atoms: C_9  and  C_11
REMARK    4  A    between atoms: N_12  and  S_13
REMARK    5  A    between atoms: S_13  and  C_16
REMARK    6  A    between atoms: C_21  and  N_22
REMARK                            x       y       z     vdW  Elec       q    Type
REMARK                         _______ _______ _______ _____ _____    ______ ____
ROOT
ATOM      1  S   UNL     1      -2.600  -0.717   0.101  0.00  0.00    +0.060 S 
ATOM      2  O   UNL     1      -1.922  -1.100   1.289  0.00  0.00    -0.153 OA
ATOM      3  O   UNL     1      -3.975  -1.001  -0.117  0.00  0.00    -0.153 OA
ENDROOT
BRANCH   1   4
ATOM      4  C   UNL     1      -2.417   1.030  -0.043  0.00  0.00    +0.126 A 
ATOM      5  C   UNL     1      -1.743   1.737   0.934  0.00  0.00    +0.032 A 
ATOM      6  C   UNL     1      -1.599   3.107   0.823  0.00  0.00    +0.022 A 
ATOM      7  C   UNL     1      -2.130   3.775  -0.267  0.00  0.00    +0.043 A 
ATOM      8  C   UNL     1      -2.801   3.073  -1.250  0.00  0.00    +0.044 A 
ATOM      9  C   UNL     1      -2.951   1.696  -1.138  0.00  0.00    +0.053 A 
ATOM     10 CL   UNL     1      -1.948   5.496  -0.402  0.00  0.00    -0.083 Cl
BRANCH   9  11
ATOM     11  N   UNL     1      -3.633   0.984  -2.127  0.00  0.00    -0.356 N 
ATOM     12  H   UNL     1      -4.055   1.513  -2.994  0.00  0.00    +0.142 HD
ATOM     13  H   UNL     1      -3.747  -0.107  -2.039  0.00  0.00    +0.142 HD
ENDBRANCH   9  11
ENDBRANCH   1   4
BRANCH   1  14
ATOM     14  N   UNL     1      -1.770  -1.401  -1.159  0.00  0.00    -0.187 NA
ATOM     15  H   UNL     1      -2.330  -1.804  -2.016  0.00  0.00    +0.148 HD
BRANCH  14  21
ATOM     16  C   UNL     1       0.108  -2.304  -4.917  0.00  0.00    +0.008 C 
ATOM     17  C   UNL     1      -0.323  -2.416  -3.453  0.00  0.00    -0.010 C 
ATOM     18  C   UNL     1       0.329  -3.649  -2.822  0.00  0.00    +0.003 C 
ATOM     19  C   UNL     1      -0.102  -3.761  -1.359  0.00  0.00    +0.002 C 
ATOM     20  C   UNL     1       0.339  -2.507  -0.600  0.00  0.00    +0.020 C 
ATOM     21  C   UNL     1      -0.312  -1.274  -1.231  0.00  0.00    +0.080 C 
ATOM     22  C   UNL     1       0.118  -1.162  -2.695  0.00  0.00    +0.007 C 
ATOM     23  C   UNL     1      -0.533   0.070  -3.325  0.00  0.00    +0.009 C 
ENDBRANCH  14  21
ENDBRANCH   1  14
TORSDOF 4
