REMARK  Name = ZINC64286861
REMARK  6 active torsions:
REMARK  status: ('A' for Active; 'I' for Inactive)
REMARK    1  A    between atoms: C_1  and  C_2
REMARK    2  A    between atoms: C_2  and  C_3
REMARK    3  A    between atoms: C_3  and  C_5
REMARK    4  A    between atoms: C_3  and  N_6
REMARK    5  A    between atoms: C_7  and  C_9
REMARK    6  A    between atoms: C_15  and  C_17
REMARK                            x       y       z     vdW  Elec       q    Type
REMARK                         _______ _______ _______ _____ _____    ______ ____
ROOT
ATOM      1  C   UNL     1      -0.117   0.377   4.839  0.00  0.00    +0.173 C 
ATOM      2  C   UNL     1      -0.801   1.740   4.574  0.00  0.00    +0.102 C 
ATOM      3  S   UNL     1      -0.625   2.515   6.243  0.00  0.00    -0.139 S 
ATOM      4  C   UNL     1       0.933   1.643   6.714  0.00  0.00    +0.178 C 
ATOM      5  N   UNL     1       0.781   0.370   5.982  0.00  0.00    -0.276 N 
ATOM      6  C   UNL     1       1.442  -0.742   6.358  0.00  0.00    +0.246 C 
ATOM      7  O   UNL     1       1.216  -1.801   5.803  0.00  0.00    -0.270 OA
ENDROOT
BRANCH   6   8
ATOM      8  C   UNL     1       2.434  -0.676   7.436  0.00  0.00    +0.043 C 
ATOM      9  C   UNL     1       3.272  -1.685   7.859  0.00  0.00    +0.008 A 
ATOM     10  C   UNL     1       3.454  -3.027   7.438  0.00  0.00    +0.010 A 
ATOM     11  C   UNL     1       4.369  -3.812   8.045  0.00  0.00    +0.001 A 
ATOM     12  C   UNL     1       5.171  -3.355   9.103  0.00  0.00    +0.002 A 
ATOM     13  C   UNL     1       5.077  -2.095   9.580  0.00  0.00    +0.026 A 
ATOM     14  C   UNL     1       4.105  -1.172   8.974  0.00  0.00    +0.043 A 
ATOM     15  N   UNL     1       3.809   0.071   9.230  0.00  0.00    -0.380 N 
ATOM     16  C   UNL     1       2.755   0.515   8.311  0.00  0.00    +0.154 C 
ATOM     17  H   UNL     1       4.222   0.618   9.917  0.00  0.00    +0.160 HD
ENDBRANCH   6   8
BRANCH   1  19
ATOM     18  N   UNL     1       0.043  -0.140   2.426  0.00  0.00    -0.311 N 
ATOM     19  C   UNL     1       0.667  -0.012   3.613  0.00  0.00    +0.235 C 
ATOM     20  O   UNL     1       1.861  -0.209   3.694  0.00  0.00    -0.274 OA
ATOM     21  H   UNL     1      -0.912   0.018   2.361  0.00  0.00    +0.149 HD
BRANCH  18  22
ATOM     22  C   UNL     1       0.805  -0.517   1.233  0.00  0.00    +0.070 C 
ATOM     23  C   UNL     1       0.927  -2.041   1.167  0.00  0.00    +0.028 C 
BRANCH  22  25
ATOM     24  C   UNL     1       0.071   1.522  -0.011  0.00  0.00    +0.005 C 
ATOM     25  C   UNL     1       0.083  -0.008  -0.016  0.00  0.00    +0.018 C 
ENDBRANCH  22  25
ENDBRANCH  18  22
ENDBRANCH   1  19
TORSDOF 4
