REMARK  Name = ZINC67404951
REMARK  7 active torsions:
REMARK  status: ('A' for Active; 'I' for Inactive)
REMARK    1  A    between atoms: C_3  and  S_10
REMARK    2  A    between atoms: C_6  and  C_7
REMARK    3  A    between atoms: S_10  and  N_13
REMARK    4  A    between atoms: N_13  and  C_14
REMARK    5  A    between atoms: C_14  and  C_15
REMARK    6  A    between atoms: N_20  and  C_21
REMARK    7  A    between atoms: C_21  and  C_22
REMARK                            x       y       z     vdW  Elec       q    Type
REMARK                         _______ _______ _______ _____ _____    ______ ____
ROOT
ATOM      1  N   UNL     1       4.356   2.852   1.362  0.00  0.00    -0.191 NA
ATOM      2  H   UNL     1       4.415   3.721   1.788  0.00  0.00    +0.148 HD
ENDROOT
BRANCH   1   3
ATOM      3  S   UNL     1       3.986   2.743  -0.248  0.00  0.00    +0.058 S 
ATOM      4  O   UNL     1       4.945   1.869  -0.828  0.00  0.00    -0.153 OA
ATOM      5  O   UNL     1       3.788   4.072  -0.711  0.00  0.00    -0.153 OA
BRANCH   3   8
ATOM      6  C   UNL     1       0.036   2.045  -0.457  0.00  0.00    +0.015 A 
ATOM      7  C   UNL     1       1.260   2.675  -0.362  0.00  0.00    +0.029 A 
ATOM      8  C   UNL     1       2.427   1.931  -0.370  0.00  0.00    +0.105 A 
ATOM      9  C   UNL     1       2.374   0.552  -0.475  0.00  0.00    +0.029 A 
ATOM     10  C   UNL     1       1.157  -0.090  -0.571  0.00  0.00    +0.015 A 
ATOM     11  C   UNL     1      -0.024   0.655  -0.562  0.00  0.00    +0.037 A 
BRANCH  11  12
ATOM     12  C   UNL     1      -1.332  -0.027  -0.665  0.00  0.00    +0.242 C 
ATOM     13  O   UNL     1      -2.358   0.624  -0.657  0.00  0.00    -0.270 OA
ATOM     14  N   UNL     1      -1.386  -1.369  -0.766  0.00  0.00    -0.325 N 
ATOM     15  H   UNL     1      -0.567  -1.889  -0.772  0.00  0.00    +0.145 HD
ATOM     16  H   UNL     1      -2.244  -1.817  -0.833  0.00  0.00    +0.145 HD
ENDBRANCH  11  12
ENDBRANCH   3   8
ENDBRANCH   1   3
BRANCH   1  17
ATOM     17  C   UNL     1       4.595   1.636   2.143  0.00  0.00    +0.090 C 
BRANCH  17  18
ATOM     18  C   UNL     1       5.270   2.003   3.466  0.00  0.00    -0.053 C 
ATOM     19  C   UNL     1       5.678   0.720   4.221  0.00  0.00    -0.016 C 
ATOM     20  C   UNL     1       7.174   0.554   3.844  0.00  0.00    -0.020 C 
ATOM     21  C   UNL     1       7.646   2.029   3.782  0.00  0.00    -0.078 C 
ATOM     22  N   UNL     1       6.501   2.771   3.204  0.00  0.00    +0.383 N 
ATOM     23  H   UNL     1       6.631   2.875   2.209  0.00  0.00    -0.081 HD
BRANCH  22  24
ATOM     24  C   UNL     1       6.400   4.096   3.830  0.00  0.00    -0.075 C 
BRANCH  24  25
ATOM     25  C   UNL     1       7.617   4.938   3.440  0.00  0.00    -0.028 C 
ATOM     26  C   UNL     1       7.583   6.265   4.201  0.00  0.00    +0.002 C 
ATOM     27  C   UNL     1       8.800   7.107   3.811  0.00  0.00    +0.000 C 
ATOM     28  C   UNL     1       8.769   7.381   2.307  0.00  0.00    +0.000 C 
ATOM     29  C   UNL     1       8.802   6.055   1.545  0.00  0.00    +0.000 C 
ATOM     30  C   UNL     1       7.586   5.212   1.935  0.00  0.00    +0.002 C 
ENDBRANCH  24  25
ENDBRANCH  22  24
ENDBRANCH  17  18
ENDBRANCH   1  17
TORSDOF 7
