REMARK  Name = ZINC52094613
REMARK  8 active torsions:
REMARK  status: ('A' for Active; 'I' for Inactive)
REMARK    1  A    between atoms: C_1  and  C_2
REMARK    2  A    between atoms: C_2  and  C_3
REMARK    3  A    between atoms: C_3  and  C_4
REMARK    4  A    between atoms: C_4  and  C_5
REMARK    5  A    between atoms: C_5  and  C_7
REMARK    6  A    between atoms: C_5  and  N_20
REMARK    7  A    between atoms: N_20  and  C_21
REMARK    8  A    between atoms: C_21  and  C_22
REMARK                            x       y       z     vdW  Elec       q    Type
REMARK                         _______ _______ _______ _____ _____    ______ ____
ROOT
ATOM      1  C   UNL     1       1.412  -3.883   2.459  0.00  0.00    -0.045 A 
ATOM      2  C   UNL     1       2.375  -4.661   1.847  0.00  0.00    +0.031 A 
ATOM      3  C   UNL     1       2.228  -6.039   1.810  0.00  0.00    +0.067 A 
ATOM      4  C   UNL     1       1.107  -6.636   2.391  0.00  0.00    +0.068 A 
ATOM      5  C   UNL     1       0.145  -5.848   3.003  0.00  0.00    +0.043 A 
ATOM      6  C   UNL     1       0.303  -4.475   3.041  0.00  0.00    +0.022 A 
ATOM      7 BR   UNL     1      -1.005  -3.400   3.883  0.00  0.00    -0.050 Br
ATOM      8  N   UNL     1       1.236  -8.009   2.198  0.00  0.00    -0.306 N 
ATOM      9  H   UNL     1       0.607  -8.685   2.494  0.00  0.00    +0.170 HD
ATOM     10  C   UNL     1       2.383  -8.238   1.530  0.00  0.00    +0.325 A 
ATOM     11  O   UNL     1       2.795  -9.334   1.201  0.00  0.00    -0.247 OA
ATOM     12  N   UNL     1       3.004  -7.069   1.281  0.00  0.00    -0.306 N 
ATOM     13  H   UNL     1       3.847  -6.963   0.814  0.00  0.00    +0.170 HD
ENDROOT
BRANCH   1  14
ATOM     14  C   UNL     1       1.571  -2.385   2.500  0.00  0.00    -0.040 C 
BRANCH  14  15
ATOM     15  N   UNL     1       2.980  -2.037   2.273  0.00  0.00    +0.383 N 
ATOM     16  H   UNL     1       3.299  -2.466   1.418  0.00  0.00    -0.085 HD
ATOM     17  H   UNL     1       3.071  -1.034   2.200  0.00  0.00    -0.085 HD
BRANCH  15  18
ATOM     18  C   UNL     1       3.792  -2.522   3.397  0.00  0.00    -0.085 C 
ATOM     19  C   UNL     1       5.247  -2.096   3.196  0.00  0.00    -0.017 C 
ENDBRANCH  15  18
ENDBRANCH  14  15
BRANCH  14  20
ATOM     20  C   UNL     1       0.707  -1.751   1.409  0.00  0.00    -0.011 C 
BRANCH  20  21
ATOM     21  C   UNL     1       0.760  -0.227   1.538  0.00  0.00    -0.002 C 
BRANCH  21  23
ATOM     22  C   UNL     1      -0.157   1.928   0.666  0.00  0.00    +0.004 C 
ATOM     23  C   UNL     1      -0.210   0.404   0.537  0.00  0.00    -0.003 C 
ENDBRANCH  21  23
ENDBRANCH  20  21
ENDBRANCH  14  20
ENDBRANCH   1  14
TORSDOF 6
