REMARK  Name = ZINC35209160
REMARK  7 active torsions:
REMARK  status: ('A' for Active; 'I' for Inactive)
REMARK    1  A    between atoms: C_1  and  C_2
REMARK    2  A    between atoms: C_3  and  C_9
REMARK    3  A    between atoms: C_4  and  C_8
REMARK    4  A    between atoms: N_5  and  C_7
REMARK    5  A    between atoms: C_10  and  C_11
REMARK    6  A    between atoms: C_18  and  C_20
REMARK    7  A    between atoms: C_20  and  O_21
REMARK                            x       y       z     vdW  Elec       q    Type
REMARK                         _______ _______ _______ _____ _____    ______ ____
ROOT
ATOM      1  C   UNL     1      -0.960   0.920  -4.317  0.00  0.00    +0.240 C 
ATOM      2  O   UNL     1      -0.080   0.565  -5.080  0.00  0.00    -0.271 OA
ATOM      3  N   UNL     1      -1.915   1.771  -4.740  0.00  0.00    -0.293 N 
ATOM      4  C   UNL     1      -2.900   2.319  -3.797  0.00  0.00    +0.108 C 
ATOM      5  C   UNL     1      -2.889   3.847  -3.906  0.00  0.00    +0.019 C 
ATOM      6  C   UNL     1      -3.122   4.252  -5.364  0.00  0.00    +0.003 C 
ATOM      7  C   UNL     1      -1.992   3.698  -6.235  0.00  0.00    +0.025 C 
ATOM      8  C   UNL     1      -1.989   2.173  -6.151  0.00  0.00    +0.102 C 
ENDROOT
BRANCH   1  10
ATOM      9  C   UNL     1      -0.082  -0.491  -2.588  0.00  0.00    +0.016 C 
ATOM     10  C   UNL     1      -0.979   0.438  -2.983  0.00  0.00    +0.068 C 
BRANCH   9  13
ATOM     11  C   UNL     1      -0.144   1.300   0.030  0.00  0.00    +0.068 C 
ATOM     12  C   UNL     1      -0.130  -0.206  -0.030  0.00  0.00    +0.067 A 
ATOM     13  C   UNL     1      -0.102  -0.991  -1.206  0.00  0.00    +0.018 A 
ATOM     14  C   UNL     1      -0.098  -2.316  -0.811  0.00  0.00    +0.043 A 
ATOM     15  N   UNL     1      -0.122  -2.334   0.532  0.00  0.00    -0.271 N 
ATOM     16  N   UNL     1      -0.136  -1.014   0.995  0.00  0.00    -0.176 NA
ATOM     17  C   UNL     1      -0.127  -3.535   1.371  0.00  0.00    +0.172 C 
ATOM     18  C   UNL     1      -0.072  -3.518  -1.720  0.00  0.00    +0.066 C 
ENDBRANCH   9  13
ENDBRANCH   1  10
BRANCH   8  19
ATOM     19  C   UNL     1      -0.776   1.623  -6.905  0.00  0.00    +0.178 C 
BRANCH  19  20
ATOM     20  O   UNL     1      -0.873   0.199  -6.989  0.00  0.00    -0.393 OA
ATOM     21  H   UNL     1      -0.136  -0.218  -7.455  0.00  0.00    +0.209 HD
ENDBRANCH  19  20
ENDBRANCH   8  19
TORSDOF 4
