REMARK  Name = ZINC62712591
REMARK  5 active torsions:
REMARK  status: ('A' for Active; 'I' for Inactive)
REMARK    1  A    between atoms: C_1  and  O_2
REMARK    2  A    between atoms: O_2  and  C_3
REMARK    3  A    between atoms: C_8  and  N_9
REMARK    4  A    between atoms: N_9  and  C_10
REMARK    5  A    between atoms: C_15  and  C_16
REMARK                            x       y       z     vdW  Elec       q    Type
REMARK                         _______ _______ _______ _____ _____    ______ ____
ROOT
ATOM      1  C   UNL     1      -0.183  -4.163   0.073  0.00  0.00    +0.045 A 
ATOM      2  C   UNL     1      -1.434  -4.767   0.069  0.00  0.00    +0.024 A 
ATOM      3  C   UNL     1      -1.540  -6.140   0.153  0.00  0.00    +0.005 A 
ATOM      4  C   UNL     1      -0.405  -6.928   0.243  0.00  0.00    +0.039 A 
ATOM      5  C   UNL     1       0.848  -6.347   0.249  0.00  0.00    +0.136 A 
ATOM      6  C   UNL     1       0.971  -4.956   0.158  0.00  0.00    +0.069 A 
ATOM      7  F   UNL     1       1.952  -7.120   0.338  0.00  0.00    -0.205 F 
ENDROOT
BRANCH   6   8
ATOM      8  C   UNL     1       2.305  -4.328   0.157  0.00  0.00    +0.104 C 
ATOM      9  N   UNL     1       2.697  -3.676  -0.929  0.00  0.00    -0.372 N 
ATOM     10  C   UNL     1       4.006  -3.024  -1.000  0.00  0.00    +0.115 C 
ATOM     11  C   UNL     1       4.988  -3.772  -0.092  0.00  0.00    +0.040 C 
ATOM     12  C   UNL     1       4.390  -3.839   1.318  0.00  0.00    +0.104 C 
ATOM     13  N   UNL     1       3.055  -4.436   1.246  0.00  0.00    -0.330 N 
ATOM     14  H   UNL     1       2.713  -4.925   2.010  0.00  0.00    +0.147 HD
ATOM     15  H   UNL     1       2.103  -3.631  -1.695  0.00  0.00    +0.161 HD
ENDBRANCH   6   8
BRANCH   1  16
ATOM     16  N   UNL     1      -0.075  -2.780  -0.013  0.00  0.00    -0.311 N 
ATOM     17  H   UNL     1       0.792  -2.355   0.074  0.00  0.00    +0.152 HD
BRANCH  16  23
ATOM     18  C   UNL     1      -1.410  -0.829   0.505  0.00  0.00    +0.141 A 
ATOM     19  C   UNL     1      -2.540  -0.058   0.286  0.00  0.00    +0.047 A 
ATOM     20  C   UNL     1      -3.478  -0.455  -0.649  0.00  0.00    +0.004 A 
ATOM     21  C   UNL     1      -3.292  -1.621  -1.369  0.00  0.00    +0.002 A 
ATOM     22  C   UNL     1      -2.167  -2.396  -1.157  0.00  0.00    +0.027 A 
ATOM     23  C   UNL     1      -1.218  -2.001  -0.225  0.00  0.00    +0.074 A 
BRANCH  18  25
ATOM     24  C   UNL     1      -0.749   0.772   2.134  0.00  0.00    +0.277 C 
ATOM     25  O   UNL     1      -0.487  -0.440   1.424  0.00  0.00    -0.493 OA
ENDBRANCH  18  25
ENDBRANCH  16  23
ENDBRANCH   1  16
TORSDOF 4
