REMARK  Name = ZINC39672861
REMARK  6 active torsions:
REMARK  status: ('A' for Active; 'I' for Inactive)
REMARK    1  A    between atoms: C_1  and  C_2
REMARK    2  A    between atoms: C_2  and  C_3
REMARK    3  A    between atoms: C_7  and  C_16
REMARK    4  A    between atoms: N_18  and  C_19
REMARK    5  A    between atoms: C_19  and  C_20
REMARK    6  A    between atoms: C_20  and  N_26
REMARK                            x       y       z     vdW  Elec       q    Type
REMARK                         _______ _______ _______ _____ _____    ______ ____
ROOT
ATOM      1  C   UNL     1      -0.745  -3.868   2.530  0.00  0.00    +0.218 C 
ATOM      2  O   UNL     1      -1.427  -3.617   3.501  0.00  0.00    -0.275 OA
ATOM      3  N   UNL     1       0.580  -4.069   2.672  0.00  0.00    -0.313 N 
ATOM      4  H   UNL     1       1.126  -4.270   1.896  0.00  0.00    +0.149 HD
ENDROOT
BRANCH   1   9
ATOM      5  C   UNL     1      -4.855  -3.703   2.147  0.00  0.00    +0.215 C 
ATOM      6  O   UNL     1      -5.697  -4.561   2.310  0.00  0.00    -0.276 OA
ATOM      7  N   UNL     1      -3.763  -3.964   1.402  0.00  0.00    -0.300 N 
ATOM      8  C   UNL     1      -2.633  -3.055   1.097  0.00  0.00    +0.121 C 
ATOM      9  C   UNL     1      -1.379  -3.954   1.165  0.00  0.00    +0.100 C 
ATOM     10  C   UNL     1      -1.901  -5.377   0.904  0.00  0.00    -0.004 C 
ATOM     11  C   UNL     1      -3.417  -5.228   0.708  0.00  0.00    +0.115 C 
ATOM     12  C   UNL     1      -1.258  -5.953  -0.354  0.00  0.00    -0.010 C 
ATOM     13  C   UNL     1      -1.749  -7.389  -0.560  0.00  0.00    -0.082 C 
ATOM     14  N   UNL     1      -1.396  -8.202   0.610  0.00  0.00    +0.379 N 
ATOM     15  C   UNL     1      -2.092  -7.696   1.799  0.00  0.00    -0.082 C 
ATOM     16  C   UNL     1      -1.616  -6.273   2.105  0.00  0.00    -0.010 C 
ATOM     17  H   UNL     1      -1.666  -9.160   0.445  0.00  0.00    -0.086 HD
ATOM     18  H   UNL     1      -0.399  -8.157   0.760  0.00  0.00    -0.086 HD
BRANCH   5  20
ATOM     19  C   UNL     1      -6.343  -2.314   3.562  0.00  0.00    +0.013 C 
ATOM     20  C   UNL     1      -5.031  -2.345   2.777  0.00  0.00    +0.092 C 
ENDBRANCH   5  20
ENDBRANCH   1   9
BRANCH   3  21
ATOM     21  C   UNL     1       1.196  -3.985   3.998  0.00  0.00    +0.126 C 
BRANCH  21  22
ATOM     22  C   UNL     1       2.714  -4.122   3.866  0.00  0.00    +0.038 C 
ATOM     23  C   UNL     1       3.346  -4.166   5.258  0.00  0.00    +0.024 C 
ATOM     24  C   UNL     1       3.014  -2.875   6.010  0.00  0.00    +0.002 C 
ATOM     25  C   UNL     1       3.568  -1.678   5.236  0.00  0.00    +0.000 C 
ATOM     26  C   UNL     1       2.937  -1.634   3.843  0.00  0.00    +0.002 C 
ATOM     27  C   UNL     1       3.268  -2.925   3.091  0.00  0.00    +0.024 C 
BRANCH  22  28
ATOM     28  N   UNL     1       3.033  -5.362   3.144  0.00  0.00    -0.291 NA
ATOM     29  C   UNL     1       2.456  -6.531   3.825  0.00  0.00    +0.113 C 
ATOM     30  C   UNL     1       2.760  -7.790   3.010  0.00  0.00    +0.175 C 
ATOM     31  O   UNL     1       4.175  -7.909   2.835  0.00  0.00    -0.377 OA
ATOM     32  C   UNL     1       4.769  -6.788   2.175  0.00  0.00    +0.175 C 
ATOM     33  C   UNL     1       4.485  -5.518   2.981  0.00  0.00    +0.113 C 
ENDBRANCH  22  28
ENDBRANCH  21  22
ENDBRANCH   3  21
TORSDOF 5
