REMARK  Name = ZINC43218921
REMARK  6 active torsions:
REMARK  status: ('A' for Active; 'I' for Inactive)
REMARK    1  A    between atoms: C_4  and  C_7
REMARK    2  A    between atoms: C_7  and  C_36
REMARK    3  A    between atoms: C_12  and  C_15
REMARK    4  A    between atoms: C_20  and  O_21
REMARK    5  A    between atoms: N_24  and  C_27
REMARK    6  A    between atoms: C_31  and  N_33
REMARK                            x       y       z     vdW  Elec       q    Type
REMARK                         _______ _______ _______ _____ _____    ______ ____
ROOT
ATOM      1  C   UNL     1       3.394  -1.133  -0.013  0.00  0.00    +0.074 C 
ATOM      2  C   UNL     1       3.758  -2.341   0.875  0.00  0.00    +0.090 C 
ATOM      3  C   UNL     1       5.166  -2.010   1.439  0.00  0.00    +0.078 C 
ATOM      4  C   UNL     1       5.527  -0.642   0.825  0.00  0.00    -0.023 C 
ATOM      5  N   UNL     1       4.209  -0.012   0.522  0.00  0.00    +0.398 N 
ATOM      6  C   UNL     1       4.921  -1.857   2.923  0.00  0.00    +0.229 C 
ATOM      7  O   UNL     1       5.768  -1.594   3.749  0.00  0.00    -0.275 OA
ATOM      8  N   UNL     1       3.624  -2.058   3.182  0.00  0.00    -0.210 N 
ATOM      9  C   UNL     1       2.868  -2.345   2.098  0.00  0.00    +0.229 C 
ATOM     10  O   UNL     1       1.676  -2.568   2.096  0.00  0.00    -0.275 OA
ATOM     11  H   UNL     1       4.319   0.708  -0.176  0.00  0.00    -0.083 HD
ATOM     12  H   UNL     1       3.786   0.365   1.357  0.00  0.00    -0.083 HD
ENDROOT
BRANCH   1  16
ATOM     13  C   UNL     1      -0.769  -0.236   0.323  0.00  0.00    +0.000 A 
ATOM     14  C   UNL     1       0.172   0.683   0.747  0.00  0.00    +0.000 A 
ATOM     15  C   UNL     1       1.519   0.393   0.639  0.00  0.00    +0.003 A 
ATOM     16  C   UNL     1       1.925  -0.817   0.107  0.00  0.00    -0.047 A 
ATOM     17  C   UNL     1       0.984  -1.736  -0.317  0.00  0.00    +0.003 A 
ATOM     18  C   UNL     1      -0.364  -1.446  -0.209  0.00  0.00    +0.000 A 
ENDBRANCH   1  16
BRANCH   4  19
ATOM     19  C   UNL     1       6.278   0.200   1.825  0.00  0.00    -0.019 A 
ATOM     20  C   UNL     1       5.610   1.157   2.564  0.00  0.00    +0.005 A 
ATOM     21  C   UNL     1       6.299   1.929   3.481  0.00  0.00    +0.000 A 
ATOM     22  C   UNL     1       7.658   1.746   3.660  0.00  0.00    +0.004 A 
ATOM     23  C   UNL     1       8.330   0.791   2.923  0.00  0.00    +0.045 A 
ATOM     24  C   UNL     1       7.640   0.011   2.007  0.00  0.00    +0.118 A 
BRANCH  24  25
ATOM     25  O   UNL     1       8.299  -0.934   1.285  0.00  0.00    -0.507 OA
ATOM     26  H   UNL     1       8.656  -0.610   0.447  0.00  0.00    +0.292 HD
ENDBRANCH  24  25
ENDBRANCH   4  19
BRANCH   8  27
ATOM     27  C   UNL     1       3.089  -1.983   4.476  0.00  0.00    +0.046 A 
ATOM     28  C   UNL     1       2.212  -0.959   4.808  0.00  0.00    +0.024 A 
ATOM     29  C   UNL     1       1.686  -0.888   6.083  0.00  0.00    +0.004 A 
ATOM     30  C   UNL     1       2.033  -1.836   7.029  0.00  0.00    +0.033 A 
ATOM     31  C   UNL     1       2.906  -2.857   6.702  0.00  0.00    +0.128 A 
ATOM     32  C   UNL     1       3.430  -2.937   5.426  0.00  0.00    +0.056 A 
BRANCH  31  33
ATOM     33  N   UNL     1       3.275  -3.869   7.717  0.00  0.00    +0.056 N 
ATOM     34  O   UNL     1       2.812  -3.803   8.832  0.00  0.00    -0.126 OA
ATOM     35  O   UNL     1       4.038  -4.762   7.431  0.00  0.00    -0.126 OA
ENDBRANCH  31  33
ENDBRANCH   8  27
BRANCH   1  36
ATOM     36  C   UNL     1       3.756  -1.406  -1.450  0.00  0.00    +0.350 C 
ATOM     37  O   UNL     1       4.575  -0.704  -2.017  0.00  0.00    -0.248 OA
ATOM     38  O   UNL     1       3.229  -2.330  -2.046  0.00  0.00    -0.248 OA
ENDBRANCH   1  36
TORSDOF 6
