REMARK  Name = ZINC67495702
REMARK  7 active torsions:
REMARK  status: ('A' for Active; 'I' for Inactive)
REMARK    1  A    between atoms: C_1  and  C_2
REMARK    2  A    between atoms: C_4  and  C_22
REMARK    3  A    between atoms: C_12  and  C_14
REMARK    4  A    between atoms: N_16  and  CA_17
REMARK    5  A    between atoms: CA_17  and  CB_19
REMARK    6  A    between atoms: CA_17  and  C_20
REMARK    7  A    between atoms: C_20  and  O_21
REMARK                            x       y       z     vdW  Elec       q    Type
REMARK                         _______ _______ _______ _____ _____    ______ ____
ROOT
ATOM      1  C   UNK A   0      -0.524   1.349  -0.057  0.00  0.00    +0.044 C 
ATOM      2  C   UNK A   0      -0.181  -0.118  -0.043  0.00  0.00    -0.048 A 
ATOM      3  C   UNK A   0       0.058  -0.786  -1.230  0.00  0.00    +0.007 A 
ATOM      4  C   UNK A   0       0.371  -2.131  -1.220  0.00  0.00    -0.045 A 
ATOM      5  C   UNK A   0       0.448  -2.821  -0.022  0.00  0.00    -0.023 A 
ATOM      6  C   UNK A   0       0.211  -2.153   1.169  0.00  0.00    +0.040 A 
ATOM      7  C   UNK A   0      -0.100  -0.797   1.157  0.00  0.00    +0.027 A 
ATOM      8  N   UNK A   0       0.291  -2.822   2.396  0.00  0.00    -0.263 N 
ATOM      9  C   UNK A   0       0.328  -4.291   2.402  0.00  0.00    +0.114 C 
ATOM     10  C   UNK A   0       1.313  -4.740   1.315  0.00  0.00    +0.024 C 
ATOM     11  C   UNK A   0       0.785  -4.289  -0.046  0.00  0.00    +0.039 C 
ATOM     12  C   UNK A   0       0.332  -2.131   3.552  0.00  0.00    +0.306 C 
ATOM     13  O   UNK A   0       0.441  -0.922   3.533  0.00  0.00    -0.265 OA
ATOM     14  C   UNK A   0       0.629  -2.851  -2.518  0.00  0.00    +0.044 C 
ENDROOT
BRANCH  12  15
ATOM     15  C   UNK A   0       0.244  -2.852   4.857  0.00  0.00    +0.300 C 
ATOM     16  O   UNK A   0       0.017  -4.044   4.878  0.00  0.00    -0.265 OA
ATOM     17  N   ALA A   1       0.418  -2.179   6.012  0.00  0.00    -0.303 N 
ATOM     18  H   ALA A   1       0.600  -1.227   5.996  0.00  0.00    +0.150 HD
BRANCH  17  19
ATOM     19  CA  ALA A   1       0.331  -2.887   7.292  0.00  0.00    +0.096 C 
ATOM     20  CB  ALA A   1       1.689  -3.511   7.622  0.00  0.00    +0.030 C 
BRANCH  19  21
ATOM     21  C   ALA A   1      -0.058  -1.900   8.395  0.00  0.00    +0.177 C 
BRANCH  21  22
ATOM     22  O   ALA A   1       0.985  -0.939   8.564  0.00  0.00    -0.393 OA
ATOM     23  H   ALA A   1       0.805  -0.280   9.249  0.00  0.00    +0.209 HD
ENDBRANCH  21  22
ENDBRANCH  19  21
ENDBRANCH  17  19
ENDBRANCH  12  15
TORSDOF 4
