REMARK  Name = ZINC37106602
REMARK  7 active torsions:
REMARK  status: ('A' for Active; 'I' for Inactive)
REMARK    1  A    between atoms: C_1  and  C_2
REMARK    2  A    between atoms: C_6  and  C_24
REMARK    3  A    between atoms: C_8  and  N_11
REMARK    4  A    between atoms: N_11  and  C_12
REMARK    5  A    between atoms: C_17  and  N_19
REMARK    6  A    between atoms: C_24  and  C_25
REMARK    7  A    between atoms: C_24  and  C_26
REMARK                            x       y       z     vdW  Elec       q    Type
REMARK                         _______ _______ _______ _____ _____    ______ ____
ROOT
ATOM      1  N   UNL     1      -0.615  -2.549   1.244  0.00  0.00    +0.384 N 
ATOM      2  H   UNL     1      -1.127  -2.150   0.471  0.00  0.00    -0.085 HD
ATOM      3  H   UNL     1      -0.604  -3.554   1.155  0.00  0.00    -0.085 HD
ENDROOT
BRANCH   1   9
ATOM      4  C   UNL     1      -0.019   1.526   0.010  0.00  0.00    +0.007 C 
ATOM      5  C   UNL     1       0.002  -0.004   0.002  0.00  0.00    -0.016 C 
ATOM      6  C   UNL     1       0.718  -0.497  -1.257  0.00  0.00    +0.003 C 
ATOM      7  C   UNL     1       0.739  -2.027  -1.265  0.00  0.00    +0.002 C 
ATOM      8  C   UNL     1       1.479  -2.534  -0.026  0.00  0.00    -0.022 C 
ATOM      9  C   UNL     1       0.763  -2.041   1.233  0.00  0.00    -0.068 C 
ATOM     10  C   UNL     1       0.742  -0.511   1.242  0.00  0.00    -0.012 C 
BRANCH   8  11
ATOM     11  C   UNL     1       1.500  -4.064  -0.034  0.00  0.00    -0.016 C 
ATOM     12  C   UNL     1       2.216  -4.557  -1.293  0.00  0.00    +0.007 C 
ATOM     13  C   UNL     1       2.240  -4.571   1.205  0.00  0.00    +0.007 C 
ENDBRANCH   8  11
ENDBRANCH   1   9
BRANCH   1  14
ATOM     14  C   UNL     1      -1.265  -2.176   2.507  0.00  0.00    -0.048 C 
ATOM     15  C   UNL     1      -0.602  -2.923   3.683  0.00  0.00    -0.014 C 
ATOM     16  C   UNL     1      -1.778  -3.253   4.635  0.00  0.00    +0.000 C 
ATOM     17  C   UNL     1      -2.924  -3.604   3.654  0.00  0.00    +0.023 C 
ATOM     18  C   UNL     1      -2.742  -2.608   2.488  0.00  0.00    +0.074 C 
BRANCH  18  19
ATOM     19  N   UNL     1      -3.057  -3.262   1.215  0.00  0.00    -0.335 N 
ATOM     20  C   UNL     1      -3.990  -2.853   0.301  0.00  0.00    +0.107 A 
ATOM     21  C   UNL     1      -3.951  -3.735  -0.716  0.00  0.00    +0.130 A 
ATOM     22  N   UNL     1      -3.021  -4.658  -0.430  0.00  0.00    -0.244 NA
ATOM     23  C   UNL     1      -2.478  -4.378   0.723  0.00  0.00    +0.199 A 
ENDBRANCH  18  19
ENDBRANCH   1  14
TORSDOF 4
