REMARK  Name = ZINC15986288
REMARK  5 active torsions:
REMARK  status: ('A' for Active; 'I' for Inactive)
REMARK    1  A    between atoms: C_1  and  C_2
REMARK    2  A    between atoms: C_5  and  N_9
REMARK    3  A    between atoms: C_6  and  C_8
REMARK    4  A    between atoms: C_17  and  C_26
REMARK    5  A    between atoms: C_20  and  C_25
REMARK                            x       y       z     vdW  Elec       q    Type
REMARK                         _______ _______ _______ _____ _____    ______ ____
ROOT
ATOM      1  N   UNL     1       0.185  -4.181  -0.037  0.00  0.00    -0.295 N 
ATOM      2  C   UNL     1       0.074  -4.781  -1.264  0.00  0.00    +0.150 C 
ATOM      3  N   UNL     1      -0.176  -6.075  -1.346  0.00  0.00    -0.308 N 
ATOM      4  C   UNL     1      -0.200  -6.829  -0.230  0.00  0.00    +0.203 C 
ATOM      5  N   UNL     1      -0.099  -6.261   0.947  0.00  0.00    -0.268 NA
ATOM      6  N   UNL     1      -0.331  -8.203  -0.325  0.00  0.00    -0.295 N 
ATOM      7  C   UNL     1      -0.279  -8.819  -1.566  0.00  0.00    +0.231 A 
ATOM      8  N   UNL     1      -0.549 -10.121  -1.644  0.00  0.00    -0.217 NA
ATOM      9  C   UNL     1      -0.517 -10.763  -2.793  0.00  0.00    +0.051 A 
ATOM     10  C   UNL     1      -0.188 -10.042  -3.956  0.00  0.00    +0.022 A 
ATOM     11  C   UNL     1      -0.133 -10.651  -5.218  0.00  0.00    +0.015 A 
ATOM     12  C   UNL     1       0.191  -9.903  -6.310  0.00  0.00    -0.050 A 
ATOM     13  C   UNL     1       0.468  -8.543  -6.191  0.00  0.00    +0.005 A 
ATOM     14  C   UNL     1       0.423  -7.920  -4.980  0.00  0.00    +0.029 A 
ATOM     15  C   UNL     1       0.093  -8.657  -3.833  0.00  0.00    +0.077 A 
ATOM     16  N   UNL     1       0.029  -8.092  -2.621  0.00  0.00    -0.212 NA
ATOM     17  C   UNL     1       0.251 -10.557  -7.667  0.00  0.00    +0.044 C 
ATOM     18  C   UNL     1      -0.825 -12.237  -2.861  0.00  0.00    +0.066 C 
ATOM     19  S   UNL     1       0.263  -3.825  -2.732  0.00  0.00    -0.016 SA
ATOM     20  H   UNL     1      -0.042  -6.808   1.746  0.00  0.00    +0.190 HD
ATOM     21  H   UNL     1      -0.459  -8.735   0.476  0.00  0.00    +0.172 HD
ATOM     22  H   UNL     1      -0.417  -4.431   0.681  0.00  0.00    +0.154 HD
ATOM     23  H   UNL     1      -0.342  -6.483  -2.210  0.00  0.00    +0.170 HD
ENDROOT
BRANCH   1  28
ATOM     24  C   UNL     1       4.167  -0.238   0.842  0.00  0.00    +0.044 C 
ATOM     25  C   UNL     1       3.109  -1.286   0.609  0.00  0.00    -0.050 A 
ATOM     26  C   UNL     1       3.104  -2.010  -0.570  0.00  0.00    +0.005 A 
ATOM     27  C   UNL     1       2.136  -2.971  -0.786  0.00  0.00    +0.024 A 
ATOM     28  C   UNL     1       1.167  -3.209   0.180  0.00  0.00    +0.036 A 
ATOM     29  C   UNL     1       1.175  -2.480   1.361  0.00  0.00    -0.029 A 
ATOM     30  C   UNL     1       2.149  -1.524   1.575  0.00  0.00    +0.008 A 
ATOM     31  C   UNL     1       0.125  -2.735   2.413  0.00  0.00    +0.045 C 
ENDBRANCH   1  28
TORSDOF 1
