REMARK  Name = ZINC64230949
REMARK  6 active torsions:
REMARK  status: ('A' for Active; 'I' for Inactive)
REMARK    1  A    between atoms: C_1  and  C_2
REMARK    2  A    between atoms: C_2  and  C_3
REMARK    3  A    between atoms: C_8  and  C_12
REMARK    4  A    between atoms: N_13  and  N_14
REMARK    5  A    between atoms: C_15  and  C_21
REMARK    6  A    between atoms: C_21  and  C_22
REMARK                            x       y       z     vdW  Elec       q    Type
REMARK                         _______ _______ _______ _____ _____    ______ ____
ROOT
ATOM      1  C   UNL     1       0.753  -0.035  -1.445  0.00  0.00    -0.024 A 
ATOM      2  C   UNL     1       0.090  -0.129  -2.623  0.00  0.00    +0.005 A 
ATOM      3  C   UNL     1       0.736  -0.504  -3.804  0.00  0.00    +0.001 A 
ATOM      4  C   UNL     1       2.062  -0.792  -3.830  0.00  0.00    +0.010 A 
ATOM      5  C   UNL     1       2.818  -0.715  -2.641  0.00  0.00    +0.005 A 
ATOM      6  C   UNL     1       4.165  -0.947  -2.364  0.00  0.00    +0.000 C 
ATOM      7  C   UNL     1       4.327  -0.685  -0.883  0.00  0.00    +0.150 C 
ATOM      8  N   UNL     1       2.999  -0.302  -0.392  0.00  0.00    -0.380 N 
ATOM      9  C   UNL     1       2.144  -0.315  -1.394  0.00  0.00    +0.046 A 
ATOM     10  H   UNL     1       2.785  -0.073   0.526  0.00  0.00    +0.160 HD
ENDROOT
BRANCH   1  12
ATOM     11  C   UNL     1       0.165   1.882   0.014  0.00  0.00    +0.009 C 
ATOM     12  C   UNL     1       0.018   0.373  -0.195  0.00  0.00    +0.034 C 
ENDBRANCH   1  12
BRANCH   6  13
ATOM     13  C   UNL     1       5.159  -1.341  -3.268  0.00  0.00    +0.136 C 
ATOM     14  N   UNL     1       6.389  -1.521  -2.852  0.00  0.00    -0.184 NA
BRANCH  14  15
ATOM     15  N   UNL     1       7.360  -2.017  -3.731  0.00  0.00    -0.185 N 
ATOM     16  C   UNL     1       7.139  -2.483  -5.110  0.00  0.00    +0.183 C 
ATOM     17  N   UNL     1       8.479  -2.893  -5.574  0.00  0.00    -0.219 NA
ATOM     18  N   UNL     1       9.330  -2.663  -4.531  0.00  0.00    -0.259 N 
ATOM     19  C   UNL     1       8.675  -2.154  -3.479  0.00  0.00    +0.168 C 
ATOM     20  S   UNL     1       9.418  -1.735  -1.995  0.00  0.00    -0.016 S 
ATOM     21  H   UNL     1       8.488  -3.867  -5.840  0.00  0.00    +0.146 HD
ATOM     22  H   UNL     1      10.283  -2.841  -4.550  0.00  0.00    +0.168 HD
BRANCH  16  23
ATOM     23  C   UNL     1       6.177  -3.673  -5.125  0.00  0.00    +0.038 C 
ATOM     24  C   UNL     1       5.964  -4.138  -6.567  0.00  0.00    +0.007 C 
ENDBRANCH  16  23
ENDBRANCH  14  15
ENDBRANCH   6  13
TORSDOF 4
