REMARK  Name = ZINC09041337
REMARK  7 active torsions:
REMARK  status: ('A' for Active; 'I' for Inactive)
REMARK    1  A    between atoms: C_1  and  C_2
REMARK    2  A    between atoms: C_2  and  N_49
REMARK    3  A    between atoms: C_15  and  C_17
REMARK    4  A    between atoms: C_18  and  O_28
REMARK    5  A    between atoms: C_20  and  O_27
REMARK    6  A    between atoms: N_21  and  C_24
REMARK    7  A    between atoms: C_24  and  C_25
REMARK                            x       y       z     vdW  Elec       q    Type
REMARK                         _______ _______ _______ _____ _____    ______ ____
ROOT
ATOM      1  C   UNL     1       1.615  -4.529   0.432  0.00  0.00    -0.073 C 
ATOM      2  C   UNL     1       0.706  -3.345   0.069  0.00  0.00    +0.019 C 
ATOM      3  C   UNL     1       1.566  -2.111  -0.016  0.00  0.00    -0.022 A 
ATOM      4  C   UNL     1       1.157  -0.712  -0.021  0.00  0.00    +0.003 A 
ATOM      5  C   UNL     1      -0.073  -0.052   0.043  0.00  0.00    +0.010 A 
ATOM      6  C   UNL     1      -0.115   1.312   0.017  0.00  0.00    +0.001 A 
ATOM      7  C   UNL     1       1.057   2.053  -0.072  0.00  0.00    +0.002 A 
ATOM      8  C   UNL     1       2.281   1.424  -0.136  0.00  0.00    +0.026 A 
ATOM      9  C   UNL     1       2.348   0.035  -0.112  0.00  0.00    +0.047 A 
ATOM     10  N   UNL     1       3.393  -0.863  -0.159  0.00  0.00    -0.359 N 
ATOM     11  H   UNL     1       4.330  -0.624  -0.224  0.00  0.00    +0.166 HD
ATOM     12  C   UNL     1       2.912  -2.139  -0.102  0.00  0.00    +0.011 A 
ATOM     13  C   UNL     1       3.707  -3.424  -0.127  0.00  0.00    +0.021 C 
ATOM     14  N   UNL     1       2.782  -4.528  -0.479  0.00  0.00    +0.388 N 
ATOM     15  H   UNL     1       2.451  -4.390  -1.442  0.00  0.00    -0.080 HD
ENDROOT
BRANCH  13  16
ATOM     16  C   UNL     1       4.783  -3.334  -1.179  0.00  0.00    +0.071 A 
ATOM     17  C   UNL     1       6.120  -3.344  -0.823  0.00  0.00    +0.224 A 
ATOM     18  N   UNL     1       7.060  -3.269  -1.771  0.00  0.00    -0.161 NA
ATOM     19  C   UNL     1       6.740  -3.174  -3.042  0.00  0.00    +0.302 A 
ATOM     20  N   UNL     1       5.443  -3.154  -3.445  0.00  0.00    -0.259 N 
ATOM     21  C   UNL     1       4.449  -3.232  -2.535  0.00  0.00    +0.262 A 
ATOM     22  O   UNL     1       3.281  -3.214  -2.888  0.00  0.00    -0.267 OA
BRANCH  19  23
ATOM     23  O   UNL     1       7.720  -3.094  -3.965  0.00  0.00    -0.479 OA
ATOM     24  H   UNL     1       8.631  -3.112  -3.641  0.00  0.00    +0.295 HD
ENDBRANCH  19  23
BRANCH  17  25
ATOM     25  O   UNL     1       6.475  -3.436   0.480  0.00  0.00    -0.492 OA
ATOM     26  H   UNL     1       7.431  -3.436   0.628  0.00  0.00    +0.294 HD
ENDBRANCH  17  25
BRANCH  20  27
ATOM     27  C   UNL     1       5.122  -3.046  -4.871  0.00  0.00    +0.156 C 
BRANCH  27  28
ATOM     28  C   UNL     1       5.001  -1.593  -5.250  0.00  0.00    -0.013 C 
ATOM     29  C   UNL     1       5.722  -1.109  -6.231  0.00  0.00    +0.005 C 
ENDBRANCH  27  28
ENDBRANCH  20  27
ENDBRANCH  13  16
BRANCH  14  31
ATOM     30  C   UNL     1       3.857  -6.143   1.055  0.00  0.00    -0.017 C 
ATOM     31  C   UNL     1       3.487  -5.822  -0.395  0.00  0.00    -0.081 C 
ENDBRANCH  14  31
TORSDOF 6
