REMARK  Name = ZINC39955635
REMARK  2 active torsions:
REMARK  status: ('A' for Active; 'I' for Inactive)
REMARK    1  A    between atoms: C_6  and  N_10
REMARK    2  A    between atoms: N_10  and  N_11
REMARK                            x       y       z     vdW  Elec       q    Type
REMARK                         _______ _______ _______ _____ _____    ______ ____
ROOT
ATOM      1  N   UNL     1       3.678  -4.095  -1.019  0.00  0.00    -0.205 N 
ATOM      2  C   UNL     1       2.556  -4.902  -0.915  0.00  0.00    +0.095 C 
ATOM      3  C   UNL     1       2.634  -6.211  -0.877  0.00  0.00    +0.021 C 
ATOM      4  C   UNL     1       3.939  -6.937  -0.951  0.00  0.00    +0.171 C 
ATOM      5  C   UNL     1       5.093  -5.994  -0.704  0.00  0.00    +0.058 C 
ATOM      6  H   UNL     1       7.235  -8.301  -0.093  0.00  0.00    +0.154 HD
ATOM      7  C   UNL     1       4.917  -4.606  -0.901  0.00  0.00    +0.264 C 
ATOM      8  O   UNL     1       5.886  -3.872  -0.959  0.00  0.00    -0.269 OA
ATOM      9  C   UNL     1       6.276  -6.469  -0.251  0.00  0.00    +0.086 C 
ATOM     10  N   UNL     1       6.400  -7.821   0.026  0.00  0.00    -0.290 N 
ATOM     11  C   UNL     1       5.241  -8.440   0.486  0.00  0.00    +0.218 A 
ATOM     12  N   UNL     1       4.032  -8.002   0.041  0.00  0.00    -0.221 N 
ATOM     13  N   UNL     1       3.081  -8.769   0.694  0.00  0.00    -0.156 NA
ATOM     14  C   UNL     1       3.735  -9.599   1.474  0.00  0.00    +0.247 A 
ATOM     15  N   UNL     1       5.034  -9.410   1.321  0.00  0.00    -0.201 NA
ENDROOT
BRANCH   1  16
ATOM     16  N   UNL     1       3.523  -2.758  -1.251  0.00  0.00    -0.194 NA
ATOM     17  H   UNL     1       2.888  -2.595  -2.019  0.00  0.00    +0.149 HD
BRANCH  16  23
ATOM     18  C   UNL     1      -0.016   1.344   0.009  0.00  0.00    +0.002 A 
ATOM     19  C   UNL     1       1.158   2.118   0.002  0.00  0.00    +0.002 A 
ATOM     20  C   UNL     1       2.389   1.570  -0.013  0.00  0.00    +0.027 A 
ATOM     21  C   UNL     1       2.533   0.108  -0.022  0.00  0.00    +0.061 A 
ATOM     22  N   UNL     1       3.569  -0.680  -0.036  0.00  0.00    -0.350 N 
ATOM     23  C   UNL     1       3.071  -2.062  -0.039  0.00  0.00    +0.266 C 
ATOM     24  N   UNL     1       1.606  -1.974  -0.024  0.00  0.00    -0.350 N 
ATOM     25  C   UNL     1       1.290  -0.712  -0.014  0.00  0.00    +0.061 A 
ATOM     26  C   UNL     1       0.002  -0.004   0.002  0.00  0.00    +0.027 A 
ATOM     27  H   UNL     1       4.499  -0.405  -0.045  0.00  0.00    +0.163 HD
ATOM     28  H   UNL     1       0.987  -2.721  -0.022  0.00  0.00    +0.163 HD
ENDBRANCH  16  23
ENDBRANCH   1  16
TORSDOF 2
