REMARK  Name = ZINC43491669
REMARK  9 active torsions:
REMARK  status: ('A' for Active; 'I' for Inactive)
REMARK    1  A    between atoms: C_1  and  C_2
REMARK    2  A    between atoms: C_2  and  C_4
REMARK    3  A    between atoms: C_2  and  N_22
REMARK    4  A    between atoms: C_4  and  C_5
REMARK    5  A    between atoms: C_8  and  O_12
REMARK    6  A    between atoms: O_12  and  C_13
REMARK    7  A    between atoms: C_13  and  C_14
REMARK    8  A    between atoms: N_16  and  C_17
REMARK    9  A    between atoms: C_17  and  C_18
REMARK                            x       y       z     vdW  Elec       q    Type
REMARK                         _______ _______ _______ _____ _____    ______ ____
ROOT
ATOM      1  C   UNL     1       0.657  -2.014   1.298  0.00  0.00    -0.047 A 
ATOM      2  C   UNL     1      -0.397  -2.622   1.956  0.00  0.00    +0.007 A 
ATOM      3  C   UNL     1      -0.478  -4.000   2.010  0.00  0.00    +0.047 A 
ATOM      4  C   UNL     1       0.499  -4.775   1.402  0.00  0.00    +0.139 A 
ATOM      5  C   UNL     1       1.556  -4.164   0.742  0.00  0.00    +0.083 A 
ATOM      6  C   UNL     1       1.629  -2.784   0.686  0.00  0.00    +0.027 A 
ATOM      7 CL   UNL     1       2.780  -5.130  -0.020  0.00  0.00    -0.080 Cl
ENDROOT
BRANCH   1   8
ATOM      8  C   UNL     1       0.742  -0.511   1.242  0.00  0.00    +0.019 C 
BRANCH   8  10
ATOM      9  C   UNL     1      -0.019   1.526   0.010  0.00  0.00    -0.014 C 
ATOM     10  C   UNL     1       0.002  -0.004   0.002  0.00  0.00    -0.074 C 
BRANCH  10  11
ATOM     11  N   UNL     1       0.690  -0.478  -1.207  0.00  0.00    +0.380 N 
ATOM     12  H   UNL     1       1.636  -0.129  -1.214  0.00  0.00    -0.090 HD
ATOM     13  H   UNL     1       0.703  -1.487  -1.212  0.00  0.00    -0.090 HD
ATOM     14  H   UNL     1       0.202  -0.144  -2.024  0.00  0.00    -0.090 HD
ENDBRANCH  10  11
ENDBRANCH   8  10
ENDBRANCH   1   8
BRANCH   4  15
ATOM     15  O   UNL     1       0.422  -6.131   1.454  0.00  0.00    -0.481 OA
BRANCH  15  16
ATOM     16  C   UNL     1      -0.693  -6.691   2.151  0.00  0.00    +0.324 C 
BRANCH  16  17
ATOM     17  C   UNL     1      -0.611  -8.195   2.104  0.00  0.00    +0.251 C 
ATOM     18  O   UNL     1       0.312  -8.734   1.530  0.00  0.00    -0.272 OA
ATOM     19  N   UNL     1      -1.562  -8.941   2.700  0.00  0.00    -0.304 N 
ATOM     20  H   UNL     1      -2.300  -8.510   3.159  0.00  0.00    +0.149 HD
BRANCH  19  21
ATOM     21  C   UNL     1      -1.482 -10.403   2.654  0.00  0.00    +0.217 C 
BRANCH  21  22
ATOM     22  C   UNL     1      -2.675 -11.003   3.400  0.00  0.00    +0.405 C 
ATOM     23  F   UNL     1      -3.864 -10.582   2.794  0.00  0.00    -0.169 F 
ATOM     24  F   UNL     1      -2.599 -12.399   3.356  0.00  0.00    -0.169 F 
ATOM     25  F   UNL     1      -2.655 -10.576   4.732  0.00  0.00    -0.169 F 
ENDBRANCH  21  22
ENDBRANCH  19  21
ENDBRANCH  16  17
ENDBRANCH  15  16
ENDBRANCH   4  15
TORSDOF 8
