REMARK  Name = ZINC36296762
REMARK  7 active torsions:
REMARK  status: ('A' for Active; 'I' for Inactive)
REMARK    1  A    between atoms: C_1  and  O_2
REMARK    2  A    between atoms: O_2  and  C_3
REMARK    3  A    between atoms: C_8  and  C_9
REMARK    4  A    between atoms: C_14  and  C_22
REMARK    5  A    between atoms: C_15  and  C_17
REMARK    6  A    between atoms: C_22  and  C_23
REMARK    7  A    between atoms: C_23  and  N_24
REMARK                            x       y       z     vdW  Elec       q    Type
REMARK                         _______ _______ _______ _____ _____    ______ ____
ROOT
ATOM      1  C   UNL     1      -0.011  -2.831  -0.013  0.00  0.00    +0.066 A 
ATOM      2  C   UNL     1       0.709  -2.926  -1.147  0.00  0.00    +0.075 A 
ATOM      3  S   UNL     1       2.070  -3.964  -0.636  0.00  0.00    -0.057 S 
ATOM      4  C   UNL     1       1.575  -4.194   1.056  0.00  0.00    +0.179 A 
ATOM      5  N   UNL     1       0.414  -3.469   1.139  0.00  0.00    -0.289 N 
ATOM      6  C   UNL     1      -0.010  -3.615   2.455  0.00  0.00    +0.053 A 
ATOM      7  C   UNL     1       0.897  -4.399   3.093  0.00  0.00    +0.128 A 
ATOM      8  N   UNL     1       1.852  -4.743   2.203  0.00  0.00    -0.218 NA
ENDROOT
BRANCH   1  14
ATOM      9  C   UNL     1      -1.200  -0.637   0.010  0.00  0.00    +0.129 A 
ATOM     10  C   UNL     1      -2.373   0.098   0.019  0.00  0.00    +0.046 A 
ATOM     11  C   UNL     1      -3.596  -0.547   0.028  0.00  0.00    +0.004 A 
ATOM     12  C   UNL     1      -3.657  -1.929   0.026  0.00  0.00    +0.001 A 
ATOM     13  C   UNL     1      -2.497  -2.676   0.017  0.00  0.00    +0.013 A 
ATOM     14  C   UNL     1      -1.258  -2.036   0.003  0.00  0.00    +0.041 A 
BRANCH   9  16
ATOM     15  C   UNL     1      -0.017   1.425   0.010  0.00  0.00    +0.277 C 
ATOM     16  O   UNL     1       0.002  -0.004   0.002  0.00  0.00    -0.494 OA
ENDBRANCH   9  16
ENDBRANCH   1  14
BRANCH   7  17
ATOM     17  C   UNL     1       0.842  -4.813   4.511  0.00  0.00    +0.155 A 
ATOM     18  C   UNL     1       1.256  -6.008   5.010  0.00  0.00    +0.051 A 
ATOM     19  C   UNL     1       1.020  -5.972   6.399  0.00  0.00    +0.042 A 
ATOM     20  C   UNL     1       0.479  -4.771   6.677  0.00  0.00    +0.196 A 
ATOM     21  O   UNL     1       0.378  -4.070   5.534  0.00  0.00    -0.461 OA
ENDBRANCH   7  17
BRANCH   6  22
ATOM     22  C   UNL     1      -1.250  -3.013   3.063  0.00  0.00    +0.036 C 
BRANCH  22  23
ATOM     23  C   UNL     1      -2.422  -3.981   2.897  0.00  0.00    -0.080 C 
BRANCH  23  24
ATOM     24  N   UNL     1      -3.631  -3.393   3.489  0.00  0.00    +0.378 N 
ATOM     25  H   UNL     1      -3.474  -3.221   4.471  0.00  0.00    -0.090 HD
ATOM     26  H   UNL     1      -3.845  -2.523   3.025  0.00  0.00    -0.090 HD
ATOM     27  H   UNL     1      -4.404  -4.032   3.379  0.00  0.00    -0.090 HD
ENDBRANCH  23  24
ENDBRANCH  22  23
ENDBRANCH   6  22
TORSDOF 6
