REMARK  Name = ZINC23467826
REMARK  4 active torsions:
REMARK  status: ('A' for Active; 'I' for Inactive)
REMARK    1  A    between atoms: C_1  and  C_2
REMARK    2  A    between atoms: C_2  and  N_3
REMARK    3  A    between atoms: N_6  and  C_9
REMARK    4  A    between atoms: C_9  and  C_10
REMARK                            x       y       z     vdW  Elec       q    Type
REMARK                         _______ _______ _______ _____ _____    ______ ____
ROOT
ATOM      1  C   UNL     1      -1.263   5.086  -2.464  0.00  0.00    +0.125 A 
ATOM      2  N   UNL     1      -1.774   5.784  -3.511  0.00  0.00    -0.309 N 
ATOM      3  H   UNL     1      -2.311   5.257  -4.314  0.00  0.00    +0.170 HD
ATOM      4  C   UNL     1      -1.638   7.121  -3.594  0.00  0.00    +0.260 A 
ATOM      5  O   UNL     1      -2.106   7.735  -4.538  0.00  0.00    -0.267 OA
ATOM      6  C   UNL     1      -0.929   7.808  -2.556  0.00  0.00    +0.075 A 
ATOM      7  C   UNL     1      -0.657   9.249  -2.444  0.00  0.00    -0.023 A 
ATOM      8  C   UNL     1       0.032   9.654  -1.364  0.00  0.00    -0.004 A 
ATOM      9  S   UNL     1       0.361   8.168  -0.444  0.00  0.00    -0.073 S 
ATOM     10  C   UNL     1      -0.435   7.005  -1.520  0.00  0.00    +0.116 A 
ATOM     11  N   UNL     1      -0.613   5.686  -1.503  0.00  0.00    -0.225 NA
ATOM     12  C   UNL     1       0.246  11.144  -1.353  0.00  0.00    +0.043 C 
ATOM     13  C   UNL     1      -0.783  11.691  -2.367  0.00  0.00    +0.010 C 
ATOM     14  C   UNL     1      -0.981  10.478  -3.297  0.00  0.00    +0.037 C 
ENDROOT
BRANCH   1  15
ATOM     15  C   UNL     1      -1.445   3.591  -2.413  0.00  0.00    +0.158 C 
BRANCH  15  19
ATOM     16  N   UNL     1      -0.701   1.560   1.216  0.00  0.00    +0.381 N 
ATOM     17  C   UNL     1      -0.013   1.086   0.008  0.00  0.00    -0.063 C 
ATOM     18  C   UNL     1      -0.754   1.593  -1.231  0.00  0.00    +0.066 C 
ATOM     19  N   UNL     1      -0.806   3.062  -1.200  0.00  0.00    -0.299 NA
ATOM     20  C   UNL     1      -1.495   3.536   0.008  0.00  0.00    +0.066 C 
ATOM     21  C   UNL     1      -0.754   3.029   1.247  0.00  0.00    -0.063 C 
ATOM     22  H   UNL     1      -1.735   1.184   1.189  0.00  0.00    -0.082 HD
BRANCH  16  24
ATOM     23  C   UNL     1      -0.640   1.734   3.658  0.00  0.00    -0.017 C 
ATOM     24  C   UNL     1      -0.062   1.031   2.429  0.00  0.00    -0.082 C 
ENDBRANCH  16  24
ENDBRANCH  15  19
ENDBRANCH   1  15
TORSDOF 3
