REMARK  Name = ZINC64788517
REMARK  3 active torsions:
REMARK  status: ('A' for Active; 'I' for Inactive)
REMARK    1  A    between atoms: C_4  and  C_7
REMARK    2  A    between atoms: C_7  and  N_8
REMARK    3  A    between atoms: C_20  and  C_23
REMARK                            x       y       z     vdW  Elec       q    Type
REMARK                         _______ _______ _______ _____ _____    ______ ____
ROOT
ATOM      1  N   UNL     1       4.152  -0.952   1.338  0.00  0.00    -0.216 N 
ATOM      2  C   UNL     1       4.921  -0.034   1.961  0.00  0.00    +0.261 C 
ATOM      3  O   UNL     1       5.253   0.993   1.399  0.00  0.00    -0.269 OA
ATOM      4  C   UNL     1       5.344  -0.316   3.343  0.00  0.00    +0.119 C 
ATOM      5  C   UNL     1       4.888  -1.589   3.936  0.00  0.00    +0.278 C 
ATOM      6  N   UNL     1       4.125  -2.404   3.189  0.00  0.00    -0.123 NA
ATOM      7  C   UNL     1       3.775  -2.097   1.965  0.00  0.00    +0.336 C 
ATOM      8  O   UNL     1       3.002  -2.968   1.287  0.00  0.00    -0.250 OA
ATOM      9  O   UNL     1       5.197  -1.894   5.075  0.00  0.00    -0.268 OA
ATOM     10  C   UNL     1       6.133   0.571   4.053  0.00  0.00    +0.038 C 
ATOM     11  N   UNL     1       6.593   1.754   3.606  0.00  0.00    -0.283 N 
ATOM     12  N   UNL     1       7.319   2.430   4.541  0.00  0.00    -0.235 NA
ATOM     13  C   UNL     1       7.739   1.459   5.578  0.00  0.00    +0.108 C 
ATOM     14  C   UNL     1       6.627   0.386   5.476  0.00  0.00    +0.077 C 
ATOM     15  H   UNL     1       8.119   2.881   4.122  0.00  0.00    +0.145 HD
ATOM     16  H   UNL     1       6.427   2.091   2.711  0.00  0.00    +0.166 HD
ENDROOT
BRANCH  13  17
ATOM     17  C   UNL     1       7.744   2.098   6.943  0.00  0.00    -0.029 A 
ATOM     18  C   UNL     1       6.749   2.991   7.292  0.00  0.00    +0.006 A 
ATOM     19  C   UNL     1       6.753   3.577   8.544  0.00  0.00    +0.015 A 
ATOM     20  C   UNL     1       7.753   3.268   9.448  0.00  0.00    +0.018 A 
ATOM     21  C   UNL     1       8.748   2.374   9.099  0.00  0.00    +0.015 A 
ATOM     22  C   UNL     1       8.741   1.785   7.849  0.00  0.00    +0.006 A 
ATOM     23 BR   UNL     1       7.759   4.069  11.161  0.00  0.00    -0.050 Br
ENDBRANCH  13  17
BRANCH   1  24
ATOM     24  C   UNL     1       3.711  -0.707  -0.038  0.00  0.00    +0.153 C 
BRANCH  24  28
ATOM     25  C   UNL     1      -0.017   1.378   0.010  0.00  0.00    +0.000 A 
ATOM     26  C   UNL     1       1.171   2.086   0.002  0.00  0.00    +0.000 A 
ATOM     27  C   UNL     1       2.377   1.411  -0.013  0.00  0.00    +0.005 A 
ATOM     28  C   UNL     1       2.396   0.029  -0.020  0.00  0.00    -0.030 A 
ATOM     29  C   UNL     1       1.208  -0.679  -0.012  0.00  0.00    +0.005 A 
ATOM     30  C   UNL     1       0.002  -0.004   0.002  0.00  0.00    +0.000 A 
ENDBRANCH  24  28
ENDBRANCH   1  24
TORSDOF 3
