REMARK  Name = ZINC49515015
REMARK  7 active torsions:
REMARK  status: ('A' for Active; 'I' for Inactive)
REMARK    1  A    between atoms: C_1  and  C_2
REMARK    2  A    between atoms: C_2  and  C_4
REMARK    3  A    between atoms: C_2  and  N_11
REMARK    4  A    between atoms: N_11  and  C_12
REMARK    5  A    between atoms: C_12  and  C_13
REMARK    6  A    between atoms: N_15  and  C_22
REMARK    7  A    between atoms: N_18  and  C_21
REMARK                            x       y       z     vdW  Elec       q    Type
REMARK                         _______ _______ _______ _____ _____    ______ ____
ROOT
ATOM      1  N   UNL     1       0.690  -0.478  -1.207  0.00  0.00    +0.386 N 
ATOM      2  H   UNL     1       0.632  -1.484  -1.254  0.00  0.00    -0.085 HD
ATOM      3  H   UNL     1       0.251  -0.077  -2.022  0.00  0.00    -0.085 HD
ENDROOT
BRANCH   1   5
ATOM      4  C   UNL     1      -0.019   1.526   0.010  0.00  0.00    -0.009 C 
ATOM      5  C   UNL     1       0.002  -0.004   0.002  0.00  0.00    -0.044 C 
BRANCH   5   6
ATOM      6  C   UNL     1      -1.412  -0.526   0.013  0.00  0.00    -0.062 A 
ATOM      7  C   UNL     1      -2.141  -0.569  -1.161  0.00  0.00    +0.003 A 
ATOM      8  C   UNL     1      -3.438  -1.048  -1.151  0.00  0.00    +0.015 A 
ATOM      9  C   UNL     1      -4.005  -1.484   0.032  0.00  0.00    +0.018 A 
ATOM     10  C   UNL     1      -3.275  -1.440   1.206  0.00  0.00    +0.015 A 
ATOM     11  C   UNL     1      -1.977  -0.966   1.195  0.00  0.00    +0.003 A 
ATOM     12 BR   UNL     1      -5.779  -2.138   0.046  0.00  0.00    -0.050 Br
ENDBRANCH   5   6
ENDBRANCH   1   5
BRANCH   1  13
ATOM     13  C   UNL     1       2.100  -0.070  -1.159  0.00  0.00    -0.039 C 
BRANCH  13  14
ATOM     14  C   UNL     1       2.806  -0.556  -2.399  0.00  0.00    +0.016 A 
ATOM     15  C   UNL     1       2.949   0.257  -3.467  0.00  0.00    +0.097 A 
ATOM     16  N   UNL     1       3.592  -0.201  -4.585  0.00  0.00    -0.303 N 
ATOM     17  C   UNL     1       4.082  -1.453  -4.630  0.00  0.00    +0.331 A 
ATOM     18  O   UNL     1       4.650  -1.839  -5.633  0.00  0.00    -0.246 OA
ATOM     19  N   UNL     1       3.954  -2.284  -3.579  0.00  0.00    -0.264 N 
ATOM     20  C   UNL     1       3.332  -1.869  -2.457  0.00  0.00    +0.258 A 
ATOM     21  O   UNL     1       3.219  -2.619  -1.504  0.00  0.00    -0.267 OA
ATOM     22  C   UNL     1       4.496  -3.643  -3.653  0.00  0.00    +0.157 C 
ATOM     23  C   UNL     1       3.748   0.681  -5.745  0.00  0.00    +0.153 C 
ENDBRANCH  13  14
ENDBRANCH   1  13
TORSDOF 4
