REMARK  Name = ZINC39550222
REMARK  6 active torsions:
REMARK  status: ('A' for Active; 'I' for Inactive)
REMARK    1  A    between atoms: C_2  and  C_3
REMARK    2  A    between atoms: C_3  and  N_4
REMARK    3  A    between atoms: C_11  and  O_33
REMARK    4  A    between atoms: C_13  and  C_17
REMARK    5  A    between atoms: N_19  and  C_20
REMARK    6  A    between atoms: C_22  and  O_32
REMARK                            x       y       z     vdW  Elec       q    Type
REMARK                         _______ _______ _______ _____ _____    ______ ____
ROOT
ATOM      1  C   UNL     1      -0.296  -3.732   2.933  0.00  0.00    +0.229 C 
ATOM      2  O   UNL     1      -0.204  -3.435   4.105  0.00  0.00    -0.275 OA
ATOM      3  N   UNL     1      -1.512  -3.902   2.375  0.00  0.00    -0.297 N 
ATOM      4  H   UNL     1      -1.586  -4.139   1.437  0.00  0.00    +0.150 HD
ENDROOT
BRANCH   3   5
ATOM      5  C   UNL     1      -2.720  -3.728   3.184  0.00  0.00    +0.226 C 
ATOM      6  C   UNL     1      -3.801  -4.619   2.603  0.00  0.00    +0.132 C 
ATOM      7  C   UNL     1      -4.983  -3.997   2.193  0.00  0.00    +0.036 A 
ATOM      8  C   UNL     1      -6.040  -4.751   1.642  0.00  0.00    +0.013 A 
ATOM      9  C   UNL     1      -7.181  -4.120   1.251  0.00  0.00    +0.001 A 
ATOM     10  C   UNL     1      -7.328  -2.743   1.383  0.00  0.00    +0.002 A 
ATOM     11  C   UNL     1      -6.342  -1.963   1.909  0.00  0.00    +0.024 A 
ATOM     12  C   UNL     1      -5.136  -2.546   2.333  0.00  0.00    +0.044 A 
ATOM     13  N   UNL     1      -4.169  -1.777   2.849  0.00  0.00    -0.283 N 
ATOM     14  C   UNL     1      -3.013  -2.248   3.269  0.00  0.00    +0.245 C 
ATOM     15  O   UNL     1      -2.179  -1.488   3.728  0.00  0.00    -0.273 OA
ATOM     16  H   UNL     1      -4.328  -0.823   2.917  0.00  0.00    +0.155 HD
BRANCH   6  17
ATOM     17  O   UNL     1      -3.631  -5.940   2.487  0.00  0.00    -0.508 OA
ATOM     18  H   UNL     1      -4.389  -6.402   2.103  0.00  0.00    +0.292 HD
ENDBRANCH   6  17
ENDBRANCH   3   5
BRANCH   1  27
ATOM     19  N   UNL     1       1.367  -1.676   1.111  0.00  0.00    -0.267 N 
ATOM     20  C   UNL     1       1.878  -1.254   2.343  0.00  0.00    +0.042 A 
ATOM     21  C   UNL     1       1.976   0.101   2.631  0.00  0.00    +0.024 A 
ATOM     22  C   UNL     1       2.481   0.511   3.849  0.00  0.00    +0.002 A 
ATOM     23  C   UNL     1       2.888  -0.425   4.782  0.00  0.00    +0.000 A 
ATOM     24  C   UNL     1       2.791  -1.775   4.498  0.00  0.00    +0.008 A 
ATOM     25  C   UNL     1       2.287  -2.191   3.281  0.00  0.00    +0.003 A 
ATOM     26  C   UNL     1       2.180  -3.661   2.969  0.00  0.00    +0.167 C 
ATOM     27  C   UNL     1       0.947  -3.910   2.100  0.00  0.00    +0.194 C 
ATOM     28  C   UNL     1       0.917  -2.934   0.955  0.00  0.00    +0.235 C 
ATOM     29  O   UNL     1       0.486  -3.287  -0.122  0.00  0.00    -0.274 OA
BRANCH  26  30
ATOM     30  O   UNL     1       2.061  -4.400   4.186  0.00  0.00    -0.386 OA
ATOM     31  H   UNL     1       2.811  -4.290   4.788  0.00  0.00    +0.210 HD
ENDBRANCH  26  30
BRANCH  19  32
ATOM     32  C   UNL     1       1.317  -0.740  -0.015  0.00  0.00    +0.140 C 
BRANCH  32  34
ATOM     33  C   UNL     1      -0.016   1.306   0.009  0.00  0.00    +0.005 C 
ATOM     34  C   UNL     1       0.002  -0.004   0.002  0.00  0.00    -0.015 C 
ENDBRANCH  32  34
ENDBRANCH  19  32
ENDBRANCH   1  27
TORSDOF 6
