REMARK  Name = ZINC42412829
REMARK  8 active torsions:
REMARK  status: ('A' for Active; 'I' for Inactive)
REMARK    1  A    between atoms: C_1  and  C_2
REMARK    2  A    between atoms: C_2  and  C_4
REMARK    3  A    between atoms: C_2  and  N_19
REMARK    4  A    between atoms: C_4  and  C_5
REMARK    5  A    between atoms: C_10  and  O_11
REMARK    6  A    between atoms: O_11  and  C_12
REMARK    7  A    between atoms: C_12  and  C_14
REMARK    8  A    between atoms: C_12  and  C_15
REMARK                            x       y       z     vdW  Elec       q    Type
REMARK                         _______ _______ _______ _____ _____    ______ ____
ROOT
ATOM      1  C   UNL     1       0.668  -1.726  -1.415  0.00  0.00    -0.006 A 
ATOM      2  C   UNL     1       1.824  -2.154  -0.790  0.00  0.00    +0.007 A 
ATOM      3  C   UNL     1       1.825  -3.332  -0.067  0.00  0.00    +0.002 A 
ATOM      4  C   UNL     1       0.670  -4.086   0.033  0.00  0.00    +0.019 A 
ATOM      5  C   UNL     1      -0.488  -3.663  -0.590  0.00  0.00    +0.060 A 
ATOM      6  C   UNL     1      -0.493  -2.477  -1.313  0.00  0.00    +0.139 A 
ATOM      7 BR   UNL     1      -2.067  -4.694  -0.454  0.00  0.00    -0.047 Br
ENDROOT
BRANCH   1   8
ATOM      8  C   UNL     1       0.668  -0.441  -2.203  0.00  0.00    +0.022 C 
BRANCH   8  10
ATOM      9  C   UNL     1       0.372   2.035  -2.057  0.00  0.00    -0.014 C 
ATOM     10  C   UNL     1       0.252   0.715  -1.292  0.00  0.00    -0.074 C 
BRANCH  10  11
ATOM     11  N   UNL     1      -1.139   0.523  -0.862  0.00  0.00    +0.380 N 
ATOM     12  H   UNL     1      -1.742   0.499  -1.671  0.00  0.00    -0.090 HD
ATOM     13  H   UNL     1      -1.218  -0.347  -0.358  0.00  0.00    -0.090 HD
ATOM     14  H   UNL     1      -1.414   1.286  -0.261  0.00  0.00    -0.090 HD
ENDBRANCH  10  11
ENDBRANCH   8  10
ENDBRANCH   1   8
BRANCH   6  15
ATOM     15  O   UNL     1      -1.632  -2.056  -1.923  0.00  0.00    -0.479 OA
BRANCH  15  16
ATOM     16  C   UNL     1      -1.939  -2.632  -3.194  0.00  0.00    +0.255 C 
ATOM     17  C   UNL     1      -1.310  -1.787  -4.302  0.00  0.00    +0.062 C 
BRANCH  16  18
ATOM     18  C   UNL     1      -3.434  -2.672  -3.380  0.00  0.00    +0.251 C 
ATOM     19  O   UNL     1      -4.162  -2.166  -2.551  0.00  0.00    -0.272 OA
ATOM     20  N   UNL     1      -3.963  -3.268  -4.466  0.00  0.00    -0.326 N 
ATOM     21  H   UNL     1      -3.381  -3.672  -5.129  0.00  0.00    +0.145 HD
ATOM     22  H   UNL     1      -4.925  -3.294  -4.586  0.00  0.00    +0.145 HD
ENDBRANCH  16  18
ENDBRANCH  15  16
ENDBRANCH   6  15
TORSDOF 6
