REMARK  Name = ZINC41630994
REMARK  6 active torsions:
REMARK  status: ('A' for Active; 'I' for Inactive)
REMARK    1  A    between atoms: C_1  and  C_2
REMARK    2  A    between atoms: C_4  and  C_23
REMARK    3  A    between atoms: C_8  and  C_22
REMARK    4  A    between atoms: N_12  and  C_13
REMARK    5  A    between atoms: C_13  and  C_14
REMARK    6  A    between atoms: C_14  and  C_15
REMARK                            x       y       z     vdW  Elec       q    Type
REMARK                         _______ _______ _______ _____ _____    ______ ____
ROOT
ATOM      1  C   UNL     1      -0.107   1.324   0.003  0.00  0.00    +0.044 C 
ATOM      2  C   UNL     1       0.058  -0.173   0.033  0.00  0.00    -0.050 A 
ATOM      3  C   UNL     1       0.116  -0.895  -1.140  0.00  0.00    +0.008 A 
ATOM      4  C   UNL     1       0.267  -2.277  -1.139  0.00  0.00    -0.026 A 
ATOM      5  C   UNL     1       0.366  -2.979   0.053  0.00  0.00    +0.055 A 
ATOM      6  C   UNL     1       0.305  -2.218   1.257  0.00  0.00    +0.002 A 
ATOM      7  C   UNL     1       0.151  -0.827   1.224  0.00  0.00    +0.013 A 
ATOM      8  C   UNL     1       0.401  -2.881   2.558  0.00  0.00    -0.036 A 
ATOM      9  C   UNL     1       0.549  -4.226   2.600  0.00  0.00    +0.074 A 
ATOM     10  C   UNL     1       0.606  -4.940   1.394  0.00  0.00    +0.252 A 
ATOM     11  O   UNL     1       0.739  -6.154   1.421  0.00  0.00    -0.268 OA
ATOM     12  N   UNL     1       0.520  -4.339   0.182  0.00  0.00    -0.308 N 
ATOM     13  C   UNL     1       0.338  -2.102   3.849  0.00  0.00    +0.044 C 
ATOM     14  C   UNL     1       0.304  -2.879  -2.523  0.00  0.00    +0.046 C 
ENDROOT
BRANCH  12  15
ATOM     15  C   UNL     1       0.610  -5.295  -0.928  0.00  0.00    +0.124 C 
BRANCH  15  16
ATOM     16  C   UNL     1      -0.788  -5.815  -1.267  0.00  0.00    +0.006 C 
BRANCH  16  17
ATOM     17  C   UNL     1      -0.694  -6.812  -2.424  0.00  0.00    -0.070 C 
ATOM     18  C   UNL     1      -2.102  -7.236  -2.847  0.00  0.00    -0.016 C 
ATOM     19  C   UNL     1      -2.003  -8.233  -4.005  0.00  0.00    -0.003 C 
ATOM     20  C   UNL     1      -1.144  -9.424  -3.569  0.00  0.00    -0.019 C 
ATOM     21  C   UNL     1       0.228  -8.918  -3.120  0.00  0.00    -0.082 C 
ATOM     22  N   UNL     1       0.067  -7.991  -1.994  0.00  0.00    +0.381 N 
ATOM     23  H   UNL     1       0.976  -7.701  -1.665  0.00  0.00    -0.086 HD
ATOM     24  H   UNL     1      -0.427  -8.454  -1.245  0.00  0.00    -0.086 HD
ENDBRANCH  16  17
ENDBRANCH  15  16
ENDBRANCH  12  15
TORSDOF 3
