REMARK  Name = ZINC18010642
REMARK  5 active torsions:
REMARK  status: ('A' for Active; 'I' for Inactive)
REMARK    1  A    between atoms: C_1  and  C_2
REMARK    2  A    between atoms: C_6  and  N_8
REMARK    3  A    between atoms: C_18  and  N_19
REMARK    4  A    between atoms: N_19  and  C_20
REMARK    5  A    between atoms: C_25  and  C_26
REMARK                            x       y       z     vdW  Elec       q    Type
REMARK                         _______ _______ _______ _____ _____    ______ ____
ROOT
ATOM      1  N   UNL     1       0.186  -2.630   2.427  0.00  0.00    -0.186 N 
ATOM      2  C   UNL     1       0.060  -1.899   3.546  0.00  0.00    +0.259 C 
ATOM      3  O   UNL     1       0.061  -0.685   3.471  0.00  0.00    -0.269 OA
ATOM      4  C   UNL     1      -0.080  -2.541   4.859  0.00  0.00    +0.046 A 
ATOM      5  C   UNL     1      -0.212  -1.788   6.027  0.00  0.00    +0.014 A 
ATOM      6  C   UNL     1      -0.341  -2.429   7.240  0.00  0.00    +0.001 A 
ATOM      7  C   UNL     1      -0.341  -3.814   7.314  0.00  0.00    +0.001 A 
ATOM      8  C   UNL     1      -0.210  -4.577   6.172  0.00  0.00    +0.009 A 
ATOM      9  C   UNL     1      -0.080  -3.950   4.939  0.00  0.00    +0.000 A 
ATOM     10  C   UNL     1       0.061  -4.719   3.686  0.00  0.00    +0.059 C 
ATOM     11  C   UNL     1       0.068  -6.097   3.696  0.00  0.00    +0.085 C 
ATOM     12  C   UNL     1       0.188  -3.973   2.429  0.00  0.00    +0.260 C 
ATOM     13  O   UNL     1       0.301  -4.577   1.378  0.00  0.00    -0.269 OA
ENDROOT
BRANCH   1  19
ATOM     14  C   UNL     1      -1.933  -0.886  -1.501  0.00  0.00    +0.065 C 
ATOM     15  C   UNL     1      -0.681  -1.116  -0.694  0.00  0.00    +0.040 A 
ATOM     16  C   UNL     1       0.533  -0.669  -1.178  0.00  0.00    +0.023 A 
ATOM     17  C   UNL     1       1.683  -0.883  -0.431  0.00  0.00    +0.005 A 
ATOM     18  C   UNL     1       1.569  -1.542   0.781  0.00  0.00    +0.044 A 
ATOM     19  C   UNL     1       0.315  -1.964   1.206  0.00  0.00    +0.135 A 
ATOM     20  N   UNL     1      -0.759  -1.736   0.467  0.00  0.00    -0.236 NA
ENDBRANCH   1  19
BRANCH  11  21
ATOM     21  N   UNL     1      -0.579  -6.773   4.683  0.00  0.00    -0.319 N 
ATOM     22  H   UNL     1      -1.129  -6.291   5.320  0.00  0.00    +0.152 HD
BRANCH  21  23
ATOM     23  C   UNL     1      -0.452  -8.159   4.778  0.00  0.00    +0.040 A 
ATOM     24  C   UNL     1       0.246  -8.864   3.808  0.00  0.00    +0.024 A 
ATOM     25  C   UNL     1       0.369 -10.236   3.904  0.00  0.00    +0.002 A 
ATOM     26  C   UNL     1      -0.200 -10.917   4.966  0.00  0.00    +0.001 A 
ATOM     27  C   UNL     1      -0.898 -10.231   5.939  0.00  0.00    +0.012 A 
ATOM     28  C   UNL     1      -1.024  -8.845   5.857  0.00  0.00    +0.029 A 
BRANCH  28  29
ATOM     29  C   UNL     1      -1.767  -8.103   6.902  0.00  0.00    +0.159 A 
ATOM     30  C   UNL     1      -1.361  -8.169   8.239  0.00  0.00    +0.279 A 
ATOM     31  O   UNL     1      -0.291  -8.907   8.600  0.00  0.00    -0.265 OA
ATOM     32  N   UNL     1      -2.072  -7.471   9.167  0.00  0.00    -0.298 N 
ATOM     33  H   UNL     1      -1.818  -7.494  10.103  0.00  0.00    +0.171 HD
ATOM     34  C   UNL     1      -3.135  -6.746   8.762  0.00  0.00    +0.201 A 
ATOM     35  N   UNL     1      -3.483  -6.714   7.472  0.00  0.00    -0.123 NA
ATOM     36  N   UNL     1      -2.824  -7.360   6.577  0.00  0.00    -0.141 NA
ATOM     37  S   UNL     1      -4.045  -5.859   9.909  0.00  0.00    -0.009 S 
ENDBRANCH  28  29
ENDBRANCH  21  23
ENDBRANCH  11  21
TORSDOF 4
