REMARK  Name = ZINC54559925
REMARK  12 active torsions:
REMARK  status: ('A' for Active; 'I' for Inactive)
REMARK    1  A    between atoms: C_1  and  C_2
REMARK    2  A    between atoms: C_2  and  N_3
REMARK    3  A    between atoms: N_3  and  C_4
REMARK    4  A    between atoms: C_8  and  C_22
REMARK    5  A    between atoms: C_11  and  C_13
REMARK    6  A    between atoms: C_13  and  N_14
REMARK    7  A    between atoms: N_14  and  C_15
REMARK    8  A    between atoms: N_14  and  C_16
REMARK    9  A    between atoms: C_16  and  C_18
REMARK   10  A    between atoms: C_16  and  C_19
REMARK   11  A    between atoms: C_22  and  C_23
REMARK   12  A    between atoms: C_22  and  C_24
REMARK                            x       y       z     vdW  Elec       q    Type
REMARK                         _______ _______ _______ _____ _____    ______ ____
ROOT
ATOM      1  C   UNL     1       0.396  -1.029   1.358  0.00  0.00    -0.070 C 
ATOM      2  C   UNL     1      -1.128  -0.977   1.476  0.00  0.00    -0.015 C 
ATOM      3  C   UNL     1      -1.720  -2.313   1.024  0.00  0.00    +0.002 C 
ATOM      4  C   UNL     1      -1.178  -3.437   1.909  0.00  0.00    -0.008 C 
ATOM      5  C   UNL     1       0.346  -3.489   1.791  0.00  0.00    +0.004 C 
ATOM      6  C   UNL     1       0.938  -2.153   2.244  0.00  0.00    -0.042 C 
ENDROOT
BRANCH   1   7
ATOM      7  N   UNL     1       0.965   0.254   1.793  0.00  0.00    +0.381 N 
ATOM      8  H   UNL     1       1.972   0.193   1.794  0.00  0.00    -0.086 HD
ATOM      9  H   UNL     1       0.640   0.468   2.724  0.00  0.00    -0.086 HD
BRANCH   7  11
ATOM     10  C   UNL     1       1.132   2.652   1.323  0.00  0.00    -0.017 C 
ATOM     11  C   UNL     1       0.540   1.315   0.871  0.00  0.00    -0.086 C 
ENDBRANCH   7  11
ENDBRANCH   1   7
BRANCH   4  12
ATOM     12  C   UNL     1      -1.770  -4.774   1.456  0.00  0.00    -0.014 C 
ATOM     13  C   UNL     1      -1.228  -5.897   2.341  0.00  0.00    +0.007 C 
ATOM     14  C   UNL     1      -3.295  -4.722   1.574  0.00  0.00    +0.007 C 
ENDBRANCH   4  12
BRANCH   6  15
ATOM     15  C   UNL     1       0.548  -1.889   3.699  0.00  0.00    -0.077 C 
BRANCH  15  16
ATOM     16  N   UNL     1       1.584  -2.429   4.590  0.00  0.00    +0.380 N 
ATOM     17  C   UNL     1       1.607  -3.893   4.483  0.00  0.00    -0.096 C 
ATOM     18  H   UNL     1       2.484  -2.057   4.323  0.00  0.00    -0.082 HD
BRANCH  16  19
ATOM     19  C   UNL     1       1.287  -2.043   5.976  0.00  0.00    -0.069 C 
ATOM     20  C   UNL     1       2.300  -2.701   6.916  0.00  0.00    -0.013 C 
BRANCH  19  21
ATOM     21  C   UNL     1       1.377  -0.522   6.113  0.00  0.00    -0.025 C 
ATOM     22  C   UNL     1       2.462   0.041   7.034  0.00  0.00    +0.002 C 
ATOM     23  C   UNL     1       0.994   0.089   7.462  0.00  0.00    +0.002 C 
ENDBRANCH  19  21
ENDBRANCH  16  19
ENDBRANCH  15  16
ENDBRANCH   6  15
TORSDOF 7
