REMARK  Name = ZINC18204217
REMARK  6 active torsions:
REMARK  status: ('A' for Active; 'I' for Inactive)
REMARK    1  A    between atoms: C_3  and  C_9
REMARK    2  A    between atoms: C_9  and  C_11
REMARK    3  A    between atoms: C_9  and  O_34
REMARK    4  A    between atoms: C_11  and  C_22
REMARK    5  A    between atoms: N_12  and  N_13
REMARK    6  A    between atoms: C_14  and  C_16
REMARK                            x       y       z     vdW  Elec       q    Type
REMARK                         _______ _______ _______ _____ _____    ______ ____
ROOT
ATOM      1  C   UNL     1       4.162   2.438   1.378  0.00  0.00    +0.123 C 
ATOM      2  N   UNL     1       5.107   1.703   1.880  0.00  0.00    -0.179 NA
ENDROOT
BRANCH   1   3
ATOM      3  C   UNL     1       3.612   3.561   2.154  0.00  0.00    +0.156 A 
ATOM      4  C   UNL     1       4.120   3.840   3.447  0.00  0.00    +0.298 A 
ATOM      5  N   UNL     1       3.636   4.841   4.151  0.00  0.00    -0.206 NA
ATOM      6  C   UNL     1       2.656   5.602   3.642  0.00  0.00    +0.095 A 
ATOM      7  C   UNL     1       2.125   6.675   4.375  0.00  0.00    +0.050 A 
ATOM      8  C   UNL     1       1.130   7.435   3.837  0.00  0.00    +0.043 A 
ATOM      9  C   UNL     1       0.628   7.163   2.564  0.00  0.00    +0.022 A 
ATOM     10  C   UNL     1       1.119   6.130   1.826  0.00  0.00    +0.031 A 
ATOM     11  C   UNL     1       2.147   5.325   2.349  0.00  0.00    +0.090 A 
ATOM     12  N   UNL     1       2.648   4.308   1.639  0.00  0.00    -0.238 NA
ATOM     13 CL   UNL     1       0.477   8.761   4.748  0.00  0.00    -0.083 Cl
ATOM     14  O   UNL     1       5.110   3.072   3.962  0.00  0.00    -0.263 OA
ENDBRANCH   1   3
BRANCH   2  15
ATOM     15  N   UNL     1       5.725   0.722   1.093  0.00  0.00    -0.203 N 
ATOM     16  C   UNL     1       6.768   0.023   1.583  0.00  0.00    +0.263 C 
ATOM     17  O   UNL     1       7.117   0.180   2.736  0.00  0.00    -0.268 OA
ATOM     18  H   UNL     1       5.401   0.545   0.196  0.00  0.00    +0.178 HD
BRANCH  16  19
ATOM     19  C   UNL     1       7.489  -0.936   0.715  0.00  0.00    +0.041 A 
ATOM     20  C   UNL     1       7.180  -1.048  -0.644  0.00  0.00    +0.033 A 
ATOM     21  C   UNL     1       7.878  -1.956  -1.417  0.00  0.00    +0.111 A 
ATOM     22  N   UNL     1       8.823  -2.709  -0.889  0.00  0.00    -0.263 NA
ATOM     23  C   UNL     1       9.145  -2.635   0.387  0.00  0.00    +0.111 A 
ATOM     24  C   UNL     1       8.502  -1.750   1.231  0.00  0.00    +0.033 A 
ENDBRANCH  16  19
ENDBRANCH   2  15
BRANCH   1  25
ATOM     25  C   UNL     1       3.628   2.142  -0.000  0.00  0.00    +0.198 C 
BRANCH  25  28
ATOM     26  C   UNL     1      -0.097   2.738  -0.154  0.00  0.00    +0.020 A 
ATOM     27  C   UNL     1       1.268   2.945  -0.223  0.00  0.00    +0.009 A 
ATOM     28  C   UNL     1       2.140   1.915   0.076  0.00  0.00    +0.005 A 
ATOM     29  C   UNL     1       1.647   0.676   0.444  0.00  0.00    +0.048 A 
ATOM     30  C   UNL     1       0.281   0.468   0.513  0.00  0.00    +0.040 A 
ATOM     31  C   UNL     1      -0.591   1.499   0.213  0.00  0.00    +0.042 A 
ATOM     32 CL   UNL     1      -2.305   1.239   0.300  0.00  0.00    -0.083 Cl
ATOM     33 CL   UNL     1       2.742  -0.618   0.818  0.00  0.00    -0.083 Cl
ENDBRANCH  25  28
BRANCH  25  34
ATOM     34  O   UNL     1       3.898   3.248  -0.864  0.00  0.00    -0.381 OA
ATOM     35  H   UNL     1       4.838   3.452  -0.960  0.00  0.00    +0.211 HD
ENDBRANCH  25  34
ENDBRANCH   1  25
TORSDOF 6
