REMARK  Name = ZINC11880866
REMARK  7 active torsions:
REMARK  status: ('A' for Active; 'I' for Inactive)
REMARK    1  A    between atoms: C_1  and  N_40
REMARK    2  A    between atoms: C_2  and  C_3
REMARK    3  A    between atoms: C_2  and  N_40
REMARK    4  A    between atoms: C_8  and  C_9
REMARK    5  A    between atoms: C_8  and  N_40
REMARK    6  A    between atoms: C_11  and  C_16
REMARK    7  A    between atoms: C_14  and  O_15
REMARK                            x       y       z     vdW  Elec       q    Type
REMARK                         _______ _______ _______ _____ _____    ______ ____
ROOT
ATOM      1  C   UNL     1       0.023  -0.703   1.201  0.00  0.00    -0.022 A 
ATOM      2  C   UNL     1       0.041  -2.082   1.197  0.00  0.00    +0.013 A 
ATOM      3  C   UNL     1       0.039  -2.774  -0.013  0.00  0.00    -0.017 A 
ATOM      4  C   UNL     1       0.018  -2.069  -1.216  0.00  0.00    +0.012 A 
ATOM      5  C   UNL     1      -0.006  -0.691  -1.205  0.00  0.00    +0.046 A 
ATOM      6  C   UNL     1       0.002  -0.004   0.002  0.00  0.00    +0.118 A 
ENDROOT
BRANCH   3   7
ATOM      7  C   UNL     1       0.058  -4.257  -0.021  0.00  0.00    -0.018 A 
ATOM      8  C   UNL     1       0.084  -4.963   1.180  0.00  0.00    +0.011 A 
ATOM      9  C   UNL     1       0.096  -6.342   1.168  0.00  0.00    +0.039 A 
ATOM     10  C   UNL     1       0.093  -7.026  -0.037  0.00  0.00    +0.123 A 
ATOM     11  C   UNL     1       0.073  -6.329  -1.234  0.00  0.00    +0.039 A 
ATOM     12  C   UNL     1       0.055  -4.950  -1.231  0.00  0.00    +0.011 A 
ATOM     13  F   UNL     1       0.110  -8.377  -0.044  0.00  0.00    -0.205 F 
ENDBRANCH   3   7
BRANCH   6  14
ATOM     14  O   UNL     1      -0.016   1.355   0.009  0.00  0.00    -0.507 OA
ATOM     15  H   UNL     1       0.862   1.760   0.003  0.00  0.00    +0.292 HD
ENDBRANCH   6  14
BRANCH   1  16
ATOM     16  C   UNL     1       0.025   0.046   2.509  0.00  0.00    -0.039 C 
BRANCH  16  18
ATOM     17  C   UNL     1       2.357  -0.440   2.944  0.00  0.00    -0.095 C 
ATOM     18  N   UNL     1       1.365   0.633   2.720  0.00  0.00    +0.384 N 
ATOM     19  H   UNL     1       1.632   1.164   1.883  0.00  0.00    -0.081 HD
BRANCH  18  20
ATOM     20  C   UNL     1       1.339   1.548   3.881  0.00  0.00    -0.019 C 
BRANCH  20  21
ATOM     21  C   UNL     1       2.645   2.296   3.940  0.00  0.00    +0.067 A 
ATOM     22  C   UNL     1       2.918   3.569   3.389  0.00  0.00    +0.065 A 
ATOM     23  C   UNL     1       4.215   3.793   3.708  0.00  0.00    +0.230 A 
ATOM     24  O   UNL     1       4.629   2.716   4.390  0.00  0.00    -0.363 OA
ATOM     25  N   UNL     1       3.745   1.901   4.513  0.00  0.00    -0.085 NA
ENDBRANCH  20  21
ENDBRANCH  18  20
ENDBRANCH  16  18
ENDBRANCH   1  16
TORSDOF 6
