REMARK  Name = ZINC45557149
REMARK  7 active torsions:
REMARK  status: ('A' for Active; 'I' for Inactive)
REMARK    1  A    between atoms: C_1  and  C_2
REMARK    2  A    between atoms: C_2  and  C_4
REMARK    3  A    between atoms: C_2  and  N_15
REMARK    4  A    between atoms: N_6  and  C_7
REMARK    5  A    between atoms: C_8  and  C_12
REMARK    6  A    between atoms: N_18  and  C_21
REMARK    7  A    between atoms: C_24  and  N_27
REMARK                            x       y       z     vdW  Elec       q    Type
REMARK                         _______ _______ _______ _____ _____    ______ ____
ROOT
ATOM      1  C   UNL     1       0.091   1.311   0.766  0.00  0.00    -0.004 C 
ATOM      2  C   UNL     1       0.022  -0.013   0.003  0.00  0.00    +0.017 C 
ENDROOT
BRANCH   2   3
ATOM      3  N   UNL     1       1.012  -0.948   0.553  0.00  0.00    +0.389 N 
ATOM      4  C   UNL     1       0.982  -2.198  -0.216  0.00  0.00    -0.059 C 
ATOM      5  C   UNL     1       1.931  -3.215   0.426  0.00  0.00    +0.086 C 
ATOM      6  N   UNL     1       3.264  -2.603   0.538  0.00  0.00    -0.333 N 
ATOM      7  C   UNL     1       3.365  -1.270   1.152  0.00  0.00    +0.086 C 
ATOM      8  C   UNL     1       2.348  -0.345   0.475  0.00  0.00    -0.059 C 
ATOM      9  H   UNL     1       0.788  -1.144   1.517  0.00  0.00    -0.081 HD
BRANCH   6  10
ATOM     10  C   UNL     1       4.401  -3.268   0.074  0.00  0.00    +0.030 A 
ATOM     11  C   UNL     1       5.661  -2.718   0.277  0.00  0.00    +0.025 A 
ATOM     12  C   UNL     1       6.783  -3.379  -0.183  0.00  0.00    +0.034 A 
ATOM     13  C   UNL     1       6.654  -4.586  -0.844  0.00  0.00    +0.126 A 
ATOM     14  C   UNL     1       5.402  -5.136  -1.048  0.00  0.00    +0.034 A 
ATOM     15  C   UNL     1       4.276  -4.484  -0.586  0.00  0.00    +0.025 A 
BRANCH  13  16
ATOM     16  N   UNL     1       7.859  -5.291  -1.336  0.00  0.00    +0.056 N 
ATOM     17  O   UNL     1       8.954  -4.811  -1.159  0.00  0.00    -0.126 OA
ATOM     18  O   UNL     1       7.748  -6.347  -1.915  0.00  0.00    -0.126 OA
ENDBRANCH  13  16
ENDBRANCH   6  10
ENDBRANCH   2   3
BRANCH   2  19
ATOM     19  C   UNL     1      -1.358  -0.602   0.143  0.00  0.00    +0.204 C 
ATOM     20  O   UNL     1      -1.596  -1.382   1.041  0.00  0.00    -0.277 OA
ATOM     21  N   UNL     1      -2.328  -0.262  -0.728  0.00  0.00    -0.281 N 
ATOM     22  H   UNL     1      -2.139   0.363  -1.446  0.00  0.00    +0.155 HD
BRANCH  21  23
ATOM     23  C   UNL     1      -3.598  -0.804  -0.598  0.00  0.00    +0.084 A 
ATOM     24  C   UNL     1      -4.708  -0.575  -1.398  0.00  0.00    +0.065 A 
ATOM     25  C   UNL     1      -5.920  -1.276  -1.036  0.00  0.00    +0.022 A 
ATOM     26  C   UNL     1      -5.835  -2.076   0.042  0.00  0.00    +0.048 A 
ATOM     27  S   UNL     1      -4.142  -1.892   0.557  0.00  0.00    -0.081 S 
BRANCH  24  28
ATOM     28  C   UNL     1      -4.656   0.330  -2.550  0.00  0.00    +0.244 C 
ATOM     29  O   UNL     1      -3.619   0.904  -2.826  0.00  0.00    -0.270 OA
ATOM     30  N   UNL     1      -5.756   0.527  -3.303  0.00  0.00    -0.325 N 
ATOM     31  H   UNL     1      -6.582   0.069  -3.083  0.00  0.00    +0.145 HD
ATOM     32  H   UNL     1      -5.721   1.126  -4.065  0.00  0.00    +0.145 HD
ENDBRANCH  24  28
ENDBRANCH  21  23
ENDBRANCH   2  19
TORSDOF 6
