REMARK  Name = ZINC13690300
REMARK  8 active torsions:
REMARK  status: ('A' for Active; 'I' for Inactive)
REMARK    1  A    between atoms: C_1  and  C_2
REMARK    2  A    between atoms: C_2  and  N_46
REMARK    3  A    between atoms: C_6  and  C_8
REMARK    4  A    between atoms: C_8  and  N_9
REMARK    5  A    between atoms: C_13  and  C_16
REMARK    6  A    between atoms: C_14  and  N_15
REMARK    7  A    between atoms: C_18  and  C_22
REMARK    8  A    between atoms: C_19  and  C_21
REMARK                            x       y       z     vdW  Elec       q    Type
REMARK                         _______ _______ _______ _____ _____    ______ ____
ROOT
ATOM      1  N   UNL     1      -6.231   2.656   1.843  0.00  0.00    -0.312 N 
ATOM      2  C   UNL     1      -5.955   3.046   3.233  0.00  0.00    +0.185 C 
ATOM      3  C   UNL     1      -4.461   2.869   3.399  0.00  0.00    +0.186 C 
ATOM      4  O   UNL     1      -3.803   3.079   4.400  0.00  0.00    -0.290 OA
ATOM      5  C   UNL     1      -3.991   2.411   2.157  0.00  0.00    +0.086 C 
ATOM      6  C   UNL     1      -5.052   2.302   1.264  0.00  0.00    +0.097 C 
ENDROOT
BRANCH   5   7
ATOM      7  C   UNL     1      -2.584   2.099   1.845  0.00  0.00    +0.115 A 
ATOM      8  N   UNL     1      -2.048   1.670   0.709  0.00  0.00    -0.244 NA
ATOM      9  C   UNL     1      -0.757   1.437   0.611  0.00  0.00    +0.049 A 
ATOM     10  C   UNL     1       0.051   1.645   1.680  0.00  0.00    +0.010 A 
ATOM     11  S   UNL     1      -1.139   2.203   2.892  0.00  0.00    -0.072 S 
ATOM     12  C   UNL     1       1.541   1.458   1.809  0.00  0.00    +0.053 C 
ATOM     13  C   UNL     1      -0.176   0.944  -0.690  0.00  0.00    +0.066 C 
ENDBRANCH   5   7
BRANCH   6  14
ATOM     14  N   UNL     1      -4.927   1.887  -0.030  0.00  0.00    -0.346 N 
ATOM     15  H   UNL     1      -4.069   1.575  -0.358  0.00  0.00    +0.143 HD
ATOM     16  H   UNL     1      -5.696   1.905  -0.621  0.00  0.00    +0.143 HD
ENDBRANCH   6  14
BRANCH   1  17
ATOM     17  C   UNL     1      -7.544   2.655   1.194  0.00  0.00    +0.091 C 
BRANCH  17  21
ATOM     18  C   UNL     1     -10.049   4.961   0.528  0.00  0.00    -0.078 C 
ATOM     19  C   UNL     1      -9.152   5.972   1.284  0.00  0.00    -0.020 C 
ATOM     20  C   UNL     1      -7.998   5.059   1.784  0.00  0.00    -0.016 C 
ATOM     21  C   UNL     1      -7.835   4.047   0.629  0.00  0.00    -0.051 C 
ATOM     22  N   UNL     1      -9.096   4.045  -0.130  0.00  0.00    +0.382 N 
ATOM     23  H   UNL     1      -8.917   4.371  -1.087  0.00  0.00    -0.081 HD
BRANCH  22  25
ATOM     24  C   UNL     1     -11.023   2.709  -0.876  0.00  0.00    -0.017 C 
ATOM     25  C   UNL     1      -9.660   2.671  -0.183  0.00  0.00    -0.082 C 
ENDBRANCH  22  25
ENDBRANCH  17  21
ENDBRANCH   1  17
TORSDOF 5
