REMARK  Name = ZINC41142825
REMARK  8 active torsions:
REMARK  status: ('A' for Active; 'I' for Inactive)
REMARK    1  A    between atoms: C_1  and  O_2
REMARK    2  A    between atoms: O_2  and  C_3
REMARK    3  A    between atoms: C_7  and  C_11
REMARK    4  A    between atoms: C_8  and  O_9
REMARK    5  A    between atoms: O_9  and  C_10
REMARK    6  A    between atoms: C_13  and  C_22
REMARK    7  A    between atoms: N_15  and  C_16
REMARK    8  A    between atoms: C_22  and  N_23
REMARK                            x       y       z     vdW  Elec       q    Type
REMARK                         _______ _______ _______ _____ _____    ______ ____
ROOT
ATOM      1  C   UNL     1       1.559  -4.106  -2.219  0.00  0.00    +0.078 A 
ATOM      2  C   UNL     1       1.040  -4.982  -1.308  0.00  0.00    +0.051 A 
ATOM      3  C   UNL     1       0.993  -6.242  -1.904  0.00  0.00    +0.047 A 
ATOM      4  N   UNL     1       1.462  -6.146  -3.123  0.00  0.00    -0.173 NA
ATOM      5  N   UNL     1       1.823  -4.813  -3.357  0.00  0.00    -0.232 N 
ENDROOT
BRANCH   1  10
ATOM      6  C   UNL     1       0.999  -0.500  -1.286  0.00  0.00    +0.162 A 
ATOM      7  C   UNL     1       2.221   0.056  -1.631  0.00  0.00    +0.049 A 
ATOM      8  C   UNL     1       3.222  -0.737  -2.164  0.00  0.00    +0.004 A 
ATOM      9  C   UNL     1       3.013  -2.087  -2.357  0.00  0.00    +0.014 A 
ATOM     10  C   UNL     1       1.787  -2.659  -2.014  0.00  0.00    +0.046 A 
ATOM     11  C   UNL     1       0.777  -1.859  -1.469  0.00  0.00    +0.171 A 
BRANCH   6  13
ATOM     12  C   UNL     1       0.316   1.673  -0.602  0.00  0.00    +0.277 C 
ATOM     13  O   UNL     1       0.019   0.284  -0.763  0.00  0.00    -0.491 OA
ENDBRANCH   6  13
BRANCH  11  14
ATOM     14  O   UNL     1      -0.418  -2.409  -1.126  0.00  0.00    -0.491 OA
ATOM     15  C   UNL     1      -1.431  -2.441  -2.134  0.00  0.00    +0.277 C 
ENDBRANCH  11  14
ENDBRANCH   1  10
BRANCH   5  16
ATOM     16  C   UNL     1       2.360  -4.299  -4.544  0.00  0.00    +0.066 A 
ATOM     17  C   UNL     1       3.337  -5.008  -5.230  0.00  0.00    +0.028 A 
ATOM     18  C   UNL     1       3.865  -4.498  -6.400  0.00  0.00    +0.002 A 
ATOM     19  C   UNL     1       3.422  -3.283  -6.889  0.00  0.00    +0.000 A 
ATOM     20  C   UNL     1       2.449  -2.574  -6.208  0.00  0.00    +0.002 A 
ATOM     21  C   UNL     1       1.913  -3.081  -5.040  0.00  0.00    +0.028 A 
ENDBRANCH   5  16
BRANCH   3  22
ATOM     22  C   UNL     1       0.489  -7.505  -1.254  0.00  0.00    -0.028 C 
BRANCH  22  23
ATOM     23  N   UNL     1      -0.922  -7.709  -1.610  0.00  0.00    +0.382 N 
ATOM     24  H   UNL     1      -1.007  -7.790  -2.612  0.00  0.00    -0.090 HD
ATOM     25  H   UNL     1      -1.260  -8.554  -1.174  0.00  0.00    -0.090 HD
ATOM     26  H   UNL     1      -1.467  -6.923  -1.288  0.00  0.00    -0.090 HD
ENDBRANCH  22  23
ENDBRANCH   3  22
TORSDOF 6
