REMARK  Name = ZINC60377234
REMARK  8 active torsions:
REMARK  status: ('A' for Active; 'I' for Inactive)
REMARK    1  A    between atoms: C_1  and  C_2
REMARK    2  A    between atoms: C_2  and  C_4
REMARK    3  A    between atoms: C_2  and  N_14
REMARK    4  A    between atoms: C_8  and  S_10
REMARK    5  A    between atoms: S_10  and  N_13
REMARK    6  A    between atoms: N_14  and  C_15
REMARK    7  A    between atoms: N_14  and  C_16
REMARK    8  A    between atoms: C_16  and  C_17
REMARK                            x       y       z     vdW  Elec       q    Type
REMARK                         _______ _______ _______ _____ _____    ______ ____
ROOT
ATOM      1  C   UNL     1      -1.350  -2.000   0.284  0.00  0.00    +0.020 C 
ENDROOT
BRANCH   1   2
ATOM      2  C   UNL     1      -2.763  -2.504   0.139  0.00  0.00    +0.204 C 
ATOM      3  O   UNL     1      -3.686  -1.717   0.098  0.00  0.00    -0.277 OA
ATOM      4  N   UNL     1      -3.002  -3.827   0.054  0.00  0.00    -0.256 N 
ATOM      5  C   UNL     1      -1.946  -4.748  -0.049  0.00  0.00    +0.058 A 
ATOM      6  C   UNL     1      -0.742  -4.389  -0.626  0.00  0.00    +0.025 A 
ATOM      7  C   UNL     1       0.280  -5.317  -0.716  0.00  0.00    +0.002 A 
ATOM      8  C   UNL     1       0.099  -6.600  -0.233  0.00  0.00    +0.002 A 
ATOM      9  C   UNL     1      -1.103  -6.965   0.345  0.00  0.00    +0.025 A 
ATOM     10  C   UNL     1      -2.132  -6.041   0.443  0.00  0.00    +0.055 A 
ATOM     11  N   UNL     1      -3.351  -6.392   1.034  0.00  0.00    -0.282 N 
ATOM     12  C   UNL     1      -4.434  -5.603   0.897  0.00  0.00    +0.241 C 
ATOM     13  O   UNL     1      -5.471  -5.906   1.448  0.00  0.00    -0.273 OA
ATOM     14  C   UNL     1      -4.371  -4.351   0.073  0.00  0.00    +0.118 C 
ATOM     15  C   UNL     1      -4.836  -4.647  -1.364  0.00  0.00    +0.036 C 
ATOM     16  C   UNL     1      -6.331  -4.240  -1.369  0.00  0.00    +0.003 C 
ATOM     17  C   UNL     1      -6.346  -2.978  -0.471  0.00  0.00    +0.003 C 
ATOM     18  C   UNL     1      -5.327  -3.295   0.645  0.00  0.00    +0.036 C 
ATOM     19  H   UNL     1      -3.416  -7.212   1.548  0.00  0.00    +0.155 HD
ENDBRANCH   1   2
BRANCH   1  20
ATOM     20  N   UNL     1      -1.371  -0.626   0.803  0.00  0.00    +0.388 N 
ATOM     21  C   UNL     1      -2.000   0.261  -0.185  0.00  0.00    -0.095 C 
ATOM     22  H   UNL     1      -1.899  -0.599   1.663  0.00  0.00    -0.081 HD
BRANCH  20  24
ATOM     23  C   UNL     1      -0.017   1.253   1.598  0.00  0.00    -0.008 C 
ATOM     24  C   UNL     1       0.004  -0.178   1.058  0.00  0.00    -0.040 C 
BRANCH  24  25
ATOM     25  C   UNL     1       0.649  -1.088   2.072  0.00  0.00    -0.059 A 
ATOM     26  C   UNL     1      -0.082  -1.548   3.151  0.00  0.00    +0.002 A 
ATOM     27  C   UNL     1       0.509  -2.382   4.081  0.00  0.00    +0.002 A 
ATOM     28  C   UNL     1       1.832  -2.757   3.932  0.00  0.00    +0.028 A 
ATOM     29  C   UNL     1       2.562  -2.297   2.852  0.00  0.00    +0.105 A 
ATOM     30  C   UNL     1       1.970  -1.466   1.920  0.00  0.00    +0.030 A 
BRANCH  29  31
ATOM     31  S   UNL     1       4.248  -2.774   2.662  0.00  0.00    +0.056 S 
ATOM     32  O   UNL     1       4.866  -1.772   1.866  0.00  0.00    -0.153 OA
ATOM     33  O   UNL     1       4.721  -3.118   3.957  0.00  0.00    -0.153 OA
BRANCH  31  34
ATOM     34  N   UNL     1       4.265  -4.167   1.767  0.00  0.00    -0.204 NA
ATOM     35  H   UNL     1       3.431  -4.556   1.459  0.00  0.00    +0.144 HD
ATOM     36  H   UNL     1       5.109  -4.594   1.551  0.00  0.00    +0.144 HD
ENDBRANCH  31  34
ENDBRANCH  29  31
ENDBRANCH  24  25
ENDBRANCH  20  24
ENDBRANCH   1  20
TORSDOF 6
