REMARK  Name = ZINC39405109
REMARK  7 active torsions:
REMARK  status: ('A' for Active; 'I' for Inactive)
REMARK    1  A    between atoms: C_1  and  C_2
REMARK    2  A    between atoms: C_2  and  O_3
REMARK    3  A    between atoms: O_3  and  C_4
REMARK    4  A    between atoms: C_13  and  C_14
REMARK    5  A    between atoms: C_15  and  C_16
REMARK    6  A    between atoms: C_15  and  C_18
REMARK    7  A    between atoms: C_24  and  C_28
REMARK                            x       y       z     vdW  Elec       q    Type
REMARK                         _______ _______ _______ _____ _____    ______ ____
ROOT
ATOM      1  C   UNL     1      -3.966  -1.529   0.032  0.00  0.00    +0.030 C 
ATOM      2  C   UNL     1      -4.059  -0.526   0.936  0.00  0.00    +0.072 C 
ENDROOT
BRANCH   2   3
ATOM      3  C   UNL     1      -5.275   0.364   0.952  0.00  0.00    +0.216 C 
ATOM      4  N   UNL     1      -5.918   0.314   2.271  0.00  0.00    -0.359 N 
ATOM      5  C   UNL     1      -5.901   1.520   2.760  0.00  0.00    +0.060 A 
ATOM      6  C   UNL     1      -6.387   2.094   4.023  0.00  0.00    +0.027 A 
ATOM      7  C   UNL     1      -6.226   3.411   4.260  0.00  0.00    +0.005 A 
ATOM      8  C   UNL     1      -5.605   4.277   3.343  0.00  0.00    -0.048 A 
ATOM      9  C   UNL     1      -5.123   3.854   2.156  0.00  0.00    +0.030 A 
ATOM     10  C   UNL     1      -5.243   2.437   1.789  0.00  0.00    +0.061 A 
ATOM     11  N   UNL     1      -4.880   1.761   0.736  0.00  0.00    -0.359 N 
ATOM     12  C   UNL     1      -5.472   5.735   3.700  0.00  0.00    +0.044 C 
ATOM     13  H   UNL     1      -6.288  -0.473   2.700  0.00  0.00    +0.162 HD
ATOM     14  H   UNL     1      -4.430   2.116  -0.048  0.00  0.00    +0.162 HD
ENDBRANCH   2   3
BRANCH   1  24
ATOM     15  C   UNL     1      -1.498  -1.846   0.006  0.00  0.00    +0.128 A 
ATOM     16  C   UNL     1      -0.378  -2.676  -0.003  0.00  0.00    +0.047 A 
ATOM     17  C   UNL     1      -0.491  -4.030  -0.009  0.00  0.00    +0.012 A 
ATOM     18  C   UNL     1      -1.754  -4.649  -0.005  0.00  0.00    -0.017 A 
ATOM     19  C   UNL     1      -1.881  -6.048  -0.011  0.00  0.00    +0.008 A 
ATOM     20  C   UNL     1      -3.120  -6.613  -0.007  0.00  0.00    +0.001 A 
ATOM     21  C   UNL     1      -4.267  -5.824   0.003  0.00  0.00    +0.001 A 
ATOM     22  C   UNL     1      -4.181  -4.463   0.008  0.00  0.00    +0.009 A 
ATOM     23  C   UNL     1      -2.923  -3.850   0.005  0.00  0.00    -0.007 A 
ATOM     24  C   UNL     1      -2.784  -2.393   0.016  0.00  0.00    +0.025 A 
BRANCH  15  25
ATOM     25  O   UNL     1      -1.339  -0.499   0.012  0.00  0.00    -0.492 OA
BRANCH  25  27
ATOM     26  C   UNL     1      -0.019   1.526   0.010  0.00  0.00    +0.048 C 
ATOM     27  C   UNL     1       0.002  -0.004   0.002  0.00  0.00    +0.226 C 
ENDBRANCH  25  27
ENDBRANCH  15  25
ENDBRANCH   1  24
BRANCH   2  28
ATOM     28  C   UNL     1      -3.001  -0.310   1.877  0.00  0.00    +0.099 C 
ATOM     29  N   UNL     1      -2.162  -0.140   2.624  0.00  0.00    -0.191 NA
ENDBRANCH   2  28
TORSDOF 5
