REMARK  Name = ZINC00138169
REMARK  5 active torsions:
REMARK  status: ('A' for Active; 'I' for Inactive)
REMARK    1  A    between atoms: C_1  and  C_2
REMARK    2  A    between atoms: C_9  and  N_14
REMARK    3  A    between atoms: C_10  and  C_11
REMARK    4  A    between atoms: C_15  and  O_17
REMARK    5  A    between atoms: O_17  and  C_18
REMARK                            x       y       z     vdW  Elec       q    Type
REMARK                         _______ _______ _______ _____ _____    ______ ____
ROOT
ATOM      1  C   UNL     1      -0.310   1.447  -0.017  0.00  0.00    +0.008 C 
ATOM      2  C   UNL     1      -0.235  -0.081  -0.018  0.00  0.00    -0.009 C 
ATOM      3  C   UNL     1       0.532  -0.558   1.219  0.00  0.00    +0.008 C 
ATOM      4  C   UNL     1       0.402  -2.076   1.359  0.00  0.00    +0.037 C 
ATOM      5  C   UNL     1       0.800  -2.726   0.040  0.00  0.00    -0.023 A 
ATOM      6  C   UNL     1       0.833  -2.012  -1.105  0.00  0.00    -0.004 A 
ATOM      7  S   UNL     1       1.341  -3.168  -2.346  0.00  0.00    -0.077 S 
ATOM      8  C   UNL     1       1.507  -4.582  -1.358  0.00  0.00    +0.087 A 
ATOM      9  C   UNL     1       1.166  -4.126  -0.093  0.00  0.00    +0.068 A 
ATOM     10  C   UNL     1       0.507  -0.560  -1.274  0.00  0.00    +0.046 C 
ENDROOT
BRANCH   9  11
ATOM     11  C   UNL     1       1.175  -5.023   1.067  0.00  0.00    +0.244 C 
ATOM     12  O   UNL     1       0.171  -5.642   1.366  0.00  0.00    -0.270 OA
ATOM     13  N   UNL     1       2.296  -5.162   1.802  0.00  0.00    -0.325 N 
ATOM     14  H   UNL     1       3.097  -4.669   1.564  0.00  0.00    +0.145 HD
ATOM     15  H   UNL     1       2.302  -5.756   2.570  0.00  0.00    +0.145 HD
ENDBRANCH   9  11
BRANCH   8  16
ATOM     16  N   UNL     1       1.888  -5.860  -1.740  0.00  0.00    -0.244 N 
ATOM     17  C   UNL     1       2.185  -6.118  -3.029  0.00  0.00    +0.410 C 
ATOM     18  O   UNL     1       2.119  -5.231  -3.857  0.00  0.00    -0.226 OA
ATOM     19  H   UNL     1       1.941  -6.568  -1.079  0.00  0.00    +0.159 HD
BRANCH  17  20
ATOM     20  O   UNL     1       2.555  -7.359  -3.399  0.00  0.00    -0.411 OA
BRANCH  20  21
ATOM     21  C   UNL     1       2.740  -7.576  -4.728  0.00  0.00    +0.133 A 
ATOM     22  C   UNL     1       1.777  -8.251  -5.463  0.00  0.00    +0.046 A 
ATOM     23  C   UNL     1       1.965  -8.466  -6.815  0.00  0.00    +0.004 A 
ATOM     24  C   UNL     1       3.119  -8.019  -7.433  0.00  0.00    +0.000 A 
ATOM     25  C   UNL     1       4.083  -7.351  -6.701  0.00  0.00    +0.004 A 
ATOM     26  C   UNL     1       3.897  -7.128  -5.351  0.00  0.00    +0.046 A 
ENDBRANCH  20  21
ENDBRANCH  17  20
ENDBRANCH   8  16
TORSDOF 4
