REMARK  Name = ZINC62531305
REMARK  3 active torsions:
REMARK  status: ('A' for Active; 'I' for Inactive)
REMARK    1  A    between atoms: C_6  and  C_7
REMARK    2  A    between atoms: C_7  and  C_9
REMARK    3  A    between atoms: C_7  and  O_15
REMARK                            x       y       z     vdW  Elec       q    Type
REMARK                         _______ _______ _______ _____ _____    ______ ____
ROOT
ATOM      1  C   UNL     1      -0.017   1.379   0.010  0.00  0.00    +0.010 A 
ATOM      2  C   UNL     1       1.167   2.093   0.002  0.00  0.00    +0.049 A 
ATOM      3  C   UNL     1       2.378   1.421  -0.013  0.00  0.00    +0.157 A 
ATOM      4  C   UNL     1       2.396   0.026  -0.021  0.00  0.00    +0.088 A 
ATOM      5  C   UNL     1       1.206  -0.682  -0.014  0.00  0.00    +0.035 A 
ATOM      6  C   UNL     1       0.002  -0.004   0.002  0.00  0.00    -0.019 A 
ATOM      7  N   UNL     1       3.738  -0.355  -0.036  0.00  0.00    -0.288 N 
ATOM      8  H   UNL     1       4.076  -1.264  -0.044  0.00  0.00    +0.172 HD
ATOM      9  C   UNL     1       4.479   0.771  -0.037  0.00  0.00    +0.419 A 
ATOM     10  O   UNL     1       5.694   0.812  -0.048  0.00  0.00    -0.223 OA
ATOM     11  O   UNL     1       3.668   1.840  -0.023  0.00  0.00    -0.408 OA
ENDROOT
BRANCH   6  12
ATOM     12  C   UNL     1      -1.294  -0.773   0.010  0.00  0.00    +0.131 C 
BRANCH  12  13
ATOM     13  C   UNL     1      -1.810  -0.918  -1.423  0.00  0.00    -0.038 C 
ATOM     14  C   UNL     1      -3.235  -1.527  -1.424  0.00  0.00    -0.015 C 
ATOM     15  C   UNL     1      -3.792  -1.018  -2.779  0.00  0.00    -0.021 C 
ATOM     16  C   UNL     1      -3.169   0.388  -2.905  0.00  0.00    -0.082 C 
ATOM     17  N   UNL     1      -1.965   0.412  -2.050  0.00  0.00    +0.383 N 
ATOM     18  H   UNL     1      -2.072   1.115  -1.335  0.00  0.00    -0.085 HD
ATOM     19  H   UNL     1      -1.153   0.620  -2.611  0.00  0.00    -0.085 HD
ENDBRANCH  12  13
BRANCH  12  20
ATOM     20  O   UNL     1      -2.259  -0.071   0.796  0.00  0.00    -0.389 OA
ATOM     21  H   UNL     1      -2.458   0.818   0.473  0.00  0.00    +0.210 HD
ENDBRANCH  12  20
ENDBRANCH   6  12
TORSDOF 3
