REMARK  Name = ZINC46530385
REMARK  10 active torsions:
REMARK  status: ('A' for Active; 'I' for Inactive)
REMARK    1  A    between atoms: C_1  and  C_2
REMARK    2  A    between atoms: C_5  and  N_9
REMARK    3  A    between atoms: C_6  and  C_8
REMARK    4  A    between atoms: C_13  and  C_15
REMARK    5  A    between atoms: C_15  and  C_17
REMARK    6  A    between atoms: C_15  and  N_18
REMARK    7  A    between atoms: N_18  and  C_19
REMARK    8  A    between atoms: N_18  and  C_20
REMARK    9  A    between atoms: C_20  and  C_21
REMARK   10  A    between atoms: C_24  and  C_27
REMARK                            x       y       z     vdW  Elec       q    Type
REMARK                         _______ _______ _______ _____ _____    ______ ____
ROOT
ATOM      1  N   UNL     1      -0.811  -3.900  -0.478  0.00  0.00    -0.269 N 
ATOM      2  C   UNL     1      -0.420  -4.670  -1.512  0.00  0.00    +0.310 C 
ATOM      3  O   UNL     1       0.036  -4.156  -2.515  0.00  0.00    -0.252 OA
ATOM      4  N   UNL     1      -0.533  -6.011  -1.435  0.00  0.00    -0.241 N 
ATOM      5  C   UNL     1      -0.142  -6.781  -2.469  0.00  0.00    +0.207 C 
ATOM      6  O   UNL     1       0.312  -6.268  -3.470  0.00  0.00    -0.277 OA
ATOM      7  H   UNL     1      -1.118  -4.312   0.344  0.00  0.00    +0.156 HD
ATOM      8  H   UNL     1      -0.897  -6.421  -0.635  0.00  0.00    +0.159 HD
ENDROOT
BRANCH   1  13
ATOM      9  C   UNL     1      -0.660   1.753  -0.936  0.00  0.00    +0.044 C 
ATOM     10  C   UNL     1      -0.700   0.252  -0.814  0.00  0.00    -0.050 A 
ATOM     11  C   UNL     1       0.184  -0.524  -1.543  0.00  0.00    +0.005 A 
ATOM     12  C   UNL     1       0.150  -1.900  -1.434  0.00  0.00    +0.024 A 
ATOM     13  C   UNL     1      -0.773  -2.505  -0.591  0.00  0.00    +0.038 A 
ATOM     14  C   UNL     1      -1.659  -1.724   0.140  0.00  0.00    -0.029 A 
ATOM     15  C   UNL     1      -1.616  -0.348   0.030  0.00  0.00    +0.008 A 
ATOM     16  C   UNL     1      -2.661  -2.377   1.056  0.00  0.00    +0.045 C 
ENDBRANCH   1  13
BRANCH   5  17
ATOM     17  C   UNL     1      -0.270  -8.280  -2.383  0.00  0.00    +0.017 C 
ATOM     18  C   UNL     1       0.923  -8.850  -1.612  0.00  0.00    -0.004 C 
BRANCH  17  19
ATOM     19  N   UNL     1      -0.294  -8.848  -3.737  0.00  0.00    +0.388 N 
ATOM     20  C   UNL     1      -0.312 -10.315  -3.653  0.00  0.00    -0.095 C 
ATOM     21  H   UNL     1       0.527  -8.551  -4.242  0.00  0.00    -0.081 HD
BRANCH  19  22
ATOM     22  C   UNL     1      -1.497  -8.384  -4.441  0.00  0.00    -0.042 C 
BRANCH  22  23
ATOM     23  C   UNL     1      -1.474  -8.889  -5.861  0.00  0.00    -0.064 A 
ATOM     24  C   UNL     1      -0.875  -8.131  -6.852  0.00  0.00    +0.003 A 
ATOM     25  C   UNL     1      -0.851  -8.586  -8.154  0.00  0.00    +0.019 A 
ATOM     26  C   UNL     1      -1.431  -9.816  -8.470  0.00  0.00    +0.052 A 
ATOM     27  C   UNL     1      -2.034 -10.576  -7.466  0.00  0.00    +0.019 A 
ATOM     28  C   UNL     1      -2.047 -10.110  -6.167  0.00  0.00    +0.003 A 
BRANCH  26  29
ATOM     29  C   UNL     1      -1.410 -10.295  -9.820  0.00  0.00    +0.099 C 
ATOM     30  N   UNL     1      -1.393 -10.675 -10.890  0.00  0.00    -0.191 NA
ENDBRANCH  26  29
ENDBRANCH  22  23
ENDBRANCH  19  22
ENDBRANCH  17  19
ENDBRANCH   5  17
TORSDOF 6
