REMARK  Name = ZINC06413850
REMARK  2 active torsions:
REMARK  status: ('A' for Active; 'I' for Inactive)
REMARK    1  A    between atoms: C_2  and  C_11
REMARK    2  A    between atoms: N_12  and  N_13
REMARK                            x       y       z     vdW  Elec       q    Type
REMARK                         _______ _______ _______ _____ _____    ______ ____
ROOT
ATOM      1  N   UNL     1      -0.011   0.966   0.007  0.00  0.00    -0.207 N 
ATOM      2  C   UNL     1      -1.216   1.640   0.017  0.00  0.00    +0.215 A 
ATOM      3  N   UNL     1      -2.451   1.050   0.019  0.00  0.00    -0.309 N 
ATOM      4  H   UNL     1      -2.637   0.067   0.015  0.00  0.00    +0.170 HD
ATOM      5  C   UNL     1      -3.386   2.053   0.029  0.00  0.00    +0.166 A 
ATOM      6  C   UNL     1      -2.672   3.254   0.032  0.00  0.00    +0.174 A 
ATOM      7  N   UNL     1      -1.353   2.943   0.030  0.00  0.00    -0.206 NA
ATOM      8  C   UNL     1      -3.399   4.470   0.043  0.00  0.00    +0.279 A 
ATOM      9  O   UNL     1      -2.821   5.545   0.046  0.00  0.00    -0.265 OA
ATOM     10  N   UNL     1      -4.749   4.408   0.049  0.00  0.00    -0.312 N 
ATOM     11  H   UNL     1      -5.269   5.227   0.057  0.00  0.00    +0.170 HD
ATOM     12  C   UNL     1      -5.380   3.207   0.045  0.00  0.00    +0.201 A 
ATOM     13  N   UNL     1      -4.726   2.079   0.036  0.00  0.00    -0.218 NA
ATOM     14  H   UNL     1       0.002  -0.004   0.002  0.00  0.00    +0.177 HD
ENDROOT
BRANCH   1  16
ATOM     15  C   UNL     1       2.326   1.049  -0.015  0.00  0.00    +0.139 C 
ATOM     16  N   UNL     1       1.193   1.683  -0.000  0.00  0.00    -0.188 NA
BRANCH  15  18
ATOM     17  C   UNL     1       4.813   1.123  -0.038  0.00  0.00    +0.060 A 
ATOM     18  C   UNL     1       3.592   1.803  -0.023  0.00  0.00    +0.012 A 
ATOM     19  C   UNL     1       3.575   3.201  -0.021  0.00  0.00    +0.030 A 
ATOM     20  C   UNL     1       4.763   3.904  -0.022  0.00  0.00    +0.065 A 
ATOM     21  C   UNL     1       5.974   3.229  -0.038  0.00  0.00    +0.167 A 
ATOM     22  C   UNL     1       5.998   1.834  -0.045  0.00  0.00    +0.167 A 
ATOM     23  O   UNL     1       7.299   1.421  -0.060  0.00  0.00    -0.453 OA
ATOM     24  C   UNL     1       8.070   2.564   0.352  0.00  0.00    +0.466 C 
ATOM     25  O   UNL     1       7.261   3.686  -0.048  0.00  0.00    -0.453 OA
ATOM     26 BR   UNL     1       1.927   4.127  -0.008  0.00  0.00    -0.050 Br
ENDBRANCH  15  18
ENDBRANCH   1  16
TORSDOF 2
