REMARK  Name = ZINC62198929
REMARK  9 active torsions:
REMARK  status: ('A' for Active; 'I' for Inactive)
REMARK    1  A    between atoms: C_1  and  C_2
REMARK    2  A    between atoms: C_5  and  N_9
REMARK    3  A    between atoms: C_6  and  C_8
REMARK    4  A    between atoms: C_10  and  C_18
REMARK    5  A    between atoms: C_13  and  C_16
REMARK    6  A    between atoms: C_16  and  N_17
REMARK    7  A    between atoms: C_18  and  C_19
REMARK    8  A    between atoms: C_18  and  C_20
REMARK    9  A    between atoms: C_18  and  C_21
REMARK                            x       y       z     vdW  Elec       q    Type
REMARK                         _______ _______ _______ _____ _____    ______ ____
ROOT
ATOM      1  N   UNL     1      -0.089  -4.944  -0.043  0.00  0.00    -0.280 N 
ATOM      2  C   UNL     1      -1.417  -5.226   0.016  0.00  0.00    +0.033 A 
ATOM      3  C   UNL     1      -1.858  -6.502  -0.085  0.00  0.00    +0.023 A 
ATOM      4  C   UNL     1      -0.939  -7.548  -0.253  0.00  0.00    +0.009 A 
ATOM      5  C   UNL     1       0.394  -7.263  -0.312  0.00  0.00    +0.000 A 
ATOM      6  C   UNL     1       0.816  -5.927  -0.210  0.00  0.00    +0.257 A 
ATOM      7  O   UNL     1       2.006  -5.658  -0.266  0.00  0.00    -0.267 OA
ENDROOT
BRANCH   1  12
ATOM      8  C   UNL     1       1.657   0.437   0.391  0.00  0.00    +0.044 C 
ATOM      9  C   UNL     1       1.193  -0.992   0.275  0.00  0.00    -0.050 A 
ATOM     10  C   UNL     1       0.857  -1.511  -0.962  0.00  0.00    +0.005 A 
ATOM     11  C   UNL     1       0.432  -2.820  -1.071  0.00  0.00    +0.027 A 
ATOM     12  C   UNL     1       0.342  -3.616   0.064  0.00  0.00    +0.053 A 
ATOM     13  C   UNL     1       0.680  -3.093   1.304  0.00  0.00    -0.026 A 
ATOM     14  C   UNL     1       1.110  -1.784   1.406  0.00  0.00    +0.008 A 
ATOM     15  C   UNL     1       0.584  -3.953   2.538  0.00  0.00    +0.046 C 
ENDBRANCH   1  12
BRANCH   2  16
ATOM     16  C   UNL     1      -2.410  -4.107   0.197  0.00  0.00    +0.003 C 
ATOM     17  C   UNL     1      -3.813  -4.693   0.371  0.00  0.00    +0.017 C 
ATOM     18  C   UNL     1      -2.040  -3.293   1.438  0.00  0.00    +0.017 C 
ATOM     19  C   UNL     1      -2.386  -3.200  -1.034  0.00  0.00    +0.017 C 
ENDBRANCH   2  16
BRANCH   5  20
ATOM     20  C   UNL     1       1.401  -8.368  -0.492  0.00  0.00    -0.045 C 
BRANCH  20  21
ATOM     21  N   UNL     1       1.727  -8.507  -1.918  0.00  0.00    +0.381 N 
ATOM     22  H   UNL     1       0.889  -8.728  -2.435  0.00  0.00    -0.090 HD
ATOM     23  H   UNL     1       2.114  -7.640  -2.260  0.00  0.00    -0.090 HD
ATOM     24  H   UNL     1       2.402  -9.247  -2.039  0.00  0.00    -0.090 HD
ENDBRANCH  20  21
ENDBRANCH   5  20
TORSDOF 4
