REMARK  Name = ZINC39521597
REMARK  6 active torsions:
REMARK  status: ('A' for Active; 'I' for Inactive)
REMARK    1  A    between atoms: C_4  and  O_7
REMARK    2  A    between atoms: O_7  and  S_8
REMARK    3  A    between atoms: S_8  and  C_11
REMARK    4  A    between atoms: N_17  and  C_18
REMARK    5  A    between atoms: C_23  and  O_24
REMARK    6  A    between atoms: C_28  and  O_31
REMARK                            x       y       z     vdW  Elec       q    Type
REMARK                         _______ _______ _______ _____ _____    ______ ____
ROOT
ATOM      1  C   UNL     1       3.405  -2.578   1.848  0.00  0.00    +0.258 C 
ATOM      2  C   UNL     1       3.480  -3.972   1.217  0.00  0.00    +0.050 C 
ATOM      3  C   UNL     1       2.462  -4.891   1.896  0.00  0.00    +0.006 C 
ATOM      4  C   UNL     1       2.798  -5.015   3.385  0.00  0.00    +0.026 C 
ATOM      5  C   UNL     1       2.718  -3.634   4.039  0.00  0.00    +0.039 C 
ATOM      6  N   UNL     1       3.582  -2.703   3.301  0.00  0.00    -0.297 N 
ATOM      7  C   UNL     1       3.188  -3.725   5.491  0.00  0.00    +0.026 C 
ATOM      8  C   UNL     1       3.112  -2.341   6.139  0.00  0.00    +0.005 C 
ATOM      9  C   UNL     1       1.668  -1.837   6.098  0.00  0.00    +0.031 C 
ATOM     10  C   UNL     1       1.201  -1.744   4.644  0.00  0.00    +0.117 C 
ATOM     11  C   UNL     1       1.276  -3.128   3.996  0.00  0.00    +0.057 C 
ENDROOT
BRANCH   6  12
ATOM     12  C   UNL     1       4.557  -1.953   3.968  0.00  0.00    +0.074 A 
ATOM     13  C   UNL     1       4.374  -0.592   4.166  0.00  0.00    +0.027 A 
ATOM     14  C   UNL     1       5.338   0.146   4.825  0.00  0.00    +0.002 A 
ATOM     15  C   UNL     1       6.487  -0.468   5.290  0.00  0.00    +0.004 A 
ATOM     16  C   UNL     1       6.676  -1.824   5.097  0.00  0.00    +0.047 A 
ATOM     17  C   UNL     1       5.712  -2.572   4.441  0.00  0.00    +0.138 A 
BRANCH  17  18
ATOM     18  O   UNL     1       5.895  -3.907   4.255  0.00  0.00    -0.505 OA
ATOM     19  H   UNL     1       6.350  -4.130   3.432  0.00  0.00    +0.292 HD
ENDBRANCH  17  18
ENDBRANCH   6  12
BRANCH   1  20
ATOM     20  S   UNL     1       4.718  -1.529   1.163  0.00  0.00    +0.140 S 
ATOM     21  O   UNL     1       5.975  -2.183   1.276  0.00  0.00    -0.135 OA
ATOM     22  O   UNL     1       4.556  -0.189   1.608  0.00  0.00    -0.135 OA
BRANCH  20  23
ATOM     23  O   UNL     1       4.439  -1.479  -0.332  0.00  0.00    -0.345 OA
BRANCH  23  27
ATOM     24  C   UNL     1       1.261   0.941  -1.366  0.00  0.00    +0.000 A 
ATOM     25  C   UNL     1       2.537   1.468  -1.300  0.00  0.00    +0.004 A 
ATOM     26  C   UNL     1       3.603   0.660  -0.954  0.00  0.00    +0.048 A 
ATOM     27  C   UNL     1       3.392  -0.682  -0.672  0.00  0.00    +0.156 A 
ATOM     28  C   UNL     1       2.110  -1.209  -0.739  0.00  0.00    +0.048 A 
ATOM     29  C   UNL     1       1.048  -0.397  -1.085  0.00  0.00    +0.004 A 
ENDBRANCH  23  27
ENDBRANCH  20  23
ENDBRANCH   1  20
BRANCH  10  30
ATOM     30  O   UNL     1      -0.147  -1.273   4.607  0.00  0.00    -0.392 OA
ATOM     31  H   UNL     1      -0.270  -0.399   5.002  0.00  0.00    +0.210 HD
ENDBRANCH  10  30
TORSDOF 6
