REMARK  Name = ZINC55135441
REMARK  10 active torsions:
REMARK  status: ('A' for Active; 'I' for Inactive)
REMARK    1  A    between atoms: C_1  and  C_2
REMARK    2  A    between atoms: C_2  and  C_3
REMARK    3  A    between atoms: C_3  and  C_5
REMARK    4  A    between atoms: C_3  and  N_6
REMARK    5  A    between atoms: C_7  and  C_9
REMARK    6  A    between atoms: C_9  and  C_10
REMARK    7  A    between atoms: C_10  and  N_11
REMARK    8  A    between atoms: C_12  and  C_14
REMARK    9  A    between atoms: C_19  and  C_24
REMARK   10  A    between atoms: C_21  and  N_23
REMARK                            x       y       z     vdW  Elec       q    Type
REMARK                         _______ _______ _______ _____ _____    ______ ____
ROOT
ATOM      1  N   UNL     1       6.285   1.624  -4.828  0.00  0.00    -0.315 N 
ATOM      2  C   UNL     1       7.264   1.583  -5.753  0.00  0.00    +0.215 C 
ATOM      3  O   UNL     1       6.989   1.399  -6.919  0.00  0.00    -0.276 OA
ATOM      4  H   UNL     1       6.508   1.710  -3.888  0.00  0.00    +0.149 HD
ENDROOT
BRANCH   2   5
ATOM      5  C   UNL     1       8.701   1.768  -5.337  0.00  0.00    +0.061 C 
ATOM      6  C   UNL     1       9.598   1.741  -6.576  0.00  0.00    +0.011 C 
ATOM      7  C   UNL     1       9.442   0.396  -7.289  0.00  0.00    +0.001 C 
ATOM      8  C   UNL     1       9.848  -0.734  -6.341  0.00  0.00    +0.002 C 
ATOM      9  C   UNL     1       8.951  -0.707  -5.102  0.00  0.00    -0.028 C 
ATOM     10  C   UNL     1       9.107   0.638  -4.389  0.00  0.00    -0.060 C 
ATOM     11  C   UNL     1       7.492  -0.894  -5.524  0.00  0.00    +0.006 C 
BRANCH  10  12
ATOM     12  N   UNL     1       8.245   0.664  -3.199  0.00  0.00    +0.381 N 
ATOM     13  H   UNL     1       7.311   0.382  -3.454  0.00  0.00    -0.090 HD
ATOM     14  H   UNL     1       8.611   0.028  -2.505  0.00  0.00    -0.090 HD
ATOM     15  H   UNL     1       8.223   1.599  -2.820  0.00  0.00    -0.090 HD
ENDBRANCH  10  12
ENDBRANCH   2   5
BRANCH   1  16
ATOM     16  C   UNL     1       4.882   1.538  -5.242  0.00  0.00    +0.113 C 
BRANCH  16  17
ATOM     17  C   UNL     1       3.980   1.607  -4.008  0.00  0.00    +0.114 C 
BRANCH  17  19
ATOM     18  N   UNL     1       1.558   1.558  -3.510  0.00  0.00    -0.313 N 
ATOM     19  C   UNL     1       2.538   1.518  -4.434  0.00  0.00    +0.215 C 
ATOM     20  O   UNL     1       2.258   1.410  -5.609  0.00  0.00    -0.276 OA
ATOM     21  H   UNL     1       1.782   1.644  -2.570  0.00  0.00    +0.149 HD
BRANCH  18  22
ATOM     22  C   UNL     1       0.155   1.472  -3.924  0.00  0.00    +0.070 C 
ATOM     23  C   UNL     1      -0.244   0.002  -4.069  0.00  0.00    +0.028 C 
BRANCH  22  25
ATOM     24  C   UNL     1      -0.416   3.635  -2.812  0.00  0.00    +0.005 C 
ATOM     25  C   UNL     1      -0.730   2.138  -2.869  0.00  0.00    +0.018 C 
ENDBRANCH  22  25
ENDBRANCH  18  22
ENDBRANCH  17  19
ENDBRANCH  16  17
ENDBRANCH   1  16
TORSDOF 7
