REMARK  Name = ZINC13464129
REMARK  8 active torsions:
REMARK  status: ('A' for Active; 'I' for Inactive)
REMARK    1  A    between atoms: C_1  and  O_2
REMARK    2  A    between atoms: O_2  and  C_3
REMARK    3  A    between atoms: C_3  and  C_5
REMARK    4  A    between atoms: C_10  and  S_11
REMARK    5  A    between atoms: S_11  and  N_14
REMARK    6  A    between atoms: N_14  and  C_15
REMARK    7  A    between atoms: C_18  and  O_23
REMARK    8  A    between atoms: C_19  and  C_21
REMARK                            x       y       z     vdW  Elec       q    Type
REMARK                         _______ _______ _______ _____ _____    ______ ____
ROOT
ATOM      1  S   UNL     1      -4.884   0.048   1.501  0.00  0.00    +0.073 S 
ATOM      2  O   UNL     1      -4.079  -1.031   1.046  0.00  0.00    -0.150 OA
ATOM      3  O   UNL     1      -6.221  -0.135   1.948  0.00  0.00    -0.150 OA
ENDROOT
BRANCH   1   9
ATOM      4  C   UNL     1      -4.493   1.980   3.406  0.00  0.00    +0.087 A 
ATOM      5  C   UNL     1      -3.796   2.572   4.462  0.00  0.00    +0.032 A 
ATOM      6  C   UNL     1      -2.631   1.995   4.923  0.00  0.00    +0.019 A 
ATOM      7  C   UNL     1      -2.153   0.833   4.342  0.00  0.00    +0.017 A 
ATOM      8  C   UNL     1      -2.839   0.242   3.296  0.00  0.00    +0.031 A 
ATOM      9  C   UNL     1      -4.008   0.806   2.829  0.00  0.00    +0.122 A 
ATOM     10 BR   UNL     1      -1.684   2.794   6.352  0.00  0.00    -0.050 Br
BRANCH   4  11
ATOM     11  C   UNL     1      -5.742   2.592   2.907  0.00  0.00    +0.341 C 
ATOM     12  O   UNL     1      -6.381   2.041   2.033  0.00  0.00    -0.245 OA
BRANCH  11  14
ATOM     13  C   UNL     1      -7.463   4.246   2.965  0.00  0.00    +0.280 C 
ATOM     14  O   UNL     1      -6.172   3.760   3.421  0.00  0.00    -0.464 OA
ENDBRANCH  11  14
ENDBRANCH   4  11
ENDBRANCH   1   9
BRANCH   1  15
ATOM     15  N   UNL     1      -4.945   1.147   0.264  0.00  0.00    -0.216 N 
ATOM     16  H   UNL     1      -5.795   1.530  -0.004  0.00  0.00    +0.174 HD
BRANCH  15  17
ATOM     17  C   UNL     1      -3.769   1.525  -0.395  0.00  0.00    +0.049 A 
ATOM     18  C   UNL     1      -2.637   1.857   0.342  0.00  0.00    +0.028 A 
ATOM     19  C   UNL     1      -1.472   2.226  -0.300  0.00  0.00    +0.048 A 
ATOM     20  C   UNL     1      -1.425   2.279  -1.685  0.00  0.00    +0.131 A 
ATOM     21  C   UNL     1      -2.563   1.951  -2.434  0.00  0.00    +0.106 A 
ATOM     22  C   UNL     1      -3.738   1.573  -1.778  0.00  0.00    +0.043 A 
BRANCH  21  23
ATOM     23  C   UNL     1      -2.521   2.004  -3.906  0.00  0.00    +0.390 C 
ATOM     24  O   UNL     1      -1.498   2.333  -4.473  0.00  0.00    -0.240 OA
ATOM     25  O   UNL     1      -3.617   1.687  -4.623  0.00  0.00    -0.240 OA
ENDBRANCH  21  23
BRANCH  20  26
ATOM     26  O   UNL     1      -0.280   2.647  -2.313  0.00  0.00    -0.506 OA
ATOM     27  H   UNL     1      -0.207   3.598  -2.472  0.00  0.00    +0.292 HD
ENDBRANCH  20  26
ENDBRANCH  15  17
ENDBRANCH   1  15
TORSDOF 7
