REMARK  Name = ZINC54539722
REMARK  9 active torsions:
REMARK  status: ('A' for Active; 'I' for Inactive)
REMARK    1  A    between atoms: C_1  and  O_2
REMARK    2  A    between atoms: O_2  and  C_3
REMARK    3  A    between atoms: C_7  and  C_10
REMARK    4  A    between atoms: C_8  and  O_9
REMARK    5  A    between atoms: N_12  and  N_13
REMARK    6  A    between atoms: N_16  and  C_17
REMARK    7  A    between atoms: C_17  and  C_18
REMARK    8  A    between atoms: C_18  and  C_19
REMARK    9  A    between atoms: C_19  and  N_20
REMARK                            x       y       z     vdW  Elec       q    Type
REMARK                         _______ _______ _______ _____ _____    ______ ____
ROOT
ATOM      1  N   UNL     1      -3.833  -6.164   0.025  0.00  0.00    -0.218 N 
ATOM      2  C   UNL     1      -5.031  -6.782   0.034  0.00  0.00    +0.316 C 
ATOM      3  O   UNL     1      -5.089  -7.996   0.034  0.00  0.00    -0.251 OA
ATOM      4  N   UNL     1      -6.165  -6.053   0.043  0.00  0.00    -0.298 N 
ATOM      5  H   UNL     1      -3.017  -6.689   0.019  0.00  0.00    +0.174 HD
ATOM      6  H   UNL     1      -6.118  -5.084   0.043  0.00  0.00    +0.150 HD
ENDROOT
BRANCH   1   9
ATOM      7  C   UNL     1      -2.568  -4.147   0.017  0.00  0.00    +0.264 C 
ATOM      8  O   UNL     1      -1.545  -4.805   0.009  0.00  0.00    -0.269 OA
ATOM      9  N   UNL     1      -3.766  -4.765   0.026  0.00  0.00    -0.229 N 
ATOM     10  H   UNL     1      -4.582  -4.240   0.032  0.00  0.00    +0.173 HD
BRANCH   7  15
ATOM     11  C   UNL     1      -1.201  -0.638   0.010  0.00  0.00    +0.162 A 
ATOM     12  C   UNL     1      -2.373   0.100   0.019  0.00  0.00    +0.049 A 
ATOM     13  C   UNL     1      -3.602  -0.538   0.027  0.00  0.00    +0.005 A 
ATOM     14  C   UNL     1      -3.671  -1.914   0.026  0.00  0.00    +0.017 A 
ATOM     15  C   UNL     1      -2.498  -2.673   0.017  0.00  0.00    +0.083 A 
ATOM     16  C   UNL     1      -1.255  -2.028   0.003  0.00  0.00    +0.171 A 
BRANCH  11  18
ATOM     17  C   UNL     1      -0.017   1.425   0.010  0.00  0.00    +0.277 C 
ATOM     18  O   UNL     1       0.002  -0.004   0.002  0.00  0.00    -0.491 OA
ENDBRANCH  11  18
BRANCH  16  19
ATOM     19  O   UNL     1      -0.109  -2.756  -0.012  0.00  0.00    -0.503 OA
ATOM     20  H   UNL     1       0.231  -2.971   0.867  0.00  0.00    +0.292 HD
ENDBRANCH  16  19
ENDBRANCH   7  15
ENDBRANCH   1   9
BRANCH   4  21
ATOM     21  C   UNL     1      -7.467  -6.724   0.052  0.00  0.00    +0.107 C 
BRANCH  21  22
ATOM     22  C   UNL     1      -8.581  -5.676   0.060  0.00  0.00    +0.040 C 
BRANCH  22  23
ATOM     23  C   UNL     1      -9.941  -6.377   0.070  0.00  0.00    +0.124 C 
BRANCH  23  24
ATOM     24  N   UNL     1     -11.008  -5.372   0.078  0.00  0.00    -0.338 N 
ATOM     25  C   UNL     1     -11.587  -4.812   1.185  0.00  0.00    +0.104 A 
ATOM     26  C   UNL     1     -12.515  -3.943   0.741  0.00  0.00    +0.101 A 
ATOM     27  N   UNL     1     -12.503  -3.973  -0.600  0.00  0.00    -0.352 N 
ATOM     28  C   UNL     1     -11.599  -4.823  -1.004  0.00  0.00    +0.173 A 
ATOM     29  H   UNL     1     -13.074  -3.443  -1.179  0.00  0.00    +0.166 HD
ENDBRANCH  23  24
ENDBRANCH  22  23
ENDBRANCH  21  22
ENDBRANCH   4  21
TORSDOF 8
