REMARK  Name = ZINC18195264
REMARK  6 active torsions:
REMARK  status: ('A' for Active; 'I' for Inactive)
REMARK    1  A    between atoms: C_1  and  C_2
REMARK    2  A    between atoms: C_5  and  C_8
REMARK    3  A    between atoms: C_8  and  C_10
REMARK    4  A    between atoms: C_10  and  C_11
REMARK    5  A    between atoms: N_17  and  C_18
REMARK    6  A    between atoms: C_18  and  C_20
REMARK                            x       y       z     vdW  Elec       q    Type
REMARK                         _______ _______ _______ _____ _____    ______ ____
ROOT
ATOM      1  C   UNL     1       0.093  -6.508   0.992  0.00  0.00    +0.147 C 
ATOM      2  C   UNL     1       0.136  -7.317   2.280  0.00  0.00    +0.232 C 
ATOM      3  O   UNL     1       1.050  -7.258   3.075  0.00  0.00    -0.274 OA
ATOM      4  N   UNL     1      -0.927  -8.092   2.446  0.00  0.00    -0.266 N 
ATOM      5  C   UNL     1      -1.945  -8.143   1.538  0.00  0.00    +0.153 C 
ATOM      6  N   UNL     1      -3.044  -8.881   1.610  0.00  0.00    -0.159 NA
ATOM      7  S   UNL     1      -1.517  -7.076   0.308  0.00  0.00    -0.079 S 
ATOM      8  H   UNL     1      -0.983  -8.644   3.242  0.00  0.00    +0.157 HD
ENDROOT
BRANCH   6   9
ATOM      9  C   UNL     1      -3.952  -8.819   0.637  0.00  0.00    +0.235 C 
ATOM     10  O   UNL     1      -3.773  -8.087  -0.316  0.00  0.00    -0.274 OA
ATOM     11  C   UNL     1      -5.202  -9.658   0.719  0.00  0.00    +0.111 C 
ENDBRANCH   6   9
BRANCH   1  12
ATOM     12  C   UNL     1       0.075  -5.006   1.280  0.00  0.00    +0.103 C 
BRANCH  12  13
ATOM     13  C   UNL     1       0.058  -4.245  -0.021  0.00  0.00    +0.165 C 
ATOM     14  O   UNL     1       0.060  -4.846  -1.075  0.00  0.00    -0.292 OA
BRANCH  13  19
ATOM     15  C   UNL     1      -0.018   1.503   0.010  0.00  0.00    +0.044 C 
ATOM     16  C   UNL     1       0.002  -0.004   0.002  0.00  0.00    -0.050 A 
ATOM     17  C   UNL     1       0.006  -0.686  -1.202  0.00  0.00    +0.004 A 
ATOM     18  C   UNL     1       0.024  -2.064  -1.218  0.00  0.00    +0.011 A 
ATOM     19  C   UNL     1       0.039  -2.774  -0.013  0.00  0.00    +0.017 A 
ATOM     20  C   UNL     1       0.036  -2.078   1.200  0.00  0.00    +0.011 A 
ATOM     21  C   UNL     1       0.023  -0.699   1.199  0.00  0.00    +0.004 A 
ENDBRANCH  13  19
ENDBRANCH  12  13
ENDBRANCH   1  12
TORSDOF 4
