REMARK  Name = ZINC67297880
REMARK  11 active torsions:
REMARK  status: ('A' for Active; 'I' for Inactive)
REMARK    1  A    between atoms: C_1  and  C_2
REMARK    2  A    between atoms: C_2  and  C_3
REMARK    3  A    between atoms: C_2  and  O_4
REMARK    4  A    between atoms: O_4  and  C_5
REMARK    5  A    between atoms: C_10  and  N_11
REMARK    6  A    between atoms: N_14  and  C_15
REMARK    7  A    between atoms: C_15  and  C_16
REMARK    8  A    between atoms: C_16  and  C_18
REMARK    9  A    between atoms: C_16  and  N_23
REMARK   10  A    between atoms: N_23  and  C_24
REMARK   11  A    between atoms: N_23  and  C_25
REMARK                            x       y       z     vdW  Elec       q    Type
REMARK                         _______ _______ _______ _____ _____    ______ ____
ROOT
ATOM      1  N   UNL     1      -3.968  -1.313  -0.419  0.00  0.00    -0.266 N 
ATOM      2  C   UNL     1      -5.191  -1.871  -0.329  0.00  0.00    +0.304 C 
ATOM      3  O   UNL     1      -5.415  -2.936  -0.871  0.00  0.00    -0.253 OA
ATOM      4  N   UNL     1      -6.168  -1.248   0.360  0.00  0.00    -0.300 N 
ATOM      5  H   UNL     1      -3.809  -0.431  -0.048  0.00  0.00    +0.156 HD
ATOM      6  H   UNL     1      -5.989  -0.398   0.793  0.00  0.00    +0.150 HD
ENDROOT
BRANCH   1  12
ATOM      7  C   UNL     1      -1.617  -1.861  -0.594  0.00  0.00    +0.142 A 
ATOM      8  C   UNL     1      -0.590  -2.554  -1.215  0.00  0.00    +0.050 A 
ATOM      9  C   UNL     1      -0.864  -3.383  -2.287  0.00  0.00    +0.042 A 
ATOM     10  C   UNL     1      -2.163  -3.524  -2.743  0.00  0.00    +0.125 A 
ATOM     11  C   UNL     1      -3.194  -2.835  -2.127  0.00  0.00    +0.065 A 
ATOM     12  C   UNL     1      -2.925  -2.007  -1.048  0.00  0.00    +0.080 A 
ATOM     13  F   UNL     1      -2.426  -4.335  -3.791  0.00  0.00    -0.205 F 
BRANCH   7  14
ATOM     14  O   UNL     1      -1.348  -1.045   0.461  0.00  0.00    -0.488 OA
BRANCH  14  16
ATOM     15  C   UNL     1       0.229   0.550   1.359  0.00  0.00    +0.051 C 
ATOM     16  C   UNL     1       0.027  -0.862   0.805  0.00  0.00    +0.167 C 
ATOM     17  C   UNL     1       0.429  -1.889   1.865  0.00  0.00    +0.051 C 
ENDBRANCH  14  16
ENDBRANCH   7  14
ENDBRANCH   1  12
BRANCH   4  18
ATOM     18  C   UNL     1      -7.497  -1.855   0.458  0.00  0.00    +0.098 C 
BRANCH  18  19
ATOM     19  C   UNL     1      -8.444  -0.895   1.182  0.00  0.00    +0.016 C 
BRANCH  19  20
ATOM     20  C   UNL     1      -7.993  -0.727   2.610  0.00  0.00    +0.093 A 
ATOM     21  C   UNL     1      -8.515  -1.354   3.679  0.00  0.00    +0.043 A 
ATOM     22  C   UNL     1      -7.796  -0.903   4.810  0.00  0.00    +0.041 A 
ATOM     23  C   UNL     1      -6.878  -0.028   4.364  0.00  0.00    +0.195 A 
ATOM     24  O   UNL     1      -6.997   0.071   3.030  0.00  0.00    -0.469 OA
ENDBRANCH  19  20
BRANCH  19  25
ATOM     25  N   UNL     1      -8.430   0.409   0.506  0.00  0.00    +0.384 N 
ATOM     26  C   UNL     1      -8.972   0.264  -0.851  0.00  0.00    -0.096 C 
ATOM     27  C   UNL     1      -9.253   1.361   1.263  0.00  0.00    -0.096 C 
ATOM     28  H   UNL     1      -7.482   0.751   0.455  0.00  0.00    -0.082 HD
ENDBRANCH  19  25
ENDBRANCH  18  19
ENDBRANCH   4  18
TORSDOF 7
