REMARK  Name = ZINC53619078
REMARK  4 active torsions:
REMARK  status: ('A' for Active; 'I' for Inactive)
REMARK    1  A    between atoms: C_1  and  C_2
REMARK    2  A    between atoms: C_2  and  C_3
REMARK    3  A    between atoms: C_8  and  O_9
REMARK    4  A    between atoms: C_12  and  C_16
REMARK                            x       y       z     vdW  Elec       q    Type
REMARK                         _______ _______ _______ _____ _____    ______ ____
ROOT
ATOM      1  C   UNL     1      -1.412  -0.526   0.013  0.00  0.00    -0.005 A 
ATOM      2  C   UNL     1      -1.988  -0.953  -1.150  0.00  0.00    +0.022 A 
ATOM      3  C   UNL     1      -3.299  -1.438  -1.138  0.00  0.00    +0.060 A 
ATOM      4  C   UNL     1      -4.025  -1.491   0.066  0.00  0.00    +0.134 A 
ATOM      5  C   UNL     1      -3.427  -1.050   1.235  0.00  0.00    +0.092 A 
ATOM      6  C   UNL     1      -2.123  -0.575   1.208  0.00  0.00    +0.124 A 
ATOM      7  O   UNL     1      -5.290  -1.971   0.091  0.00  0.00    -0.490 OA
ATOM      8  C   UNL     1      -6.049  -1.968  -1.117  0.00  0.00    +0.246 C 
ATOM      9  C   UNL     1      -5.244  -2.661  -2.226  0.00  0.00    +0.148 C 
ATOM     10  C   UNL     1      -3.941  -1.897  -2.379  0.00  0.00    +0.179 C 
ATOM     11  O   UNL     1      -3.455  -1.676  -3.468  0.00  0.00    -0.291 OA
ENDROOT
BRANCH   9  12
ATOM     12  C   UNL     1      -4.960  -4.090  -1.838  0.00  0.00    +0.073 A 
ATOM     13  H   UNL     1      -3.460  -6.467  -0.485  0.00  0.00    +0.166 HD
ATOM     14  C   UNL     1      -3.933  -4.514  -1.076  0.00  0.00    +0.108 A 
ATOM     15  N   UNL     1      -4.052  -5.873  -0.972  0.00  0.00    -0.351 N 
ATOM     16  C   UNL     1      -5.148  -6.233  -1.675  0.00  0.00    +0.196 A 
ATOM     17  N   UNL     1      -5.689  -5.161  -2.185  0.00  0.00    -0.240 NA
ENDBRANCH   9  12
BRANCH   1  19
ATOM     18  C   UNL     1      -0.019   1.526   0.010  0.00  0.00    +0.009 C 
ATOM     19  C   UNL     1       0.002  -0.004   0.002  0.00  0.00    +0.035 C 
ENDBRANCH   1  19
BRANCH   6  20
ATOM     20  O   UNL     1      -1.539  -0.150   2.357  0.00  0.00    -0.506 OA
ATOM     21  H   UNL     1      -1.674   0.789   2.542  0.00  0.00    +0.292 HD
ENDBRANCH   6  20
TORSDOF 3
