REMARK  Name = ZINC54762744
REMARK  4 active torsions:
REMARK  status: ('A' for Active; 'I' for Inactive)
REMARK    1  A    between atoms: C_1  and  N_2
REMARK    2  A    between atoms: N_2  and  C_3
REMARK    3  A    between atoms: C_3  and  C_4
REMARK    4  A    between atoms: N_8  and  C_9
REMARK                            x       y       z     vdW  Elec       q    Type
REMARK                         _______ _______ _______ _____ _____    ______ ____
ROOT
ATOM      1  C   UNL     1       0.714  -1.985  -1.224  0.00  0.00    +0.140 A 
ATOM      2  N   UNL     1       1.679  -2.749  -0.783  0.00  0.00    -0.115 NA
ATOM      3  N   UNL     1       1.375  -3.989  -0.925  0.00  0.00    -0.023 NA
ATOM      4  N   UNL     1       0.207  -4.103  -1.461  0.00  0.00    -0.039 NA
ATOM      5  N   UNL     1      -0.269  -2.796  -1.670  0.00  0.00    -0.198 N 
ENDROOT
BRANCH   5   6
ATOM      6  C   UNL     1      -1.500  -2.417  -2.225  0.00  0.00    +0.083 A 
ATOM      7  C   UNL     1      -1.542  -1.480  -3.248  0.00  0.00    +0.030 A 
ATOM      8  C   UNL     1      -2.756  -1.109  -3.794  0.00  0.00    +0.017 A 
ATOM      9  C   UNL     1      -3.929  -1.669  -3.321  0.00  0.00    +0.019 A 
ATOM     10  C   UNL     1      -3.891  -2.603  -2.301  0.00  0.00    +0.032 A 
ATOM     11  C   UNL     1      -2.679  -2.983  -1.756  0.00  0.00    +0.044 A 
ATOM     12 BR   UNL     1      -2.626  -4.266  -0.368  0.00  0.00    -0.048 Br
ATOM     13 BR   UNL     1      -5.589  -1.157  -4.069  0.00  0.00    -0.050 Br
ENDBRANCH   5   6
BRANCH   1  14
ATOM     14  C   UNL     1       0.699  -0.478  -1.227  0.00  0.00    -0.003 C 
BRANCH  14  16
ATOM     15  C   UNL     1      -0.002   1.477  -0.026  0.00  0.00    -0.100 C 
ATOM     16  N   UNL     1       0.013   0.008  -0.022  0.00  0.00    +0.382 N 
ATOM     17  H   UNL     1       0.499  -0.322   0.798  0.00  0.00    -0.086 HD
ATOM     18  H   UNL     1      -0.935  -0.338  -0.013  0.00  0.00    -0.086 HD
ENDBRANCH  14  16
ENDBRANCH   1  14
TORSDOF 3
