REMARK  Name = ZINC08972854
REMARK  7 active torsions:
REMARK  status: ('A' for Active; 'I' for Inactive)
REMARK    1  A    between atoms: C_4  and  C_7
REMARK    2  A    between atoms: C_10  and  C_30
REMARK    3  A    between atoms: C_15  and  C_17
REMARK    4  A    between atoms: N_19  and  C_20
REMARK    5  A    between atoms: C_20  and  C_21
REMARK    6  A    between atoms: C_21  and  C_22
REMARK    7  A    between atoms: C_22  and  N_23
REMARK                            x       y       z     vdW  Elec       q    Type
REMARK                         _______ _______ _______ _____ _____    ______ ____
ROOT
ATOM      1  C   UNL     1       3.711  -0.707  -0.038  0.00  0.00    +0.104 C 
ATOM      2  C   UNL     1       4.048  -1.192   1.377  0.00  0.00    +0.063 C 
ATOM      3  C   UNL     1       5.418  -1.881   1.380  0.00  0.00    +0.215 C 
ATOM      4  N   UNL     1       5.454  -2.870   0.298  0.00  0.00    -0.237 N 
ATOM      5  C   UNL     1       4.601  -2.857  -0.769  0.00  0.00    +0.137 A 
ATOM      6  C   UNL     1       4.908  -3.901  -1.564  0.00  0.00    +0.112 A 
ATOM      7  C   UNL     1       5.992  -4.586  -0.970  0.00  0.00    +0.167 A 
ATOM      8  N   UNL     1       6.313  -3.958   0.148  0.00  0.00    -0.163 NA
ATOM      9 CL   UNL     1       4.116  -4.328  -3.049  0.00  0.00    -0.078 Cl
ATOM     10  N   UNL     1       3.612  -1.879  -0.929  0.00  0.00    -0.321 N 
ATOM     11  H   UNL     1       2.901  -1.968  -1.584  0.00  0.00    +0.148 HD
ENDROOT
BRANCH   1  15
ATOM     12  C   UNL     1      -0.017   1.378   0.010  0.00  0.00    +0.000 A 
ATOM     13  C   UNL     1       1.171   2.086   0.002  0.00  0.00    +0.000 A 
ATOM     14  C   UNL     1       2.377   1.411  -0.013  0.00  0.00    +0.005 A 
ATOM     15  C   UNL     1       2.396   0.029  -0.020  0.00  0.00    -0.027 A 
ATOM     16  C   UNL     1       1.208  -0.679  -0.012  0.00  0.00    +0.005 A 
ATOM     17  C   UNL     1       0.002  -0.004   0.002  0.00  0.00    +0.000 A 
ENDBRANCH   1  15
BRANCH   7  18
ATOM     18  C   UNL     1       6.652  -5.795  -1.504  0.00  0.00    +0.266 C 
ATOM     19  O   UNL     1       6.267  -6.286  -2.548  0.00  0.00    -0.268 OA
ATOM     20  N   UNL     1       7.681  -6.352  -0.836  0.00  0.00    -0.310 N 
ATOM     21  H   UNL     1       7.988  -5.960  -0.004  0.00  0.00    +0.149 HD
BRANCH  20  22
ATOM     22  C   UNL     1       8.335  -7.551  -1.366  0.00  0.00    +0.106 C 
BRANCH  22  23
ATOM     23  C   UNL     1       9.463  -7.976  -0.423  0.00  0.00    +0.040 C 
BRANCH  23  24
ATOM     24  C   UNL     1      10.146  -9.228  -0.977  0.00  0.00    +0.124 C 
BRANCH  24  25
ATOM     25  N   UNL     1      11.226  -9.635  -0.074  0.00  0.00    -0.338 N 
ATOM     26  C   UNL     1      12.530  -9.223  -0.129  0.00  0.00    +0.104 A 
ATOM     27  C   UNL     1      13.175  -9.836   0.881  0.00  0.00    +0.101 A 
ATOM     28  N   UNL     1      12.290 -10.602   1.535  0.00  0.00    -0.352 N 
ATOM     29  C   UNL     1      11.118 -10.483   0.972  0.00  0.00    +0.173 A 
ATOM     30  H   UNL     1      12.487 -11.154   2.308  0.00  0.00    +0.166 HD
ENDBRANCH  24  25
ENDBRANCH  23  24
ENDBRANCH  22  23
ENDBRANCH  20  22
ENDBRANCH   7  18
BRANCH   3  31
ATOM     31  C   UNL     1       5.637  -2.580   2.723  0.00  0.00    +0.412 C 
ATOM     32  F   UNL     1       4.635  -3.536   2.921  0.00  0.00    -0.168 F 
ATOM     33  F   UNL     1       6.887  -3.207   2.724  0.00  0.00    -0.168 F 
ATOM     34  F   UNL     1       5.589  -1.634   3.754  0.00  0.00    -0.168 F 
ENDBRANCH   3  31
TORSDOF 7
