REMARK  Name = ZINC52812265
REMARK  3 active torsions:
REMARK  status: ('A' for Active; 'I' for Inactive)
REMARK    1  A    between atoms: C_1  and  C_2
REMARK    2  A    between atoms: C_4  and  N_19
REMARK    3  A    between atoms: C_7  and  N_8
REMARK                            x       y       z     vdW  Elec       q    Type
REMARK                         _______ _______ _______ _____ _____    ______ ____
ROOT
ATOM      1  N   UNL     1       0.033  -0.211   2.505  0.00  0.00    -0.276 N 
ATOM      2  C   UNL     1      -0.154   1.239   2.659  0.00  0.00    +0.208 C 
ATOM      3  C   UNL     1       0.812   1.753   3.696  0.00  0.00    +0.235 C 
ATOM      4  O   UNL     1       1.216   2.894   3.625  0.00  0.00    -0.274 OA
ATOM      5  N   UNL     1       1.234   0.959   4.698  0.00  0.00    -0.283 N 
ATOM      6  C   UNL     1       0.824  -0.377   4.773  0.00  0.00    +0.055 A 
ATOM      7  C   UNL     1       0.212  -0.976   3.667  0.00  0.00    +0.057 A 
ATOM      8  C   UNL     1      -0.199  -2.295   3.724  0.00  0.00    +0.025 A 
ATOM      9  C   UNL     1      -0.012  -3.023   4.886  0.00  0.00    +0.002 A 
ATOM     10  C   UNL     1       0.583  -2.434   5.986  0.00  0.00    +0.002 A 
ATOM     11  C   UNL     1       1.012  -1.112   5.932  0.00  0.00    +0.025 A 
ATOM     12  H   UNL     1       1.829   1.317   5.375  0.00  0.00    +0.155 HD
ENDROOT
BRANCH   1  19
ATOM     13  C   UNL     1       2.538  -0.651   1.232  0.00  0.00    +0.047 C 
ATOM     14  C   UNL     1       1.231  -1.040   0.589  0.00  0.00    -0.010 A 
ATOM     15  C   UNL     1       1.214  -1.637  -0.658  0.00  0.00    +0.030 A 
ATOM     16  C   UNL     1      -0.017  -1.979  -1.214  0.00  0.00    +0.041 A 
ATOM     17  C   UNL     1      -1.178  -1.711  -0.503  0.00  0.00    +0.106 A 
ATOM     18  N   UNL     1      -1.125  -1.140   0.685  0.00  0.00    -0.347 N 
ATOM     19  C   UNL     1       0.027  -0.807   1.246  0.00  0.00    +0.107 A 
ATOM     20  H   UNL     1      -1.951  -0.963   1.161  0.00  0.00    +0.167 HD
BRANCH  16  21
ATOM     21  N   UNL     1      -0.082  -2.585  -2.475  0.00  0.00    -0.357 N 
ATOM     22  H   UNL     1       0.733  -2.769  -2.967  0.00  0.00    +0.142 HD
ATOM     23  H   UNL     1      -0.943  -2.821  -2.856  0.00  0.00    +0.142 HD
ENDBRANCH  16  21
ENDBRANCH   1  19
TORSDOF 2
