REMARK  Name = ZINC61441384
REMARK  10 active torsions:
REMARK  status: ('A' for Active; 'I' for Inactive)
REMARK    1  A    between atoms: C_1  and  C_2
REMARK    2  A    between atoms: C_2  and  C_3
REMARK    3  A    between atoms: C_3  and  C_5
REMARK    4  A    between atoms: C_3  and  N_6
REMARK    5  A    between atoms: N_6  and  C_7
REMARK    6  A    between atoms: C_7  and  C_8
REMARK    7  A    between atoms: C_8  and  C_10
REMARK    8  A    between atoms: C_8  and  S_11
REMARK    9  A    between atoms: S_11  and  C_12
REMARK   10  A    between atoms: C_17  and  C_21
REMARK                            x       y       z     vdW  Elec       q    Type
REMARK                         _______ _______ _______ _____ _____    ______ ____
ROOT
ATOM      1  S   UNL     1      -3.416  -0.971  -3.874  0.00  0.00    -0.087 S 
ENDROOT
BRANCH   1   2
ATOM      2  C   UNL     1      -4.230  -0.301  -5.286  0.00  0.00    +0.167 A 
ATOM      3  N   UNL     1      -5.187   0.593  -5.249  0.00  0.00    -0.222 NA
ATOM      4  C   UNL     1      -5.586   0.887  -6.514  0.00  0.00    +0.090 A 
ATOM      5  C   UNL     1      -6.549   1.752  -7.041  0.00  0.00    +0.030 A 
ATOM      6  C   UNL     1      -6.724   1.831  -8.404  0.00  0.00    +0.005 A 
ATOM      7  C   UNL     1      -5.952   1.060  -9.260  0.00  0.00    -0.048 A 
ATOM      8  C   UNL     1      -4.997   0.201  -8.756  0.00  0.00    +0.031 A 
ATOM      9  C   UNL     1      -4.806   0.108  -7.385  0.00  0.00    +0.067 A 
ATOM     10  N   UNL     1      -3.952  -0.631  -6.582  0.00  0.00    -0.333 N 
ATOM     11  C   UNL     1      -6.157   1.160 -10.749  0.00  0.00    +0.044 C 
ATOM     12  H   UNL     1      -3.284  -1.266  -6.884  0.00  0.00    +0.168 HD
ENDBRANCH   1   2
BRANCH   1  13
ATOM     13  C   UNL     1      -4.220  -0.148  -2.472  0.00  0.00    +0.034 C 
ATOM     14  C   UNL     1      -5.690  -0.569  -2.409  0.00  0.00    +0.017 C 
BRANCH  13  15
ATOM     15  C   UNL     1      -3.518  -0.551  -1.173  0.00  0.00    -0.068 C 
BRANCH  15  16
ATOM     16  N   UNL     1      -2.107  -0.147  -1.234  0.00  0.00    +0.381 N 
ATOM     17  H   UNL     1      -2.048   0.853  -1.352  0.00  0.00    -0.085 HD
ATOM     18  H   UNL     1      -1.660  -0.605  -2.014  0.00  0.00    -0.085 HD
BRANCH  16  19
ATOM     19  C   UNL     1      -1.433  -0.534   0.013  0.00  0.00    -0.075 C 
ATOM     20  C   UNL     1      -1.413  -2.059   0.130  0.00  0.00    -0.014 C 
BRANCH  19  22
ATOM     21  C   UNL     1      -0.019   1.526   0.010  0.00  0.00    +0.002 C 
ATOM     22  C   UNL     1       0.002  -0.004   0.002  0.00  0.00    -0.019 C 
ENDBRANCH  19  22
ENDBRANCH  16  19
ENDBRANCH  15  16
ENDBRANCH  13  15
ENDBRANCH   1  13
TORSDOF 6
