REMARK  Name = ZINC40515049
REMARK  4 active torsions:
REMARK  status: ('A' for Active; 'I' for Inactive)
REMARK    1  A    between atoms: C_1  and  C_2
REMARK    2  A    between atoms: C_4  and  C_22
REMARK    3  A    between atoms: C_7  and  C_8
REMARK    4  A    between atoms: C_19  and  C_21
REMARK                            x       y       z     vdW  Elec       q    Type
REMARK                         _______ _______ _______ _____ _____    ______ ____
ROOT
ATOM      1  C   UNL     1      -0.035   1.125  -0.213  0.00  0.00    +0.044 C 
ATOM      2  C   UNL     1       0.146  -0.356   0.001  0.00  0.00    -0.035 A 
ATOM      3  C   UNL     1       0.155  -1.232  -1.070  0.00  0.00    +0.027 A 
ATOM      4  C   UNL     1       0.323  -2.585  -0.842  0.00  0.00    +0.041 A 
ATOM      5  N   UNL     1       0.475  -3.058   0.380  0.00  0.00    -0.236 NA
ATOM      6  C   UNL     1       0.474  -2.265   1.440  0.00  0.00    +0.137 A 
ATOM      7  C   UNL     1       0.314  -0.877   1.288  0.00  0.00    +0.055 A 
ATOM      8  N   UNL     1       0.637  -2.805   2.704  0.00  0.00    -0.281 N 
ATOM      9  C   UNL     1       1.861  -2.951   3.361  0.00  0.00    +0.039 A 
ATOM     10  C   UNL     1       3.144  -2.610   2.928  0.00  0.00    +0.024 A 
ATOM     11  C   UNL     1       4.235  -2.840   3.738  0.00  0.00    +0.002 A 
ATOM     12  C   UNL     1       4.067  -3.412   4.986  0.00  0.00    +0.000 A 
ATOM     13  C   UNL     1       2.801  -3.753   5.421  0.00  0.00    +0.005 A 
ATOM     14  C   UNL     1       1.704  -3.524   4.613  0.00  0.00    -0.024 A 
ATOM     15  C   UNL     1       0.233  -3.795   4.837  0.00  0.00    +0.059 C 
ATOM     16  C   UNL     1      -0.451  -3.301   3.552  0.00  0.00    +0.082 C 
ATOM     17  C   UNL     1      -1.177  -4.457   2.861  0.00  0.00    +0.029 C 
ATOM     18  C   UNL     1       0.332  -3.537  -2.010  0.00  0.00    +0.065 C 
ENDROOT
BRANCH   7  19
ATOM     19  C   UNL     1       0.318   0.013   2.465  0.00  0.00    +0.098 C 
ATOM     20  N   UNL     1       1.285   0.918   2.613  0.00  0.00    -0.387 N 
ATOM     21  N   UNL     1      -0.645  -0.089   3.381  0.00  0.00    -0.344 N 
ATOM     22  H   UNL     1       1.288   1.503   3.387  0.00  0.00    +0.157 HD
ATOM     23  H   UNL     1      -1.403  -0.675   3.225  0.00  0.00    +0.144 HD
ATOM     24  H   UNL     1      -0.589   0.423   4.203  0.00  0.00    +0.144 HD
ATOM     25  H   UNL     1       1.986   0.992   1.947  0.00  0.00    +0.157 HD
ENDBRANCH   7  19
TORSDOF 1
