REMARK  Name = ZINC64182123
REMARK  5 active torsions:
REMARK  status: ('A' for Active; 'I' for Inactive)
REMARK    1  A    between atoms: C_7  and  C_10
REMARK    2  A    between atoms: C_16  and  C_18
REMARK    3  A    between atoms: C_18  and  C_19
REMARK    4  A    between atoms: C_19  and  C_21
REMARK    5  A    between atoms: C_19  and  N_28
REMARK                            x       y       z     vdW  Elec       q    Type
REMARK                         _______ _______ _______ _____ _____    ______ ____
ROOT
ATOM      1  C   UNL     1       1.214  -3.270  -0.900  0.00  0.00    -0.043 C 
ATOM      2  C   UNL     1      -0.034  -2.932  -0.601  0.00  0.00    -0.004 C 
ATOM      3  C   UNL     1      -1.120  -3.938  -0.338  0.00  0.00    +0.135 C 
ATOM      4  N   UNL     1      -0.643  -5.274  -0.725  0.00  0.00    -0.297 N 
ATOM      5  C   UNL     1       0.727  -5.644  -0.333  0.00  0.00    +0.113 C 
ATOM      6  C   UNL     1       1.693  -4.685  -1.037  0.00  0.00    +0.054 C 
ATOM      7  C   UNL     1      -1.430  -6.125  -1.412  0.00  0.00    +0.218 C 
ATOM      8  O   UNL     1      -1.013  -7.222  -1.720  0.00  0.00    -0.276 OA
ENDROOT
BRANCH   1  15
ATOM      9  C   UNL     1       5.521  -3.306  -2.318  0.00  0.00    +0.001 A 
ATOM     10  C   UNL     1       6.100  -2.035  -2.389  0.00  0.00    +0.002 A 
ATOM     11  C   UNL     1       5.412  -0.916  -2.058  0.00  0.00    +0.026 A 
ATOM     12  C   UNL     1       4.063  -1.019  -1.625  0.00  0.00    +0.043 A 
ATOM     13  N   UNL     1       3.195  -0.103  -1.253  0.00  0.00    -0.380 N 
ATOM     14  C   UNL     1       1.930  -0.752  -0.898  0.00  0.00    +0.149 C 
ATOM     15  C   UNL     1       2.147  -2.234  -1.109  0.00  0.00    -0.016 C 
ATOM     16  C   UNL     1       3.458  -2.361  -1.552  0.00  0.00    +0.003 A 
ATOM     17  C   UNL     1       4.239  -3.483  -1.914  0.00  0.00    +0.010 A 
ATOM     18  H   UNL     1       3.366   0.852  -1.219  0.00  0.00    +0.160 HD
ENDBRANCH   1  15
BRANCH   7  19
ATOM     19  C   UNL     1      -2.828  -5.715  -1.798  0.00  0.00    +0.123 C 
BRANCH  19  20
ATOM     20  C   UNL     1      -3.500  -6.856  -2.565  0.00  0.00    +0.115 C 
BRANCH  20  21
ATOM     21  C   UNL     1      -4.936  -6.495  -2.844  0.00  0.00    -0.008 A 
ATOM     22  C   UNL     1      -5.368  -5.194  -2.673  0.00  0.00    +0.007 A 
ATOM     23  C   UNL     1      -6.686  -4.862  -2.929  0.00  0.00    +0.000 A 
ATOM     24  C   UNL     1      -7.572  -5.833  -3.357  0.00  0.00    +0.001 A 
ATOM     25  C   UNL     1      -7.142  -7.135  -3.529  0.00  0.00    +0.020 A 
ATOM     26  C   UNL     1      -5.822  -7.466  -3.278  0.00  0.00    +0.046 A 
ATOM     27 CL   UNL     1      -5.279  -9.100  -3.499  0.00  0.00    -0.083 Cl
ENDBRANCH  20  21
BRANCH  20  28
ATOM     28  N   UNL     1      -2.797  -7.075  -3.831  0.00  0.00    -0.292 N 
ATOM     29  C   UNL     1      -2.679  -6.068  -4.720  0.00  0.00    +0.298 C 
ATOM     30  O   UNL     1      -3.244  -5.011  -4.518  0.00  0.00    -0.253 OA
ATOM     31  N   UNL     1      -1.935  -6.234  -5.831  0.00  0.00    -0.313 N 
ATOM     32  H   UNL     1      -2.416  -7.944  -4.030  0.00  0.00    +0.151 HD
ATOM     33  H   UNL     1      -1.484  -7.078  -5.992  0.00  0.00    +0.146 HD
ATOM     34  H   UNL     1      -1.850  -5.509  -6.470  0.00  0.00    +0.146 HD
ENDBRANCH  20  28
ENDBRANCH  19  20
ENDBRANCH   7  19
TORSDOF 5
