REMARK  Name = ZINC50182473
REMARK  10 active torsions:
REMARK  status: ('A' for Active; 'I' for Inactive)
REMARK    1  A    between atoms: C_1  and  C_2
REMARK    2  A    between atoms: C_5  and  C_9
REMARK    3  A    between atoms: C_6  and  C_8
REMARK    4  A    between atoms: C_9  and  C_11
REMARK    5  A    between atoms: C_9  and  N_12
REMARK    6  A    between atoms: N_12  and  C_13
REMARK    7  A    between atoms: C_13  and  C_14
REMARK    8  A    between atoms: C_14  and  C_15
REMARK    9  A    between atoms: C_15  and  C_16
REMARK   10  A    between atoms: C_21  and  C_22
REMARK                            x       y       z     vdW  Elec       q    Type
REMARK                         _______ _______ _______ _____ _____    ______ ____
ROOT
ATOM      1  N   UNL     1       0.644  -4.750  -1.283  0.00  0.00    +0.383 N 
ATOM      2  H   UNL     1       0.046  -4.487  -2.051  0.00  0.00    -0.085 HD
ATOM      3  H   UNL     1       1.555  -4.336  -1.408  0.00  0.00    -0.085 HD
ENDROOT
BRANCH   1   4
ATOM      4  C   UNL     1       0.059  -4.275  -0.021  0.00  0.00    -0.044 C 
ATOM      5  C   UNL     1      -1.370  -4.804   0.109  0.00  0.00    -0.009 C 
BRANCH   4  10
ATOM      6  C   UNL     1      -0.018   1.503   0.010  0.00  0.00    +0.044 C 
ATOM      7  C   UNL     1       0.002  -0.004   0.002  0.00  0.00    -0.050 A 
ATOM      8  C   UNL     1       0.006  -0.689  -1.199  0.00  0.00    +0.003 A 
ATOM      9  C   UNL     1       0.025  -2.071  -1.207  0.00  0.00    +0.002 A 
ATOM     10  C   UNL     1       0.040  -2.768  -0.013  0.00  0.00    -0.059 A 
ATOM     11  C   UNL     1       0.037  -2.084   1.188  0.00  0.00    -0.049 A 
ATOM     12  C   UNL     1       0.023  -0.702   1.195  0.00  0.00    +0.007 A 
ATOM     13  C   UNL     1       0.054  -2.845   2.489  0.00  0.00    +0.044 C 
ENDBRANCH   4  10
ENDBRANCH   1   4
BRANCH   1  14
ATOM     14  C   UNL     1       0.773  -6.213  -1.242  0.00  0.00    -0.081 C 
BRANCH  14  15
ATOM     15  C   UNL     1       1.382  -6.708  -2.555  0.00  0.00    -0.014 C 
BRANCH  15  16
ATOM     16  C   UNL     1       1.517  -8.232  -2.513  0.00  0.00    +0.036 C 
BRANCH  16  17
ATOM     17  C   UNL     1       2.117  -8.719  -3.807  0.00  0.00    -0.007 A 
ATOM     18  C   UNL     1       1.407  -9.176  -4.922  0.00  0.00    +0.138 A 
ATOM     19  N   UNL     1       2.270  -9.511  -5.846  0.00  0.00    -0.182 NA
ATOM     20  N   UNL     1       3.558  -9.278  -5.348  0.00  0.00    -0.282 N 
ATOM     21  H   UNL     1       4.391  -9.437  -5.820  0.00  0.00    +0.189 HD
ATOM     22  C   UNL     1       3.437  -8.787  -4.096  0.00  0.00    +0.036 A 
ATOM     23  C   UNL     1       4.568  -8.389  -3.184  0.00  0.00    +0.065 C 
ENDBRANCH  16  17
ENDBRANCH  15  16
ENDBRANCH  14  15
ENDBRANCH   1  14
TORSDOF 6
