REMARK  Name = ZINC04477731
REMARK  5 active torsions:
REMARK  status: ('A' for Active; 'I' for Inactive)
REMARK    1  A    between atoms: C_4  and  N_8
REMARK    2  A    between atoms: N_8  and  N_9
REMARK    3  A    between atoms: C_10  and  C_11
REMARK    4  A    between atoms: C_10  and  C_14
REMARK    5  A    between atoms: C_11  and  N_13
REMARK                            x       y       z     vdW  Elec       q    Type
REMARK                         _______ _______ _______ _____ _____    ______ ____
ROOT
ATOM      1  N   UNL     1       3.672  -1.864   0.207  0.00  0.00    -0.175 NA
ATOM      2  C   UNL     1       4.825  -2.469   0.406  0.00  0.00    +0.171 C 
ENDROOT
BRANCH   2   3
ATOM      3  C   UNL     1       6.085  -1.742   0.184  0.00  0.00    +0.269 C 
ATOM      4  O   UNL     1       6.659  -1.832  -0.885  0.00  0.00    -0.268 OA
ATOM      5  N   UNL     1       6.603  -0.977   1.165  0.00  0.00    -0.296 N 
ATOM      6  C   UNL     1       6.095  -0.889   2.542  0.00  0.00    +0.108 C 
ATOM      7  C   UNL     1       6.984   0.124   3.294  0.00  0.00    +0.020 C 
ATOM      8  C   UNL     1       7.591   0.973   2.146  0.00  0.00    +0.020 C 
ATOM      9  C   UNL     1       7.778  -0.095   1.037  0.00  0.00    +0.108 C 
ENDBRANCH   2   3
BRANCH   1  10
ATOM     10  N   UNL     1       3.645  -0.671  -0.282  0.00  0.00    -0.234 N 
ATOM     11  H   UNL     1       4.468  -0.247  -0.573  0.00  0.00    +0.174 HD
BRANCH  10  15
ATOM     12  C   UNL     1       0.026   1.363  -0.618  0.00  0.00    +0.003 A 
ATOM     13  C   UNL     1       1.180   2.056  -0.300  0.00  0.00    +0.022 A 
ATOM     14  C   UNL     1       2.383   1.385  -0.188  0.00  0.00    +0.065 A 
ATOM     15  C   UNL     1       2.432   0.011  -0.394  0.00  0.00    +0.085 A 
ATOM     16  C   UNL     1       1.270  -0.683  -0.714  0.00  0.00    +0.065 A 
ATOM     17  C   UNL     1       0.071  -0.004  -0.824  0.00  0.00    +0.022 A 
ATOM     18 CL   UNL     1       1.324  -2.398  -0.974  0.00  0.00    -0.082 Cl
ATOM     19 CL   UNL     1       3.830   2.257   0.210  0.00  0.00    -0.082 Cl
ENDBRANCH  10  15
ENDBRANCH   1  10
BRANCH   2  20
ATOM     20  C   UNL     1       4.854  -3.869   0.850  0.00  0.00    +0.102 C 
ATOM     21  S   UNL     1       6.352  -4.655   1.109  0.00  0.00    -0.033 S 
BRANCH  20  22
ATOM     22  N   UNL     1       3.700  -4.535   1.053  0.00  0.00    -0.350 N 
ATOM     23  H   UNL     1       2.850  -4.090   0.906  0.00  0.00    +0.143 HD
ATOM     24  H   UNL     1       3.718  -5.459   1.346  0.00  0.00    +0.143 HD
ENDBRANCH  20  22
ENDBRANCH   2  20
TORSDOF 5
