REMARK  Name = ZINC08767139
REMARK  1 active torsions:
REMARK  status: ('A' for Active; 'I' for Inactive)
REMARK    1  A    between atoms: C_11  and  C_22
REMARK                            x       y       z     vdW  Elec       q    Type
REMARK                         _______ _______ _______ _____ _____    ______ ____
ROOT
ATOM      1  C   UNL     1      -0.017   1.393   0.010  0.00  0.00    +0.001 A 
ATOM      2  C   UNL     1       1.140   2.137   0.003  0.00  0.00    +0.001 A 
ATOM      3  C   UNL     1       2.403   1.535  -0.013  0.00  0.00    +0.012 A 
ATOM      4  C   UNL     1       2.437   0.154  -0.020  0.00  0.00    +0.031 A 
ATOM      5  C   UNL     1       1.246  -0.615  -0.013  0.00  0.00    +0.007 A 
ATOM      6  C   UNL     1       0.002  -0.004   0.002  0.00  0.00    +0.010 A 
ATOM      7  C   UNL     1       1.643  -2.027  -0.023  0.00  0.00    +0.048 C 
ATOM      8  C   UNL     1       3.013  -2.106  -0.037  0.00  0.00    +0.034 C 
ATOM      9  C   UNL     1       3.563  -0.805  -0.036  0.00  0.00    +0.193 C 
ATOM     10  O   UNL     1       4.746  -0.525  -0.045  0.00  0.00    -0.287 OA
ATOM     11  C   UNL     1       3.750  -3.420  -0.055  0.00  0.00    +0.093 C 
ATOM     12  C   UNL     1       2.794  -4.537   0.275  0.00  0.00    +0.069 A 
ATOM     13  C   UNL     1       3.320  -5.810   0.598  0.00  0.00    +0.280 A 
ATOM     14  O   UNL     1       4.529  -5.988   0.611  0.00  0.00    -0.265 OA
ATOM     15  N   UNL     1       2.488  -6.821   0.891  0.00  0.00    -0.177 NA
ATOM     16  C   UNL     1       1.184  -6.646   0.883  0.00  0.00    +0.195 A 
ATOM     17  N   UNL     1       0.639  -5.438   0.578  0.00  0.00    -0.316 N 
ATOM     18  C   UNL     1       1.446  -4.369   0.275  0.00  0.00    +0.112 A 
ATOM     19  N   UNL     1       0.854  -3.155  -0.016  0.00  0.00    -0.300 N 
ATOM     20  N   UNL     1       0.362  -7.699   1.185  0.00  0.00    -0.329 N 
ATOM     21  H   UNL     1      -0.094  -3.099  -0.211  0.00  0.00    +0.154 HD
ATOM     22  H   UNL     1       0.742  -8.564   1.404  0.00  0.00    +0.145 HD
ATOM     23  H   UNL     1      -0.601  -7.579   1.181  0.00  0.00    +0.145 HD
ATOM     24  H   UNL     1      -0.325  -5.331   0.576  0.00  0.00    +0.170 HD
ENDROOT
BRANCH  11  25
ATOM     25  C   UNL     1       4.337  -3.649  -1.424  0.00  0.00    -0.035 A 
ATOM     26  C   UNL     1       3.509  -3.711  -2.529  0.00  0.00    +0.006 A 
ATOM     27  C   UNL     1       4.047  -3.921  -3.785  0.00  0.00    +0.020 A 
ATOM     28  C   UNL     1       5.414  -4.069  -3.936  0.00  0.00    +0.041 A 
ATOM     29  C   UNL     1       6.242  -4.007  -2.829  0.00  0.00    +0.020 A 
ATOM     30  C   UNL     1       5.704  -3.791  -1.575  0.00  0.00    +0.006 A 
ATOM     31 CL   UNL     1       6.090  -4.333  -5.513  0.00  0.00    -0.084 Cl
ENDBRANCH  11  25
TORSDOF 1
