REMARK  Name = ZINC32605529
REMARK  6 active torsions:
REMARK  status: ('A' for Active; 'I' for Inactive)
REMARK    1  A    between atoms: C_1  and  O_2
REMARK    2  A    between atoms: O_2  and  C_3
REMARK    3  A    between atoms: C_8  and  C_9
REMARK    4  A    between atoms: N_11  and  N_12
REMARK    5  A    between atoms: C_13  and  C_15
REMARK    6  A    between atoms: C_24  and  N_25
REMARK                            x       y       z     vdW  Elec       q    Type
REMARK                         _______ _______ _______ _____ _____    ______ ____
ROOT
ATOM      1  N   UNL     1      -3.818   7.159  -0.052  0.00  0.00    -0.230 N 
ATOM      2  C   UNL     1      -3.756   5.817   0.047  0.00  0.00    +0.263 C 
ATOM      3  O   UNL     1      -4.779   5.165   0.141  0.00  0.00    -0.269 OA
ATOM      4  H   UNL     1      -2.893   7.748  -0.137  0.00  0.00    +0.173 HD
ENDROOT
BRANCH   2   5
ATOM      5  C   UNL     1      -2.450   5.138   0.043  0.00  0.00    +0.075 A 
ATOM      6  C   UNL     1      -1.261   5.886   0.058  0.00  0.00    +0.098 A 
ATOM      7  N   UNL     1      -0.087   5.309   0.054  0.00  0.00    -0.360 N 
ATOM      8  C   UNL     1       0.050   3.976   0.035  0.00  0.00    +0.048 A 
ATOM      9  C   UNL     1       1.324   3.385   0.031  0.00  0.00    +0.026 A 
ATOM     10  C   UNL     1       1.441   2.028   0.011  0.00  0.00    +0.002 A 
ATOM     11  C   UNL     1       0.314   1.211  -0.006  0.00  0.00    +0.001 A 
ATOM     12  C   UNL     1      -0.938   1.750  -0.008  0.00  0.00    +0.012 A 
ATOM     13  C   UNL     1      -1.093   3.143   0.018  0.00  0.00    +0.020 A 
ATOM     14  C   UNL     1      -2.378   3.737   0.022  0.00  0.00    +0.047 A 
ATOM     15  H   UNL     1       0.827   5.922   0.068  0.00  0.00    +0.165 HD
BRANCH  14  16
ATOM     16  N   UNL     1      -3.519   2.967   0.006  0.00  0.00    -0.357 N 
ATOM     17  H   UNL     1      -3.442   1.869  -0.010  0.00  0.00    +0.142 HD
ATOM     18  H   UNL     1      -4.508   3.448   0.009  0.00  0.00    +0.142 HD
ENDBRANCH  14  16
ENDBRANCH   2   5
BRANCH   1  21
ATOM     19  C   UNL     1      -5.124   9.148  -0.147  0.00  0.00    +0.264 C 
ATOM     20  O   UNL     1      -4.101   9.798  -0.241  0.00  0.00    -0.269 OA
ATOM     21  N   UNL     1      -5.062   7.805  -0.048  0.00  0.00    -0.230 N 
ATOM     22  H   UNL     1      -5.987   7.216   0.037  0.00  0.00    +0.173 HD
BRANCH  19  28
ATOM     23  C   UNL     1      -6.503  11.223  -0.246  0.00  0.00    +0.132 A 
ATOM     24  C   UNL     1      -7.739  11.852  -0.241  0.00  0.00    +0.046 A 
ATOM     25  C   UNL     1      -8.895  11.105  -0.134  0.00  0.00    +0.004 A 
ATOM     26  C   UNL     1      -8.831   9.725  -0.032  0.00  0.00    +0.001 A 
ATOM     27  C   UNL     1      -7.611   9.083  -0.041  0.00  0.00    +0.017 A 
ATOM     28  C   UNL     1      -6.433   9.828  -0.142  0.00  0.00    +0.080 A 
BRANCH  23  30
ATOM     29  C   UNL     1      -5.516  13.374  -0.452  0.00  0.00    +0.277 C 
ATOM     30  O   UNL     1      -5.366  11.956  -0.350  0.00  0.00    -0.494 OA
ENDBRANCH  23  30
ENDBRANCH  19  28
ENDBRANCH   1  21
TORSDOF 5
