REMARK  Name = ZINC20623344
REMARK  7 active torsions:
REMARK  status: ('A' for Active; 'I' for Inactive)
REMARK    1  A    between atoms: C_1  and  C_2
REMARK    2  A    between atoms: C_2  and  C_3
REMARK    3  A    between atoms: C_3  and  C_4
REMARK    4  A    between atoms: C_4  and  C_5
REMARK    5  A    between atoms: C_8  and  C_11
REMARK    6  A    between atoms: N_13  and  C_14
REMARK    7  A    between atoms: C_14  and  C_15
REMARK                            x       y       z     vdW  Elec       q    Type
REMARK                         _______ _______ _______ _____ _____    ______ ____
ROOT
ATOM      1  C   UNL     1       6.920  -4.724  -6.896  0.00  0.00    +0.233 C 
ATOM      2  O   UNL     1       7.353  -4.465  -5.794  0.00  0.00    -0.274 OA
ATOM      3  N   UNL     1       7.755  -5.150  -7.865  0.00  0.00    -0.300 N 
ATOM      4  C   UNL     1       7.246  -5.462  -9.208  0.00  0.00    +0.110 C 
ATOM      5  C   UNL     1       7.683  -6.881  -9.583  0.00  0.00    +0.047 C 
ATOM      6  C   UNL     1       9.201  -6.997  -9.442  0.00  0.00    +0.064 C 
ATOM      7  C   UNL     1       9.608  -6.733  -7.992  0.00  0.00    +0.047 C 
ATOM      8  C   UNL     1       9.191  -5.307  -7.600  0.00  0.00    +0.110 C 
ATOM      9  C   UNL     1       9.646  -8.375  -9.853  0.00  0.00    +0.057 A 
ATOM     10  C   UNL     1      10.237  -8.650 -11.038  0.00  0.00    +0.039 A 
ATOM     11  N   UNL     1      10.500  -9.957 -11.075  0.00  0.00    -0.349 N 
ATOM     12  C   UNL     1      10.096 -10.507  -9.959  0.00  0.00    +0.171 A 
ATOM     13  N   UNL     1       9.556  -9.548  -9.171  0.00  0.00    -0.348 N 
ATOM     14  H   UNL     1       9.176  -9.674  -8.287  0.00  0.00    +0.166 HD
ATOM     15  C   UNL     1      10.511  -7.598 -12.084  0.00  0.00    +0.070 C 
ATOM     16  C   UNL     1       9.671  -6.360 -11.739  0.00  0.00    +0.088 C 
ATOM     17  N   UNL     1       9.854  -6.015 -10.323  0.00  0.00    -0.305 NA
ATOM     18  H   UNL     1       9.522  -5.082 -10.132  0.00  0.00    +0.123 HD
ATOM     19  H   UNL     1      10.925 -10.424 -11.812  0.00  0.00    +0.166 HD
ENDROOT
BRANCH   1  20
ATOM     20  C   UNL     1       5.449  -4.569  -7.184  0.00  0.00    +0.200 C 
BRANCH  20  23
ATOM     21  C   UNL     1       3.432  -3.884  -6.000  0.00  0.00    +0.244 C 
ATOM     22  O   UNL     1       2.801  -4.085  -7.019  0.00  0.00    -0.270 OA
ATOM     23  N   UNL     1       4.763  -4.096  -5.979  0.00  0.00    -0.303 N 
ATOM     24  H   UNL     1       5.267  -3.935  -5.165  0.00  0.00    +0.150 HD
BRANCH  21  28
ATOM     25  C   UNL     1       1.444  -2.513  -2.505  0.00  0.00    -0.047 A 
ATOM     26  C   UNL     1       0.723  -2.741  -3.663  0.00  0.00    +0.004 A 
ATOM     27  C   UNL     1       1.362  -3.186  -4.802  0.00  0.00    +0.013 A 
ATOM     28  C   UNL     1       2.740  -3.406  -4.783  0.00  0.00    +0.037 A 
ATOM     29  C   UNL     1       3.462  -3.175  -3.612  0.00  0.00    +0.013 A 
ATOM     30  C   UNL     1       2.812  -2.724  -2.482  0.00  0.00    +0.004 A 
BRANCH  25  31
ATOM     31  C   UNL     1       0.739  -2.027  -1.265  0.00  0.00    +0.035 C 
BRANCH  31  32
ATOM     32  C   UNL     1       0.718  -0.497  -1.257  0.00  0.00    +0.004 C 
BRANCH  32  34
ATOM     33  C   UNL     1      -0.019   1.526   0.010  0.00  0.00    +0.004 C 
ATOM     34  C   UNL     1       0.002  -0.004   0.002  0.00  0.00    -0.003 C 
ENDBRANCH  32  34
ENDBRANCH  31  32
ENDBRANCH  25  31
ENDBRANCH  21  28
ENDBRANCH  20  23
ENDBRANCH   1  20
TORSDOF 6
