REMARK  Name = ZINC39357292
REMARK  7 active torsions:
REMARK  status: ('A' for Active; 'I' for Inactive)
REMARK    1  A    between atoms: C_1  and  C_2
REMARK    2  A    between atoms: C_8  and  C_29
REMARK    3  A    between atoms: N_16  and  C_17
REMARK    4  A    between atoms: C_17  and  C_18
REMARK    5  A    between atoms: C_18  and  C_19
REMARK    6  A    between atoms: C_34  and  O_35
REMARK    7  A    between atoms: O_35  and  C_36
REMARK                            x       y       z     vdW  Elec       q    Type
REMARK                         _______ _______ _______ _____ _____    ______ ____
ROOT
ATOM      1  C   UNL     1      -0.562   1.430   0.197  0.00  0.00    +0.024 C 
ATOM      2  C   UNL     1      -0.393  -0.090   0.144  0.00  0.00    +0.062 C 
ATOM      3  C   UNL     1       0.333  -0.485  -1.149  0.00  0.00    +0.114 C 
ATOM      4  C   UNL     1       0.551  -1.977  -1.117  0.00  0.00    +0.221 C 
ATOM      5  O   UNL     1       0.685  -2.586  -2.157  0.00  0.00    -0.275 OA
ATOM      6  N   UNL     1       0.599  -2.638   0.048  0.00  0.00    -0.245 N 
ATOM      7  C   UNL     1       0.675  -4.110   0.043  0.00  0.00    +0.210 C 
ATOM      8  N   UNL     1      -0.251  -4.642   1.041  0.00  0.00    -0.339 N 
ATOM      9  C   UNL     1      -0.786  -3.925   1.974  0.00  0.00    +0.158 C 
ATOM     10  N   UNL     1      -0.558  -2.575   2.103  0.00  0.00    -0.288 N 
ATOM     11  C   UNL     1       0.562  -1.982   1.354  0.00  0.00    +0.239 C 
ATOM     12  N   UNL     1       0.415  -0.537   1.282  0.00  0.00    -0.280 NA
ATOM     13  N   UNL     1      -1.621  -4.540   2.878  0.00  0.00    -0.318 N 
ATOM     14  H   UNL     1      -1.121  -2.027   2.672  0.00  0.00    +0.152 HD
ATOM     15  H   UNL     1      -1.796  -5.491   2.807  0.00  0.00    +0.149 HD
ATOM     16  H   UNL     1       1.316  -0.082   1.287  0.00  0.00    +0.125 HD
ATOM     17  H   UNL     1      -0.476  -5.585   1.001  0.00  0.00    +0.164 HD
ENDROOT
BRANCH   7  18
ATOM     18  C   UNL     1       0.299  -4.629  -1.321  0.00  0.00    +0.035 A 
ATOM     19  C   UNL     1       1.284  -4.928  -2.243  0.00  0.00    +0.011 A 
ATOM     20  C   UNL     1       0.940  -5.404  -3.494  0.00  0.00    +0.001 A 
ATOM     21  C   UNL     1      -0.391  -5.582  -3.827  0.00  0.00    +0.004 A 
ATOM     22  C   UNL     1      -1.379  -5.285  -2.909  0.00  0.00    +0.046 A 
ATOM     23  C   UNL     1      -1.036  -4.813  -1.650  0.00  0.00    +0.127 A 
BRANCH  23  24
ATOM     24  O   UNL     1      -2.006  -4.525  -0.744  0.00  0.00    -0.495 OA
ATOM     25  C   UNL     1      -3.359  -4.738  -1.151  0.00  0.00    +0.277 C 
ENDBRANCH  23  24
ENDBRANCH   7  18
BRANCH  13  26
ATOM     26  C   UNL     1      -2.244  -3.758   3.948  0.00  0.00    +0.109 C 
BRANCH  26  27
ATOM     27  C   UNL     1      -3.118  -4.675   4.807  0.00  0.00    +0.056 C 
BRANCH  27  28
ATOM     28  C   UNL     1      -3.760  -3.870   5.908  0.00  0.00    -0.021 A 
ATOM     29  C   UNL     1      -3.299  -3.720   7.160  0.00  0.00    +0.087 A 
ATOM     30  N   UNL     1      -4.147  -2.920   7.876  0.00  0.00    -0.360 N 
ATOM     31  H   UNL     1      -4.024  -2.668   8.805  0.00  0.00    +0.165 HD
ATOM     32  C   UNL     1      -5.201  -2.526   7.083  0.00  0.00    +0.047 A 
ATOM     33  C   UNL     1      -5.001  -3.099   5.813  0.00  0.00    +0.003 A 
ATOM     34  C   UNL     1      -5.922  -2.864   4.791  0.00  0.00    +0.010 A 
ATOM     35  C   UNL     1      -7.012  -2.074   5.027  0.00  0.00    +0.001 A 
ATOM     36  C   UNL     1      -7.211  -1.504   6.277  0.00  0.00    +0.002 A 
ATOM     37  C   UNL     1      -6.320  -1.730   7.303  0.00  0.00    +0.026 A 
ENDBRANCH  27  28
ENDBRANCH  26  27
ENDBRANCH  13  26
TORSDOF 5
