REMARK  Name = ZINC23466008
REMARK  10 active torsions:
REMARK  status: ('A' for Active; 'I' for Inactive)
REMARK    1  A    between atoms: C_1  and  C_2
REMARK    2  A    between atoms: C_2  and  C_3
REMARK    3  A    between atoms: C_2  and  C_4
REMARK    4  A    between atoms: C_2  and  C_28
REMARK    5  A    between atoms: C_4  and  N_5
REMARK    6  A    between atoms: C_6  and  C_8
REMARK    7  A    between atoms: C_8  and  C_9
REMARK    8  A    between atoms: N_16  and  C_17
REMARK    9  A    between atoms: C_17  and  C_18
REMARK   10  A    between atoms: C_28  and  O_29
REMARK                            x       y       z     vdW  Elec       q    Type
REMARK                         _______ _______ _______ _____ _____    ______ ____
ROOT
ATOM      1  C   UNL     1       5.619   2.345  -1.638  0.00  0.00    +0.028 C 
ATOM      2  C   UNL     1       6.388   2.008  -2.884  0.00  0.00    +0.200 C 
ATOM      3  O   UNL     1       7.458   1.448  -2.773  0.00  0.00    -0.278 OA
ATOM      4  N   UNL     1       5.942   2.300  -4.110  0.00  0.00    -0.318 N 
ATOM      5  C   UNL     1       4.652   2.939  -4.355  0.00  0.00    +0.085 C 
ATOM      6  C   UNL     1       4.146   3.604  -3.073  0.00  0.00    -0.058 C 
ATOM      7  N   UNL     1       4.217   2.627  -1.974  0.00  0.00    +0.391 N 
ATOM      8  H   UNL     1       6.594   2.036  -4.956  0.00  0.00    +0.149 HD
ATOM      9  H   UNL     1       3.744   1.691  -2.306  0.00  0.00    -0.080 HD
ENDROOT
BRANCH   1  10
ATOM     10  C   UNL     1       5.680   1.163  -0.668  0.00  0.00    +0.089 C 
BRANCH  10  12
ATOM     11  N   UNL     1       5.040  -1.227  -0.665  0.00  0.00    -0.315 N 
ATOM     12  C   UNL     1       5.011  -0.035  -1.293  0.00  0.00    +0.212 C 
ATOM     13  O   UNL     1       4.447   0.075  -2.361  0.00  0.00    -0.276 OA
ATOM     14  H   UNL     1       5.551  -1.326   0.304  0.00  0.00    +0.149 HD
BRANCH  11  15
ATOM     15  C   UNL     1       4.389  -2.390  -1.272  0.00  0.00    +0.112 C 
BRANCH  15  17
ATOM     16  C   UNL     1       6.060  -3.894  -0.180  0.00  0.00    +0.015 C 
ATOM     17  C   UNL     1       4.568  -3.607  -0.362  0.00  0.00    +0.004 C 
ATOM     18  C   UNL     1       3.934  -3.322   1.001  0.00  0.00    +0.015 C 
BRANCH  17  19
ATOM     19  C   UNL     1       3.889  -4.823  -0.997  0.00  0.00    +0.163 C 
BRANCH  19  20
ATOM     20  O   UNL     1       4.056  -5.959  -0.146  0.00  0.00    -0.394 OA
ATOM     21  H   UNL     1       3.632  -6.931  -0.438  0.00  0.00    +0.209 HD
ENDBRANCH  19  20
ENDBRANCH  17  19
ENDBRANCH  15  17
ENDBRANCH  11  15
ENDBRANCH  10  12
ENDBRANCH   1  10
BRANCH   7  22
ATOM     22  C   UNL     1       3.479   3.104  -0.797  0.00  0.00    -0.041 C 
BRANCH  22  23
ATOM     23  C   UNL     1       2.077   3.480  -1.202  0.00  0.00    -0.056 A 
ATOM     24  C   UNL     1       1.751   4.786  -1.409  0.00  0.00    +0.002 A 
ATOM     25  C   UNL     1       0.461   5.153  -1.784  0.00  0.00    +0.001 A 
ATOM     26  C   UNL     1      -0.513   4.216  -1.953  0.00  0.00    +0.008 A 
ATOM     27  C   UNL     1      -0.215   2.859  -1.748  0.00  0.00    -0.018 A 
ATOM     28  C   UNL     1       1.098   2.486  -1.367  0.00  0.00    -0.017 A 
ATOM     29  C   UNL     1       1.396   1.127  -1.161  0.00  0.00    +0.009 A 
ATOM     30  C   UNL     1       0.423   0.192  -1.329  0.00  0.00    +0.001 A 
ATOM     31  C   UNL     1      -0.867   0.558  -1.709  0.00  0.00    +0.001 A 
ATOM     32  C   UNL     1      -1.194   1.863  -1.912  0.00  0.00    +0.008 A 
ENDBRANCH  22  23
ENDBRANCH   7  22
TORSDOF 8
