REMARK  Name = ZINC62850994
REMARK  7 active torsions:
REMARK  status: ('A' for Active; 'I' for Inactive)
REMARK    1  A    between atoms: C_1  and  C_2
REMARK    2  A    between atoms: C_2  and  C_3
REMARK    3  A    between atoms: C_3  and  C_9
REMARK    4  A    between atoms: C_9  and  N_10
REMARK    5  A    between atoms: N_10  and  C_11
REMARK    6  A    between atoms: N_10  and  C_12
REMARK    7  A    between atoms: C_18  and  C_20
REMARK                            x       y       z     vdW  Elec       q    Type
REMARK                         _______ _______ _______ _____ _____    ______ ____
ROOT
ATOM      1  C   UNL     1       0.613  -2.036  -1.119  0.00  0.00    -0.072 C 
ENDROOT
BRANCH   1   2
ATOM      2  C   UNL     1       0.693  -0.544  -0.788  0.00  0.00    -0.048 C 
ATOM      3  C   UNL     1       2.158  -0.097  -0.784  0.00  0.00    -0.014 C 
ATOM      4  C   UNL     1       2.909  -0.842   0.322  0.00  0.00    -0.082 C 
ATOM      5  N   UNL     1       2.299  -0.540   1.622  0.00  0.00    +0.379 N 
ATOM      6  C   UNL     1       0.916  -1.031   1.650  0.00  0.00    -0.082 C 
ATOM      7  C   UNL     1       0.088  -0.293   0.596  0.00  0.00    -0.014 C 
ATOM      8  H   UNL     1       2.829  -0.990   2.353  0.00  0.00    -0.086 HD
ATOM      9  H   UNL     1       2.304   0.458   1.771  0.00  0.00    -0.086 HD
BRANCH   2  11
ATOM     10  C   UNL     1       0.132   1.751  -1.602  0.00  0.00    +0.004 C 
ATOM     11  C   UNL     1      -0.082   0.255  -1.838  0.00  0.00    +0.001 C 
ENDBRANCH   2  11
ENDBRANCH   1   2
BRANCH   1  12
ATOM     12  N   UNL     1      -0.795  -2.432  -1.257  0.00  0.00    +0.380 N 
ATOM     13  C   UNL     1      -1.246  -2.165  -2.629  0.00  0.00    -0.096 C 
ATOM     14  H   UNL     1      -1.358  -1.903  -0.608  0.00  0.00    -0.082 HD
BRANCH  12  15
ATOM     15  C   UNL     1      -0.931  -3.866  -0.966  0.00  0.00    -0.066 C 
ATOM     16  C   UNL     1       0.032  -4.659  -1.852  0.00  0.00    -0.015 C 
ATOM     17  C   UNL     1      -0.110  -6.152  -1.549  0.00  0.00    -0.002 C 
ATOM     18  C   UNL     1       0.222  -6.408  -0.078  0.00  0.00    +0.000 C 
ATOM     19  C   UNL     1      -0.741  -5.615   0.808  0.00  0.00    +0.002 C 
ATOM     20  C   UNL     1      -0.599  -4.122   0.505  0.00  0.00    -0.028 C 
ATOM     21  C   UNL     1      -1.562  -3.328   1.391  0.00  0.00    +0.006 C 
ENDBRANCH  12  15
ENDBRANCH   1  12
TORSDOF 4
