REMARK  Name = ZINC63853774
REMARK  4 active torsions:
REMARK  status: ('A' for Active; 'I' for Inactive)
REMARK    1  A    between atoms: C_1  and  C_2
REMARK    2  A    between atoms: C_4  and  S_16
REMARK    3  A    between atoms: C_6  and  C_7
REMARK    4  A    between atoms: S_16  and  N_19
REMARK                            x       y       z     vdW  Elec       q    Type
REMARK                         _______ _______ _______ _____ _____    ______ ____
ROOT
ATOM      1  C   UNL     1       0.497   1.455   0.020  0.00  0.00    +0.045 C 
ATOM      2  C   UNL     1       0.203  -0.023   0.006  0.00  0.00    -0.029 A 
ATOM      3  C   UNL     1       0.122  -0.741  -1.163  0.00  0.00    +0.040 A 
ATOM      4  C   UNL     1      -0.145  -2.069  -1.104  0.00  0.00    +0.143 A 
ATOM      5  S   UNL     1      -0.294  -2.386   0.539  0.00  0.00    -0.064 S 
ATOM      6  C   UNL     1       0.004  -0.746   1.172  0.00  0.00    +0.079 A 
ENDROOT
BRANCH   6   7
ATOM      7  C   UNL     1       0.030  -0.283   2.562  0.00  0.00    +0.254 C 
ATOM      8  O   UNL     1       0.123   0.906   2.806  0.00  0.00    -0.269 OA
ATOM      9  N   UNL     1      -0.050  -1.173   3.571  0.00  0.00    -0.297 N 
ATOM     10  C   UNL     1      -0.025  -2.584   3.254  0.00  0.00    +0.108 C 
ATOM     11  C   UNL     1      -1.469  -3.087   3.007  0.00  0.00    +0.019 C 
ATOM     12  C   UNL     1      -2.217  -3.132   4.272  0.00  0.00    +0.002 C 
ATOM     13  C   UNL     1      -2.400  -1.774   4.943  0.00  0.00    +0.002 C 
ATOM     14  C   UNL     1      -1.185  -1.463   5.782  0.00  0.00    +0.019 C 
ATOM     15  C   UNL     1      -0.154  -0.668   4.954  0.00  0.00    +0.108 C 
ENDBRANCH   6   7
BRANCH   4  16
ATOM     16  S   UNL     1      -0.301  -3.203  -2.443  0.00  0.00    +0.062 S 
ATOM     17  O   UNL     1      -1.102  -4.279  -1.974  0.00  0.00    -0.153 OA
ATOM     18  O   UNL     1      -0.651  -2.435  -3.587  0.00  0.00    -0.153 OA
BRANCH  16  19
ATOM     19  N   UNL     1       1.205  -3.826  -2.735  0.00  0.00    -0.203 NA
ATOM     20  H   UNL     1       1.961  -3.540  -2.198  0.00  0.00    +0.144 HD
ATOM     21  H   UNL     1       1.332  -4.477  -3.443  0.00  0.00    +0.144 HD
ENDBRANCH  16  19
ENDBRANCH   4  16
TORSDOF 3
