REMARK  Name = ZINC44792760
REMARK  5 active torsions:
REMARK  status: ('A' for Active; 'I' for Inactive)
REMARK    1  A    between atoms: C_4  and  C_9
REMARK    2  A    between atoms: C_6  and  C_7
REMARK    3  A    between atoms: C_9  and  S_10
REMARK    4  A    between atoms: S_10  and  C_11
REMARK    5  A    between atoms: N_12  and  C_13
REMARK                            x       y       z     vdW  Elec       q    Type
REMARK                         _______ _______ _______ _____ _____    ______ ____
ROOT
ATOM      1  C   UNL     1       5.807  -1.897   1.466  0.00  0.00    +0.130 C 
ATOM      2  N   UNL     1       6.524  -2.237   2.590  0.00  0.00    -0.296 N 
ATOM      3  N   UNL     1       6.297  -2.138   0.281  0.00  0.00    -0.381 N 
ATOM      4  H   UNL     1       7.131  -2.625   0.192  0.00  0.00    +0.158 HD
ATOM      5  H   UNL     1       5.827  -1.830  -0.510  0.00  0.00    +0.158 HD
ATOM      6  H   UNL     1       7.490  -2.321   2.542  0.00  0.00    +0.154 HD
ENDROOT
BRANCH   2   7
ATOM      7  C   UNL     1       5.861  -2.461   3.804  0.00  0.00    +0.036 A 
ATOM      8  C   UNL     1       6.479  -2.136   5.004  0.00  0.00    +0.027 A 
ATOM      9  C   UNL     1       5.826  -2.358   6.200  0.00  0.00    +0.051 A 
ATOM     10  C   UNL     1       4.551  -2.905   6.207  0.00  0.00    +0.162 A 
ATOM     11  C   UNL     1       3.929  -3.228   5.008  0.00  0.00    +0.164 A 
ATOM     12  C   UNL     1       4.584  -3.002   3.807  0.00  0.00    +0.072 A 
ATOM     13  O   UNL     1       2.675  -3.758   4.994  0.00  0.00    -0.485 OA
ATOM     14  C   UNL     1       2.197  -4.311   6.225  0.00  0.00    +0.270 C 
ATOM     15  C   UNL     1       2.507  -3.317   7.352  0.00  0.00    +0.270 C 
ATOM     16  O   UNL     1       3.925  -3.120   7.398  0.00  0.00    -0.485 OA
ENDBRANCH   2   7
BRANCH   1  17
ATOM     17  S   UNL     1       4.226  -1.136   1.627  0.00  0.00    -0.088 S 
BRANCH  17  18
ATOM     18  C   UNL     1       3.684  -0.883  -0.086  0.00  0.00    +0.115 C 
BRANCH  18  22
ATOM     19  C   UNL     1      -0.168   0.992  -0.105  0.00  0.00    +0.021 A 
ATOM     20  C   UNL     1       0.977   1.761  -0.106  0.00  0.00    +0.040 A 
ATOM     21  C   UNL     1       2.223   1.153  -0.100  0.00  0.00    +0.127 A 
ATOM     22  C   UNL     1       2.326  -0.230  -0.092  0.00  0.00    -0.001 A 
ATOM     23  C   UNL     1       1.188  -1.008  -0.090  0.00  0.00    +0.026 A 
ATOM     24  C   UNL     1      -0.070  -0.401  -0.097  0.00  0.00    +0.052 A 
ATOM     25  F   UNL     1       3.341   1.911  -0.101  0.00  0.00    -0.205 F 
BRANCH  24  26
ATOM     26  C   UNL     1      -1.256  -1.204  -0.096  0.00  0.00    +0.099 C 
ATOM     27  N   UNL     1      -2.196  -1.842  -0.094  0.00  0.00    -0.191 NA
ENDBRANCH  24  26
ENDBRANCH  18  22
ENDBRANCH  17  18
ENDBRANCH   1  17
TORSDOF 5
