REMARK  Name = ZINC49765556
REMARK  11 active torsions:
REMARK  status: ('A' for Active; 'I' for Inactive)
REMARK    1  A    between atoms: C_1  and  C_2
REMARK    2  A    between atoms: C_2  and  N_3
REMARK    3  A    between atoms: N_3  and  C_4
REMARK    4  A    between atoms: N_3  and  C_6
REMARK    5  A    between atoms: C_4  and  C_5
REMARK    6  A    between atoms: C_6  and  C_7
REMARK    7  A    between atoms: C_7  and  N_8
REMARK    8  A    between atoms: N_17  and  C_18
REMARK    9  A    between atoms: C_18  and  C_20
REMARK   10  A    between atoms: C_23  and  N_29
REMARK   11  A    between atoms: C_24  and  N_26
REMARK                            x       y       z     vdW  Elec       q    Type
REMARK                         _______ _______ _______ _____ _____    ______ ____
ROOT
ATOM      1  N   UNL     1       0.993  -3.906  -2.614  0.00  0.00    -0.314 N 
ATOM      2  C   UNL     1       1.895  -4.751  -1.975  0.00  0.00    +0.068 A 
ATOM      3  C   UNL     1       3.040  -4.520  -1.226  0.00  0.00    +0.028 A 
ATOM      4  C   UNL     1       3.748  -5.585  -0.706  0.00  0.00    +0.002 A 
ATOM      5  C   UNL     1       3.320  -6.883  -0.928  0.00  0.00    +0.002 A 
ATOM      6  C   UNL     1       2.183  -7.124  -1.673  0.00  0.00    +0.028 A 
ATOM      7  C   UNL     1       1.464  -6.060  -2.199  0.00  0.00    +0.066 A 
ATOM      8  N   UNL     1       0.308  -5.985  -2.970  0.00  0.00    -0.326 N 
ATOM      9  C   UNL     1       0.037  -4.673  -3.206  0.00  0.00    +0.201 A 
ATOM     10  N   UNL     1      -0.994  -4.213  -3.905  0.00  0.00    -0.142 NA
ATOM     11  H   UNL     1      -0.217  -6.739  -3.283  0.00  0.00    +0.169 HD
ENDROOT
BRANCH  10  12
ATOM     12  C   UNL     1      -1.939  -5.057  -4.336  0.00  0.00    +0.270 C 
ATOM     13  O   UNL     1      -1.901  -6.232  -4.013  0.00  0.00    -0.268 OA
BRANCH  12  14
ATOM     14  C   UNL     1      -3.030  -4.564  -5.203  0.00  0.00    +0.041 A 
ATOM     15  C   UNL     1      -3.073  -3.219  -5.578  0.00  0.00    +0.015 A 
ATOM     16  C   UNL     1      -4.089  -2.762  -6.386  0.00  0.00    +0.026 A 
ATOM     17  C   UNL     1      -5.075  -3.640  -6.829  0.00  0.00    +0.055 A 
ATOM     18  C   UNL     1      -5.036  -4.980  -6.457  0.00  0.00    +0.147 A 
ATOM     19  C   UNL     1      -4.018  -5.443  -5.654  0.00  0.00    +0.047 A 
BRANCH  18  20
ATOM     20  N   UNL     1      -6.086  -5.910  -6.929  0.00  0.00    +0.058 N 
ATOM     21  O   UNL     1      -6.483  -6.792  -6.204  0.00  0.00    -0.126 OA
ATOM     22  O   UNL     1      -6.547  -5.787  -8.040  0.00  0.00    -0.126 OA
ENDBRANCH  18  20
BRANCH  17  23
ATOM     23  N   UNL     1      -6.102  -3.176  -7.646  0.00  0.00    -0.356 N 
ATOM     24  H   UNL     1      -6.087  -2.262  -7.971  0.00  0.00    +0.142 HD
ATOM     25  H   UNL     1      -6.832  -3.766  -7.889  0.00  0.00    +0.142 HD
ENDBRANCH  17  23
ENDBRANCH  12  14
ENDBRANCH  10  12
BRANCH   1  26
ATOM     26  C   UNL     1       1.057  -2.443  -2.640  0.00  0.00    +0.106 C 
BRANCH  26  27
ATOM     27  C   UNL     1       0.288  -1.877  -1.445  0.00  0.00    -0.057 C 
BRANCH  27  28
ATOM     28  N   UNL     1       0.457  -0.419  -1.399  0.00  0.00    +0.380 N 
ATOM     29  H   UNL     1       1.441  -0.195  -1.371  0.00  0.00    -0.082 HD
BRANCH  28  31
ATOM     30  C   UNL     1       0.137   1.685  -2.611  0.00  0.00    -0.017 C 
ATOM     31  C   UNL     1      -0.147   0.182  -2.596  0.00  0.00    -0.082 C 
ENDBRANCH  28  31
BRANCH  28  32
ATOM     32  C   UNL     1      -0.201   0.113  -0.199  0.00  0.00    -0.082 C 
ATOM     33  C   UNL     1       0.509  -0.416   1.049  0.00  0.00    -0.017 C 
ENDBRANCH  28  32
ENDBRANCH  27  28
ENDBRANCH  26  27
ENDBRANCH   1  26
TORSDOF 9
