REMARK  Name = ZINC40223019
REMARK  6 active torsions:
REMARK  status: ('A' for Active; 'I' for Inactive)
REMARK    1  A    between atoms: C_1  and  C_2
REMARK    2  A    between atoms: C_3  and  N_12
REMARK    3  A    between atoms: C_7  and  S_8
REMARK    4  A    between atoms: S_8  and  N_11
REMARK    5  A    between atoms: N_12  and  S_13
REMARK    6  A    between atoms: S_13  and  C_16
REMARK                            x       y       z     vdW  Elec       q    Type
REMARK                         _______ _______ _______ _____ _____    ______ ____
ROOT
ATOM      1  C   UNL     1      -0.018   1.503   0.010  0.00  0.00    +0.048 C 
ATOM      2  C   UNL     1       0.002  -0.004   0.002  0.00  0.00    +0.000 A 
ATOM      3  C   UNL     1       0.006  -0.693  -1.204  0.00  0.00    +0.079 A 
ATOM      4  C   UNL     1       0.025  -2.082  -1.208  0.00  0.00    +0.027 A 
ATOM      5  C   UNL     1       0.041  -2.773  -0.012  0.00  0.00    +0.004 A 
ATOM      6  C   UNL     1       0.037  -2.085   1.187  0.00  0.00    +0.029 A 
ATOM      7  C   UNL     1       0.023  -0.702   1.194  0.00  0.00    +0.110 A 
ENDROOT
BRANCH   7   8
ATOM      8  S   UNL     1       0.025   0.171   2.724  0.00  0.00    +0.056 S 
ATOM      9  O   UNL     1      -1.015   1.136   2.643  0.00  0.00    -0.153 OA
ATOM     10  O   UNL     1       0.075  -0.810   3.751  0.00  0.00    -0.153 OA
BRANCH   8  11
ATOM     11  N   UNL     1       1.448   1.014   2.805  0.00  0.00    -0.204 NA
ATOM     12  H   UNL     1       1.488   1.852   3.293  0.00  0.00    +0.144 HD
ATOM     13  H   UNL     1       2.241   0.671   2.365  0.00  0.00    +0.144 HD
ENDBRANCH   8  11
ENDBRANCH   7   8
BRANCH   3  14
ATOM     14  N   UNL     1      -0.010   0.010  -2.412  0.00  0.00    -0.097 NA
BRANCH  14  15
ATOM     15  S   UNL     1      -0.006  -0.813  -3.849  0.00  0.00    +0.098 S 
ATOM     16  O   UNL     1       1.249  -1.475  -3.934  0.00  0.00    -0.148 OA
ATOM     17  O   UNL     1      -1.242  -1.511  -3.921  0.00  0.00    -0.148 OA
BRANCH  15  18
ATOM     18  C   UNL     1      -0.029   0.388  -5.137  0.00  0.00    +0.149 A 
ATOM     19  C   UNL     1       1.012   0.981  -5.770  0.00  0.00    +0.038 A 
ATOM     20  C   UNL     1       0.753   1.907  -6.764  0.00  0.00    +0.025 A 
ATOM     21  C   UNL     1      -0.535   2.195  -7.075  0.00  0.00    +0.057 A 
ATOM     22  S   UNL     1      -1.431   1.135  -5.953  0.00  0.00    -0.061 S 
ATOM     23 BR   UNL     1      -1.207   3.400  -8.368  0.00  0.00    -0.043 Br
ENDBRANCH  15  18
ENDBRANCH  14  15
ENDBRANCH   3  14
TORSDOF 5
