REMARK  Name = ZINC42373330
REMARK  7 active torsions:
REMARK  status: ('A' for Active; 'I' for Inactive)
REMARK    1  A    between atoms: C_1  and  C_2
REMARK    2  A    between atoms: C_2  and  C_4
REMARK    3  A    between atoms: C_2  and  N_10
REMARK    4  A    between atoms: C_11  and  C_13
REMARK    5  A    between atoms: C_17  and  O_20
REMARK    6  A    between atoms: C_18  and  O_19
REMARK    7  A    between atoms: O_20  and  C_21
REMARK                            x       y       z     vdW  Elec       q    Type
REMARK                         _______ _______ _______ _____ _____    ______ ____
ROOT
ATOM      1  N   UNL     1       0.711  -0.489   1.189  0.00  0.00    -0.304 N 
ATOM      2  C   UNL     1       0.051  -0.633   2.355  0.00  0.00    +0.248 C 
ATOM      3  O   UNL     1      -1.132  -0.361   2.423  0.00  0.00    -0.270 OA
ATOM      4  H   UNL     1       1.654  -0.707   1.135  0.00  0.00    +0.150 HD
ENDROOT
BRANCH   2   5
ATOM      5  C   UNL     1       0.765  -1.122   3.551  0.00  0.00    +0.082 A 
ATOM      6  C   UNL     1       2.126  -1.431   3.479  0.00  0.00    +0.017 A 
ATOM      7  C   UNL     1       2.789  -1.887   4.597  0.00  0.00    +0.005 A 
ATOM      8  C   UNL     1       2.114  -2.042   5.797  0.00  0.00    +0.049 A 
ATOM      9  C   UNL     1       0.766  -1.740   5.884  0.00  0.00    +0.162 A 
ATOM     10  C   UNL     1       0.083  -1.273   4.764  0.00  0.00    +0.171 A 
BRANCH  10  11
ATOM     11  O   UNL     1      -1.237  -0.971   4.847  0.00  0.00    -0.503 OA
ATOM     12  H   UNL     1      -1.824  -1.714   4.653  0.00  0.00    +0.292 HD
ENDBRANCH  10  11
BRANCH   9  13
ATOM     13  O   UNL     1       0.109  -1.895   7.065  0.00  0.00    -0.491 OA
ATOM     14  C   UNL     1       0.873  -2.372   8.174  0.00  0.00    +0.277 C 
ENDBRANCH   9  13
ENDBRANCH   2   5
BRANCH   1  16
ATOM     15  C   UNL     1      -0.019   1.526   0.010  0.00  0.00    +0.033 C 
ATOM     16  C   UNL     1       0.002  -0.004   0.002  0.00  0.00    +0.107 C 
BRANCH  16  17
ATOM     17  C   UNL     1       0.707  -0.490  -1.238  0.00  0.00    +0.011 A 
ATOM     18  C   UNL     1       0.176  -0.943  -2.400  0.00  0.00    +0.014 A 
ATOM     19  C   UNL     1       1.026  -1.341  -3.415  0.00  0.00    +0.028 A 
ATOM     20  C   UNL     1       2.366  -1.267  -3.218  0.00  0.00    +0.078 A 
ATOM     21  S   UNL     1       2.459  -0.612  -1.560  0.00  0.00    -0.080 S 
ATOM     22 CL   UNL     1       3.656  -1.693  -4.299  0.00  0.00    -0.076 Cl
ENDBRANCH  16  17
ENDBRANCH   1  16
TORSDOF 5
