REMARK  Name = ZINC35735582
REMARK  5 active torsions:
REMARK  status: ('A' for Active; 'I' for Inactive)
REMARK    1  A    between atoms: C_1  and  C_2
REMARK    2  A    between atoms: C_2  and  C_4
REMARK    3  A    between atoms: C_2  and  N_10
REMARK    4  A    between atoms: N_10  and  C_11
REMARK    5  A    between atoms: C_11  and  C_12
REMARK                            x       y       z     vdW  Elec       q    Type
REMARK                         _______ _______ _______ _____ _____    ______ ____
ROOT
ATOM      1  C   UNL     1       0.504  -1.036  -3.564  0.00  0.00    +0.125 A 
ATOM      2  N   UNL     1       1.773  -1.316  -3.447  0.00  0.00    -0.194 NA
ATOM      3  C   UNL     1       2.476  -1.757  -4.513  0.00  0.00    +0.288 A 
ATOM      4  O   UNL     1       3.664  -2.021  -4.407  0.00  0.00    -0.265 OA
ATOM      5  C   UNL     1       1.819  -1.907  -5.739  0.00  0.00    +0.102 A 
ATOM      6  C   UNL     1       0.458  -1.609  -5.875  0.00  0.00    +0.060 A 
ATOM      7  N   UNL     1      -0.176  -1.165  -4.711  0.00  0.00    -0.341 N 
ATOM      8  C   UNL     1      -0.081  -1.798  -7.148  0.00  0.00    +0.034 A 
ATOM      9  C   UNL     1       0.700  -2.244  -8.158  0.00  0.00    +0.048 A 
ATOM     10  S   UNL     1       2.289  -2.432  -7.366  0.00  0.00    -0.090 S 
ATOM     11  H   UNL     1      -1.121  -0.945  -4.735  0.00  0.00    +0.167 HD
ENDROOT
BRANCH   1  12
ATOM     12  C   UNL     1      -0.235  -0.547  -2.346  0.00  0.00    +0.156 C 
BRANCH  12  13
ATOM     13  N   UNL     1       0.690  -0.478  -1.207  0.00  0.00    -0.304 NA
ATOM     14  H   UNL     1       1.485   0.104  -1.422  0.00  0.00    +0.123 HD
BRANCH  13  16
ATOM     15  C   UNL     1      -0.019   1.526   0.010  0.00  0.00    +0.026 C 
ATOM     16  C   UNL     1       0.002  -0.004   0.002  0.00  0.00    +0.080 C 
BRANCH  16  17
ATOM     17  C   UNL     1       0.742  -0.511   1.242  0.00  0.00    +0.135 C 
ATOM     18  C   UNL     1       0.915  -2.049   1.173  0.00  0.00    +0.035 C 
ATOM     19  C   UNL     1       2.161  -2.246   2.080  0.00  0.00    +0.031 C 
ATOM     20  C   UNL     1       2.979  -0.969   1.794  0.00  0.00    +0.160 C 
ATOM     21  O   UNL     1       2.077   0.018   1.276  0.00  0.00    -0.375 OA
ENDBRANCH  16  17
ENDBRANCH  13  16
ENDBRANCH  12  13
ENDBRANCH   1  12
TORSDOF 4
