REMARK  Name = ZINC21166204
REMARK  7 active torsions:
REMARK  status: ('A' for Active; 'I' for Inactive)
REMARK    1  A    between atoms: C_1  and  C_2
REMARK    2  A    between atoms: C_3  and  C_7
REMARK    3  A    between atoms: C_10  and  S_13
REMARK    4  A    between atoms: N_11  and  N_12
REMARK    5  A    between atoms: S_13  and  C_14
REMARK    6  A    between atoms: C_14  and  C_15
REMARK    7  A    between atoms: N_17  and  C_18
REMARK                            x       y       z     vdW  Elec       q    Type
REMARK                         _______ _______ _______ _____ _____    ______ ____
ROOT
ATOM      1  C   UNL     1      -0.035   5.651  -0.184  0.00  0.00    +0.173 C 
ENDROOT
BRANCH   1   2
ATOM      2  C   UNL     1      -0.019   4.147  -0.078  0.00  0.00    +0.227 C 
ATOM      3  O   UNL     1      -1.062   3.529  -0.072  0.00  0.00    -0.275 OA
ATOM      4  N   UNL     1       1.155   3.490   0.009  0.00  0.00    -0.285 N 
ATOM      5  H   UNL     1       2.096   4.054   0.091  0.00  0.00    +0.155 HD
BRANCH   4   6
ATOM      6  C   UNL     1       1.176   2.090  -0.004  0.00  0.00    +0.037 A 
ATOM      7  C   UNL     1       0.237   1.388  -0.749  0.00  0.00    +0.027 A 
ATOM      8  C   UNL     1       0.257   0.006  -0.763  0.00  0.00    +0.051 A 
ATOM      9  C   UNL     1       1.213  -0.683  -0.035  0.00  0.00    +0.173 A 
ATOM     10  C   UNL     1       2.156   0.018   0.714  0.00  0.00    +0.174 A 
ATOM     11  C   UNL     1       2.135   1.403   0.728  0.00  0.00    +0.073 A 
ATOM     12  O   UNL     1       2.978  -0.879   1.332  0.00  0.00    -0.395 OA
ATOM     13  C   UNL     1       2.785  -2.123   0.632  0.00  0.00    +0.589 C 
ATOM     14  O   UNL     1       1.445  -2.021   0.116  0.00  0.00    -0.395 OA
ATOM     15  F   UNL     1       3.707  -2.246  -0.413  0.00  0.00    -0.125 F 
ATOM     16  F   UNL     1       2.894  -3.205   1.513  0.00  0.00    -0.125 F 
ENDBRANCH   4   6
ENDBRANCH   1   2
BRANCH   1  17
ATOM     17  S   UNL     1      -1.746   6.230  -0.285  0.00  0.00    -0.075 S 
BRANCH  17  21
ATOM     18  C   UNL     1      -1.757  10.128  -0.558  0.00  0.00    +0.185 A 
ATOM     19  N   UNL     1      -0.477   9.847  -0.494  0.00  0.00    -0.127 NA
ATOM     20  N   UNL     1      -0.311   8.576  -0.399  0.00  0.00    -0.121 NA
ATOM     21  C   UNL     1      -1.475   7.968  -0.397  0.00  0.00    +0.209 A 
ATOM     22  N   UNL     1      -2.436   8.934  -0.504  0.00  0.00    -0.224 N 
BRANCH  18  25
ATOM     23  C   UNL     1      -0.203  12.848  -0.681  0.00  0.00    +0.087 C 
ATOM     24  C   UNL     1      -1.698  12.665  -0.728  0.00  0.00    +0.112 A 
ATOM     25  C   UNL     1      -2.356  11.476  -0.673  0.00  0.00    +0.061 A 
ATOM     26  C   UNL     1      -3.784  11.808  -0.746  0.00  0.00    +0.053 A 
ATOM     27  C   UNL     1      -3.850  13.146  -0.842  0.00  0.00    +0.196 A 
ATOM     28  O   UNL     1      -2.605  13.647  -0.833  0.00  0.00    -0.467 OA
ENDBRANCH  18  25
BRANCH  22  29
ATOM     29  N   UNL     1      -3.789   8.751  -0.546  0.00  0.00    -0.295 N 
ATOM     30  H   UNL     1      -4.209   7.735  -0.494  0.00  0.00    +0.163 HD
ATOM     31  H   UNL     1      -4.460   9.619  -0.631  0.00  0.00    +0.163 HD
ENDBRANCH  22  29
ENDBRANCH  17  21
ENDBRANCH   1  17
TORSDOF 6
