REMARK  Name = ZINC36296439
REMARK  7 active torsions:
REMARK  status: ('A' for Active; 'I' for Inactive)
REMARK    1  A    between atoms: C_1  and  O_2
REMARK    2  A    between atoms: O_2  and  C_3
REMARK    3  A    between atoms: C_6  and  C_9
REMARK    4  A    between atoms: C_14  and  C_23
REMARK    5  A    between atoms: C_15  and  C_17
REMARK    6  A    between atoms: C_23  and  C_24
REMARK    7  A    between atoms: C_24  and  N_25
REMARK                            x       y       z     vdW  Elec       q    Type
REMARK                         _______ _______ _______ _____ _____    ______ ____
ROOT
ATOM      1  C   UNL     1      -5.119  -2.390   0.166  0.00  0.00    +0.063 A 
ATOM      2  C   UNL     1      -5.852  -2.402  -0.964  0.00  0.00    +0.075 A 
ATOM      3  S   UNL     1      -7.039  -3.691  -0.621  0.00  0.00    -0.057 S 
ATOM      4  C   UNL     1      -6.467  -4.118   1.007  0.00  0.00    +0.179 A 
ATOM      5  N   UNL     1      -5.410  -3.267   1.196  0.00  0.00    -0.290 N 
ATOM      6  C   UNL     1      -4.924  -3.570   2.462  0.00  0.00    +0.050 A 
ATOM      7  C   UNL     1      -5.688  -4.570   2.966  0.00  0.00    +0.095 A 
ATOM      8  N   UNL     1      -6.631  -4.877   2.051  0.00  0.00    -0.221 NA
ENDROOT
BRANCH   1  12
ATOM      9  C   UNL     1      -1.888   0.342   0.563  0.00  0.00    +0.120 A 
ATOM     10  C   UNL     1      -3.189   0.818   0.470  0.00  0.00    +0.046 A 
ATOM     11  C   UNL     1      -4.240  -0.066   0.341  0.00  0.00    +0.013 A 
ATOM     12  C   UNL     1      -3.995  -1.439   0.303  0.00  0.00    -0.000 A 
ATOM     13  C   UNL     1      -2.685  -1.913   0.397  0.00  0.00    +0.013 A 
ATOM     14  C   UNL     1      -1.639  -1.023   0.521  0.00  0.00    +0.046 A 
BRANCH   9  16
ATOM     15  C   UNL     1      -1.182   2.606   0.728  0.00  0.00    +0.277 C 
ATOM     16  O   UNL     1      -0.855   1.216   0.691  0.00  0.00    -0.495 OA
ENDBRANCH   9  16
ENDBRANCH   1  12
BRANCH   7  17
ATOM     17  C   UNL     1      -5.524  -5.206   4.296  0.00  0.00    +0.020 A 
ATOM     18  C   UNL     1      -4.253  -5.543   4.770  0.00  0.00    +0.013 A 
ATOM     19  C   UNL     1      -4.153  -6.135   6.017  0.00  0.00    +0.020 A 
ATOM     20  C   UNL     1      -5.303  -6.373   6.747  0.00  0.00    +0.111 A 
ATOM     21  N   UNL     1      -6.490  -6.043   6.274  0.00  0.00    -0.263 NA
ATOM     22  C   UNL     1      -6.634  -5.473   5.095  0.00  0.00    +0.120 A 
ENDBRANCH   7  17
BRANCH   6  23
ATOM     23  C   UNL     1      -3.759  -2.908   3.151  0.00  0.00    +0.036 C 
BRANCH  23  24
ATOM     24  C   UNL     1      -4.236  -1.633   3.848  0.00  0.00    -0.080 C 
BRANCH  24  25
ATOM     25  N   UNL     1      -3.099  -0.987   4.519  0.00  0.00    +0.378 N 
ATOM     26  H   UNL     1      -3.414  -0.146   4.979  0.00  0.00    -0.090 HD
ATOM     27  H   UNL     1      -2.709  -1.619   5.203  0.00  0.00    -0.090 HD
ATOM     28  H   UNL     1      -2.394  -0.753   3.836  0.00  0.00    -0.090 HD
ENDBRANCH  24  25
ENDBRANCH  23  24
ENDBRANCH   6  23
TORSDOF 6
