REMARK  Name = ZINC52067652
REMARK  9 active torsions:
REMARK  status: ('A' for Active; 'I' for Inactive)
REMARK    1  A    between atoms: C_1  and  C_2
REMARK    2  A    between atoms: C_2  and  C_3
REMARK    3  A    between atoms: C_3  and  N_4
REMARK    4  A    between atoms: N_4  and  C_5
REMARK    5  A    between atoms: C_5  and  C_7
REMARK    6  A    between atoms: C_5  and  C_8
REMARK    7  A    between atoms: C_13  and  O_14
REMARK    8  A    between atoms: O_14  and  C_15
REMARK    9  A    between atoms: C_15  and  C_16
REMARK                            x       y       z     vdW  Elec       q    Type
REMARK                         _______ _______ _______ _____ _____    ______ ____
ROOT
ATOM      1  C   UNL     1      -2.772  -4.013   0.131  0.00  0.00    -0.019 A 
ATOM      2  C   UNL     1      -1.629  -4.717  -0.197  0.00  0.00    +0.020 A 
ATOM      3  C   UNL     1      -1.610  -6.096  -0.091  0.00  0.00    +0.018 A 
ATOM      4  C   UNL     1      -2.736  -6.774   0.343  0.00  0.00    +0.019 A 
ATOM      5  C   UNL     1      -3.880  -6.074   0.672  0.00  0.00    +0.047 A 
ATOM      6  C   UNL     1      -3.899  -4.690   0.571  0.00  0.00    +0.123 A 
ATOM      7 BR   UNL     1      -0.044  -7.056  -0.540  0.00  0.00    -0.050 Br
ENDROOT
BRANCH   1   8
ATOM      8  C   UNL     1      -2.792  -2.511   0.015  0.00  0.00    -0.040 C 
ATOM      9  C   UNL     1      -3.494  -2.108  -1.283  0.00  0.00    -0.009 C 
BRANCH   8  10
ATOM     10  N   UNL     1      -1.413  -2.002   0.005  0.00  0.00    +0.383 N 
ATOM     11  H   UNL     1      -0.941  -2.328  -0.825  0.00  0.00    -0.085 HD
ATOM     12  H   UNL     1      -0.925  -2.337   0.822  0.00  0.00    -0.085 HD
BRANCH  10  13
ATOM     13  C   UNL     1      -1.433  -0.534   0.013  0.00  0.00    -0.082 C 
BRANCH  13  15
ATOM     14  C   UNL     1      -0.019   1.526   0.010  0.00  0.00    +0.002 C 
ATOM     15  C   UNL     1       0.002  -0.004   0.002  0.00  0.00    -0.022 C 
ENDBRANCH  13  15
ENDBRANCH  10  13
ENDBRANCH   8  10
ENDBRANCH   1   8
BRANCH   6  16
ATOM     16  O   UNL     1      -5.023  -4.000   0.899  0.00  0.00    -0.483 OA
BRANCH  16  17
ATOM     17  C   UNL     1      -6.146  -4.762   1.345  0.00  0.00    +0.324 C 
BRANCH  17  18
ATOM     18  C   UNL     1      -7.291  -3.834   1.660  0.00  0.00    +0.248 C 
ATOM     19  O   UNL     1      -7.158  -2.637   1.517  0.00  0.00    -0.272 OA
ATOM     20  N   UNL     1      -8.462  -4.333   2.101  0.00  0.00    -0.327 N 
ATOM     21  H   UNL     1      -8.569  -5.291   2.216  0.00  0.00    +0.145 HD
ATOM     22  H   UNL     1      -9.199  -3.736   2.304  0.00  0.00    +0.145 HD
ENDBRANCH  17  18
ENDBRANCH  16  17
ENDBRANCH   6  16
TORSDOF 7
