REMARK  Name = ZINC43965596
REMARK  8 active torsions:
REMARK  status: ('A' for Active; 'I' for Inactive)
REMARK    1  A    between atoms: C_1  and  C_2
REMARK    2  A    between atoms: C_2  and  N_3
REMARK    3  A    between atoms: N_3  and  C_4
REMARK    4  A    between atoms: C_12  and  N_14
REMARK    5  A    between atoms: N_17  and  C_20
REMARK    6  A    between atoms: C_20  and  C_21
REMARK    7  A    between atoms: C_20  and  C_22
REMARK    8  A    between atoms: C_20  and  C_23
REMARK                            x       y       z     vdW  Elec       q    Type
REMARK                         _______ _______ _______ _____ _____    ______ ____
ROOT
ATOM      1  C   UNL     1       1.054  -2.020  -1.050  0.00  0.00    -0.054 C 
ATOM      2  C   UNL     1      -0.410  -2.374  -0.779  0.00  0.00    -0.014 C 
ATOM      3  C   UNL     1      -0.701  -3.780  -1.309  0.00  0.00    -0.002 C 
ATOM      4  C   UNL     1      -0.106  -4.818  -0.355  0.00  0.00    -0.000 C 
ATOM      5  C   UNL     1       1.410  -4.882  -0.553  0.00  0.00    +0.000 C 
ATOM      6  C   UNL     1       1.730  -4.883  -2.049  0.00  0.00    +0.001 C 
ATOM      7  C   UNL     1       2.444  -3.581  -2.419  0.00  0.00    +0.017 C 
ATOM      8  C   UNL     1       1.426  -2.440  -2.473  0.00  0.00    +0.042 C 
ENDROOT
BRANCH   8   9
ATOM      9  N   UNL     1       2.011  -1.295  -3.184  0.00  0.00    -0.304 NA
ATOM     10  C   UNL     1       1.877  -1.454  -4.639  0.00  0.00    +0.066 C 
ATOM     11  C   UNL     1       2.443  -0.216  -5.339  0.00  0.00    -0.062 C 
ATOM     12  N   UNL     1       3.857  -0.052  -4.975  0.00  0.00    +0.385 N 
ATOM     13  C   UNL     1       3.973   0.130  -3.522  0.00  0.00    -0.062 C 
ATOM     14  C   UNL     1       3.419  -1.105  -2.808  0.00  0.00    +0.066 C 
ATOM     15  H   UNL     1       4.373  -0.874  -5.253  0.00  0.00    -0.081 HD
BRANCH  12  16
ATOM     16  C   UNL     1       4.405   1.125  -5.661  0.00  0.00    -0.074 C 
ATOM     17  C   UNL     1       3.622   2.371  -5.241  0.00  0.00    -0.010 C 
ATOM     18  C   UNL     1       5.878   1.296  -5.283  0.00  0.00    -0.010 C 
ATOM     19  C   UNL     1       4.286   0.935  -7.175  0.00  0.00    -0.010 C 
ENDBRANCH  12  16
ENDBRANCH   8   9
BRANCH   1  20
ATOM     20  N   UNL     1       1.242  -0.571  -0.902  0.00  0.00    +0.382 N 
ATOM     21  H   UNL     1       0.590  -0.084  -1.498  0.00  0.00    -0.085 HD
ATOM     22  H   UNL     1       2.185  -0.326  -1.165  0.00  0.00    -0.085 HD
BRANCH  20  24
ATOM     23  C   UNL     1       1.205   1.322   0.651  0.00  0.00    -0.017 C 
ATOM     24  C   UNL     1       1.009  -0.187   0.497  0.00  0.00    -0.086 C 
ENDBRANCH  20  24
ENDBRANCH   1  20
TORSDOF 4
