REMARK  Name = ZINC00670845
REMARK  6 active torsions:
REMARK  status: ('A' for Active; 'I' for Inactive)
REMARK    1  A    between atoms: C_1  and  C_2
REMARK    2  A    between atoms: C_2  and  C_3
REMARK    3  A    between atoms: C_10  and  N_15
REMARK    4  A    between atoms: C_11  and  C_12
REMARK    5  A    between atoms: C_16  and  C_18
REMARK    6  A    between atoms: C_20  and  C_28
REMARK                            x       y       z     vdW  Elec       q    Type
REMARK                         _______ _______ _______ _____ _____    ______ ____
ROOT
ATOM      1  N   UNL     1       0.002  -0.004  -0.012  0.00  0.00    -0.275 N 
ATOM      2  C   UNL     1       1.178  -0.662  -0.012  0.00  0.00    +0.249 C 
ATOM      3  O   UNL     1       2.223  -0.040  -0.006  0.00  0.00    -0.270 OA
ATOM      4  H   UNL     1      -0.831  -0.500  -0.017  0.00  0.00    +0.156 HD
ENDROOT
BRANCH   2   5
ATOM      5  C   UNL     1       1.198  -2.140  -0.020  0.00  0.00    +0.048 A 
ATOM      6  C   UNL     1       0.029  -2.877   0.090  0.00  0.00    +0.045 A 
ATOM      7  C   UNL     1       0.094  -4.282   0.071  0.00  0.00    +0.107 A 
ATOM      8  N   UNL     1       1.238  -4.931  -0.036  0.00  0.00    -0.244 NA
ATOM      9  C   UNL     1       2.409  -4.300  -0.141  0.00  0.00    +0.073 A 
ATOM     10  C   UNL     1       2.454  -2.883  -0.139  0.00  0.00    +0.013 A 
ATOM     11  C   UNL     1       3.684  -2.227  -0.249  0.00  0.00    +0.011 A 
ATOM     12  C   UNL     1       4.830  -2.957  -0.358  0.00  0.00    +0.001 A 
ATOM     13  C   UNL     1       4.792  -4.349  -0.360  0.00  0.00    +0.002 A 
ATOM     14  C   UNL     1       3.613  -5.020  -0.254  0.00  0.00    +0.028 A 
BRANCH   7  15
ATOM     15  C   UNL     1      -1.157  -5.055   0.181  0.00  0.00    +0.153 A 
ATOM     16  C   UNL     1      -1.260  -6.412   0.179  0.00  0.00    +0.051 A 
ATOM     17  C   UNL     1      -2.629  -6.715   0.306  0.00  0.00    +0.042 A 
ATOM     18  C   UNL     1      -3.289  -5.540   0.372  0.00  0.00    +0.196 A 
ATOM     19  O   UNL     1      -2.397  -4.541   0.296  0.00  0.00    -0.461 OA
ENDBRANCH   7  15
ENDBRANCH   2   5
BRANCH   1  26
ATOM     20  C   UNL     1      -0.120   6.372   0.403  0.00  0.00    -0.006 C 
ATOM     21  C   UNL     1      -1.358   6.050  -0.439  0.00  0.00    +0.008 C 
ATOM     22  C   UNL     1      -1.958   4.716   0.008  0.00  0.00    +0.037 C 
ATOM     23  C   UNL     1      -0.861   3.659   0.006  0.00  0.00    -0.023 A 
ATOM     24  C   UNL     1       0.444   4.011   0.012  0.00  0.00    -0.004 A 
ATOM     25  S   UNL     1       1.326   2.476   0.005  0.00  0.00    -0.077 S 
ATOM     26  C   UNL     1      -0.017   1.381  -0.004  0.00  0.00    +0.085 A 
ATOM     27  C   UNL     1      -1.116   2.229  -0.009  0.00  0.00    +0.068 A 
ATOM     28  C   UNL     1       1.005   5.399   0.022  0.00  0.00    +0.046 C 
BRANCH  27  29
ATOM     29  C   UNL     1      -2.484   1.700  -0.022  0.00  0.00    +0.244 C 
ATOM     30  O   UNL     1      -3.060   1.476   1.026  0.00  0.00    -0.270 OA
ATOM     31  N   UNL     1      -3.103   1.464  -1.196  0.00  0.00    -0.325 N 
ATOM     32  H   UNL     1      -2.643   1.643  -2.031  0.00  0.00    +0.145 HD
ATOM     33  H   UNL     1      -4.007   1.114  -1.205  0.00  0.00    +0.145 HD
ENDBRANCH  27  29
BRANCH  20  35
ATOM     34  C   UNL     1       1.485   8.171   1.061  0.00  0.00    +0.004 C 
ATOM     35  C   UNL     1       0.326   7.810   0.129  0.00  0.00    +0.000 C 
ENDBRANCH  20  35
ENDBRANCH   1  26
TORSDOF 5
