REMARK  Name = ZINC50631707
REMARK  5 active torsions:
REMARK  status: ('A' for Active; 'I' for Inactive)
REMARK    1  A    between atoms: C_1  and  C_2
REMARK    2  A    between atoms: C_6  and  C_19
REMARK    3  A    between atoms: C_7  and  N_8
REMARK    4  A    between atoms: N_8  and  S_9
REMARK    5  A    between atoms: S_9  and  C_12
REMARK                            x       y       z     vdW  Elec       q    Type
REMARK                         _______ _______ _______ _____ _____    ______ ____
ROOT
ATOM      1  S   UNL     1      -0.166  -0.949   3.827  0.00  0.00    +0.093 S 
ATOM      2  O   UNL     1      -1.300  -1.804   3.800  0.00  0.00    -0.148 OA
ATOM      3  O   UNL     1       1.154  -1.438   4.022  0.00  0.00    -0.148 OA
ENDROOT
BRANCH   1   4
ATOM      4  C   UNL     1      -0.457   0.235   5.099  0.00  0.00    +0.126 A 
ATOM      5  C   UNL     1       0.607   0.886   5.709  0.00  0.00    +0.033 A 
ATOM      6  C   UNL     1       0.335   1.807   6.704  0.00  0.00    +0.043 A 
ATOM      7  C   UNL     1      -0.988   2.049   7.058  0.00  0.00    +0.094 A 
ATOM      8  N   UNL     1      -1.976   1.408   6.453  0.00  0.00    -0.348 N 
ATOM      9  C   UNL     1      -1.746   0.528   5.497  0.00  0.00    +0.113 A 
ATOM     10  N   UNL     1      -1.276   2.972   8.057  0.00  0.00    -0.345 N 
ATOM     11  H   UNL     1      -0.556   3.445   8.503  0.00  0.00    +0.144 HD
ATOM     12  H   UNL     1      -2.197   3.144   8.307  0.00  0.00    +0.144 HD
ATOM     13  H   UNL     1      -2.891   1.592   6.717  0.00  0.00    +0.167 HD
ENDBRANCH   1   4
BRANCH   1  14
ATOM     14  N   UNL     1      -0.158  -0.128   2.388  0.00  0.00    -0.097 NA
BRANCH  14  21
ATOM     15  C   UNL     1       2.251   0.346   0.952  0.00  0.00    +0.046 C 
ATOM     16  C   UNL     1       1.204  -0.619   0.457  0.00  0.00    -0.025 A 
ATOM     17  C   UNL     1       1.402  -1.308  -0.723  0.00  0.00    +0.020 A 
ATOM     18  C   UNL     1       0.441  -2.194  -1.178  0.00  0.00    +0.018 A 
ATOM     19  C   UNL     1      -0.720  -2.392  -0.452  0.00  0.00    +0.020 A 
ATOM     20  C   UNL     1      -0.924  -1.705   0.729  0.00  0.00    -0.025 A 
ATOM     21  C   UNL     1       0.042  -0.820   1.191  0.00  0.00    +0.080 A 
ATOM     22  C   UNL     1      -2.189  -1.920   1.518  0.00  0.00    +0.046 C 
ATOM     23 BR   UNL     1       0.715  -3.135  -2.795  0.00  0.00    -0.050 Br
ENDBRANCH  14  21
ENDBRANCH   1  14
TORSDOF 3
