REMARK  Name = ZINC37054822
REMARK  7 active torsions:
REMARK  status: ('A' for Active; 'I' for Inactive)
REMARK    1  A    between atoms: C_1  and  C_2
REMARK    2  A    between atoms: C_5  and  N_22
REMARK    3  A    between atoms: C_6  and  S_9
REMARK    4  A    between atoms: C_7  and  C_8
REMARK    5  A    between atoms: S_9  and  N_12
REMARK    6  A    between atoms: C_14  and  C_21
REMARK    7  A    between atoms: C_17  and  C_20
REMARK                            x       y       z     vdW  Elec       q    Type
REMARK                         _______ _______ _______ _____ _____    ______ ____
ROOT
ATOM      1  C   UNL     1       0.308   0.975  -0.442  0.00  0.00    +0.044 C 
ATOM      2  C   UNL     1       0.238  -0.528  -0.368  0.00  0.00    -0.046 A 
ATOM      3  C   UNL     1       0.499  -1.287  -1.494  0.00  0.00    +0.005 A 
ATOM      4  C   UNL     1       0.436  -2.665  -1.430  0.00  0.00    +0.025 A 
ATOM      5  C   UNL     1       0.110  -3.289  -0.232  0.00  0.00    +0.052 A 
ATOM      6  C   UNL     1      -0.151  -2.524   0.897  0.00  0.00    +0.129 A 
ATOM      7  C   UNL     1      -0.081  -1.146   0.827  0.00  0.00    -0.019 A 
ATOM      8  C   UNL     1      -0.359  -0.315   2.054  0.00  0.00    +0.046 C 
ENDROOT
BRANCH   6   9
ATOM      9  S   UNL     1      -0.566  -3.309   2.419  0.00  0.00    +0.063 S 
ATOM     10  O   UNL     1      -1.265  -2.347   3.196  0.00  0.00    -0.153 OA
ATOM     11  O   UNL     1      -1.126  -4.572   2.085  0.00  0.00    -0.153 OA
BRANCH   9  12
ATOM     12  N   UNL     1       0.854  -3.618   3.213  0.00  0.00    -0.172 NA
ATOM     13  C   UNL     1       1.652  -4.814   2.903  0.00  0.00    +0.140 C 
ATOM     14  C   UNL     1       3.100  -4.379   2.653  0.00  0.00    +0.131 C 
ATOM     15  O   UNL     1       3.549  -3.585   3.754  0.00  0.00    -0.371 OA
ATOM     16  C   UNL     1       2.819  -2.370   3.936  0.00  0.00    +0.131 C 
ATOM     17  C   UNL     1       1.359  -2.699   4.247  0.00  0.00    +0.140 C 
ATOM     18  C   UNL     1       3.425  -1.577   5.096  0.00  0.00    +0.039 C 
ATOM     19  C   UNL     1       3.172  -3.556   1.365  0.00  0.00    +0.039 C 
ENDBRANCH   9  12
ENDBRANCH   6   9
BRANCH   5  20
ATOM     20  N   UNL     1       0.045  -4.682  -0.163  0.00  0.00    -0.356 N 
ATOM     21  H   UNL     1      -0.041  -5.205  -0.976  0.00  0.00    +0.142 HD
ATOM     22  H   UNL     1       0.086  -5.128   0.697  0.00  0.00    +0.142 HD
ENDBRANCH   5  20
TORSDOF 3
