REMARK  Name = ZINC18054000
REMARK  8 active torsions:
REMARK  status: ('A' for Active; 'I' for Inactive)
REMARK    1  A    between atoms: C_1  and  O_2
REMARK    2  A    between atoms: O_2  and  C_3
REMARK    3  A    between atoms: C_8  and  O_9
REMARK    4  A    between atoms: O_9  and  C_10
REMARK    5  A    between atoms: C_15  and  C_18
REMARK    6  A    between atoms: N_20  and  C_21
REMARK    7  A    between atoms: C_21  and  C_22
REMARK    8  A    between atoms: C_22  and  C_23
REMARK                            x       y       z     vdW  Elec       q    Type
REMARK                         _______ _______ _______ _____ _____    ______ ____
ROOT
ATOM      1  C   UNL     1       0.605  -0.620   1.055  0.00  0.00    +0.162 A 
ATOM      2  C   UNL     1       1.174   0.135   2.059  0.00  0.00    +0.063 A 
ATOM      3  C   UNL     1       1.828  -0.501   3.117  0.00  0.00    +0.050 A 
ATOM      4  C   UNL     1       1.906  -1.904   3.159  0.00  0.00    +0.057 A 
ATOM      5  C   UNL     1       1.327  -2.652   2.141  0.00  0.00    +0.075 A 
ATOM      6  C   UNL     1       0.677  -2.015   1.099  0.00  0.00    +0.163 A 
ATOM      7  N   UNL     1       2.555  -2.529   4.208  0.00  0.00    -0.321 N 
ATOM      8  H   UNL     1       2.601  -3.498   4.223  0.00  0.00    +0.169 HD
ATOM      9  C   UNL     1       3.128  -1.828   5.212  0.00  0.00    +0.265 A 
ATOM     10  O   UNL     1       3.746  -2.495   6.206  0.00  0.00    -0.267 OA
ATOM     11  C   UNL     1       3.097  -0.437   5.248  0.00  0.00    +0.148 A 
ATOM     12  C   UNL     1       2.446   0.278   4.204  0.00  0.00    +0.205 A 
ATOM     13  O   UNL     1       2.403   1.496   4.208  0.00  0.00    -0.286 OA
ENDROOT
BRANCH  11  14
ATOM     14  C   UNL     1       3.731   0.287   6.356  0.00  0.00    +0.253 C 
ATOM     15  O   UNL     1       4.191  -0.327   7.300  0.00  0.00    -0.270 OA
ATOM     16  N   UNL     1       3.803   1.633   6.327  0.00  0.00    -0.311 N 
ATOM     17  H   UNL     1       3.371   2.126   5.612  0.00  0.00    +0.149 HD
BRANCH  16  18
ATOM     18  C   UNL     1       4.532   2.349   7.376  0.00  0.00    +0.109 C 
BRANCH  18  19
ATOM     19  C   UNL     1       4.461   3.854   7.109  0.00  0.00    +0.054 C 
BRANCH  19  20
ATOM     20  C   UNL     1       5.212   4.592   8.188  0.00  0.00    -0.046 A 
ATOM     21  C   UNL     1       4.555   4.992   9.336  0.00  0.00    +0.005 A 
ATOM     22  C   UNL     1       5.243   5.669  10.326  0.00  0.00    +0.020 A 
ATOM     23  C   UNL     1       6.589   5.945  10.167  0.00  0.00    +0.041 A 
ATOM     24  C   UNL     1       7.246   5.544   9.017  0.00  0.00    +0.020 A 
ATOM     25  C   UNL     1       6.558   4.862   8.031  0.00  0.00    +0.005 A 
ATOM     26 CL   UNL     1       7.454   6.795  11.409  0.00  0.00    -0.084 Cl
ENDBRANCH  19  20
ENDBRANCH  18  19
ENDBRANCH  16  18
ENDBRANCH  11  14
BRANCH   1  28
ATOM     27  C   UNL     1      -0.069   1.422   0.040  0.00  0.00    +0.277 C 
ATOM     28  O   UNL     1      -0.033  -0.006   0.023  0.00  0.00    -0.491 OA
ENDBRANCH   1  28
BRANCH   6  29
ATOM     29  O   UNL     1       0.109  -2.751   0.109  0.00  0.00    -0.491 OA
ATOM     30  C   UNL     1       0.217  -4.172   0.213  0.00  0.00    +0.277 C 
ENDBRANCH   6  29
TORSDOF 6
