REMARK  Name = ZINC65263292
REMARK  5 active torsions:
REMARK  status: ('A' for Active; 'I' for Inactive)
REMARK    1  A    between atoms: C_1  and  C_2
REMARK    2  A    between atoms: C_2  and  C_3
REMARK    3  A    between atoms: C_2  and  N_20
REMARK    4  A    between atoms: C_9  and  C_10
REMARK    5  A    between atoms: C_24  and  C_26
REMARK                            x       y       z     vdW  Elec       q    Type
REMARK                         _______ _______ _______ _____ _____    ______ ____
ROOT
ATOM      1  C   UNL     1       0.613  -0.436  -1.189  0.00  0.00    +0.233 C 
ATOM      2  O   UNL     1      -0.041  -1.101  -1.965  0.00  0.00    -0.274 OA
ATOM      3  N   UNL     1       1.893  -0.129  -1.477  0.00  0.00    -0.293 N 
ATOM      4  C   UNL     1       2.767   0.748  -0.677  0.00  0.00    +0.108 C 
ATOM      5  C   UNL     1       3.830   1.267  -1.676  0.00  0.00    +0.021 C 
ATOM      6  C   UNL     1       4.056   0.018  -2.569  0.00  0.00    +0.029 C 
ATOM      7  C   UNL     1       2.651  -0.617  -2.639  0.00  0.00    +0.106 C 
ENDROOT
BRANCH   7   8
ATOM      8  C   UNL     1       2.762  -2.119  -2.584  0.00  0.00    -0.023 A 
ATOM      9  C   UNL     1       2.983  -2.751  -1.374  0.00  0.00    +0.009 A 
ATOM     10  C   UNL     1       3.086  -4.128  -1.319  0.00  0.00    +0.050 A 
ATOM     11  C   UNL     1       2.969  -4.880  -2.479  0.00  0.00    +0.162 A 
ATOM     12  C   UNL     1       2.744  -4.245  -3.695  0.00  0.00    +0.162 A 
ATOM     13  C   UNL     1       2.637  -2.863  -3.741  0.00  0.00    +0.055 A 
ATOM     14  O   UNL     1       2.618  -4.965  -4.843  0.00  0.00    -0.485 OA
ATOM     15  C   UNL     1       3.095  -6.314  -4.813  0.00  0.00    +0.270 C 
ATOM     16  C   UNL     1       2.580  -6.978  -3.529  0.00  0.00    +0.270 C 
ATOM     17  O   UNL     1       3.077  -6.235  -2.410  0.00  0.00    -0.485 OA
ENDBRANCH   7   8
BRANCH   1  19
ATOM     18  C   UNL     1      -0.627   1.427  -0.123  0.00  0.00    +0.034 C 
ATOM     19  C   UNL     1      -0.007   0.046   0.097  0.00  0.00    +0.140 C 
BRANCH  19  20
ATOM     20  N   UNL     1      -1.050  -0.897   0.522  0.00  0.00    -0.287 NA
ATOM     21  C   UNL     1      -0.485  -2.233   0.764  0.00  0.00    +0.113 C 
ATOM     22  C   UNL     1      -1.612  -3.196   1.146  0.00  0.00    +0.176 C 
ATOM     23  O   UNL     1      -2.303  -2.684   2.289  0.00  0.00    -0.365 OA
ATOM     24  C   UNL     1      -2.866  -1.385   2.088  0.00  0.00    +0.217 C 
ATOM     25  C   UNL     1      -1.752  -0.404   1.716  0.00  0.00    +0.126 C 
BRANCH  24  26
ATOM     26  C   UNL     1      -3.538  -0.926   3.356  0.00  0.00    +0.241 C 
ATOM     27  O   UNL     1      -3.458  -1.598   4.362  0.00  0.00    -0.273 OA
ATOM     28  N   UNL     1      -4.228   0.232   3.372  0.00  0.00    -0.327 N 
ATOM     29  H   UNL     1      -4.292   0.769   2.567  0.00  0.00    +0.145 HD
ATOM     30  H   UNL     1      -4.661   0.527   4.189  0.00  0.00    +0.145 HD
ENDBRANCH  24  26
ENDBRANCH  19  20
ENDBRANCH   1  19
TORSDOF 4
