REMARK  Name = ZINC39681955
REMARK  8 active torsions:
REMARK  status: ('A' for Active; 'I' for Inactive)
REMARK    1  A    between atoms: C_1  and  C_2
REMARK    2  A    between atoms: C_2  and  C_3
REMARK    3  A    between atoms: C_3  and  C_4
REMARK    4  A    between atoms: C_4  and  C_5
REMARK    5  A    between atoms: C_5  and  C_7
REMARK    6  A    between atoms: C_5  and  C_8
REMARK    7  A    between atoms: C_12  and  C_21
REMARK    8  A    between atoms: N_23  and  C_24
REMARK                            x       y       z     vdW  Elec       q    Type
REMARK                         _______ _______ _______ _____ _____    ______ ____
ROOT
ATOM      1  C   UNL     1       1.103  -3.904  -2.702  0.00  0.00    +0.218 C 
ATOM      2  O   UNL     1       0.403  -4.548  -1.950  0.00  0.00    -0.275 OA
ATOM      3  N   UNL     1       1.840  -4.531  -3.640  0.00  0.00    -0.300 N 
ATOM      4  C   UNL     1       2.834  -3.935  -4.563  0.00  0.00    +0.121 C 
ATOM      5  C   UNL     1       3.978  -4.971  -4.628  0.00  0.00    +0.100 C 
ATOM      6  C   UNL     1       3.319  -6.307  -4.247  0.00  0.00    -0.004 C 
ATOM      7  C   UNL     1       1.844  -5.975  -3.976  0.00  0.00    +0.115 C 
ATOM      8  C   UNL     1       3.435  -7.302  -5.398  0.00  0.00    -0.010 C 
ATOM      9  C   UNL     1       2.825  -8.640  -4.974  0.00  0.00    -0.082 C 
ATOM     10  N   UNL     1       3.528  -9.148  -3.790  0.00  0.00    +0.379 N 
ATOM     11  C   UNL     1       3.334  -8.231  -2.660  0.00  0.00    -0.082 C 
ATOM     12  C   UNL     1       3.966  -6.875  -2.987  0.00  0.00    -0.010 C 
ATOM     13  H   UNL     1       3.165 -10.058  -3.549  0.00  0.00    -0.086 HD
ATOM     14  H   UNL     1       4.514  -9.225  -3.993  0.00  0.00    -0.086 HD
ENDROOT
BRANCH   5  15
ATOM     15  C   UNL     1       5.062  -4.618  -3.643  0.00  0.00    +0.218 C 
ATOM     16  O   UNL     1       4.794  -3.971  -2.652  0.00  0.00    -0.275 OA
ATOM     17  N   UNL     1       6.329  -5.022  -3.862  0.00  0.00    -0.314 N 
ATOM     18  H   UNL     1       6.543  -5.539  -4.654  0.00  0.00    +0.149 HD
BRANCH  17  19
ATOM     19  C   UNL     1       7.383  -4.678  -2.904  0.00  0.00    +0.059 C 
ATOM     20  C   UNL     1       7.411  -5.715  -1.778  0.00  0.00    -0.056 C 
ATOM     21  N   UNL     1       8.718  -6.375  -1.736  0.00  0.00    +0.381 N 
ATOM     22  C   UNL     1       8.978  -7.084  -2.992  0.00  0.00    -0.078 C 
ATOM     23  C   UNL     1       9.002  -6.093  -4.158  0.00  0.00    -0.014 C 
ATOM     24  C   UNL     1       8.743  -4.678  -3.614  0.00  0.00    +0.004 C 
ATOM     25  C   UNL     1       9.829  -4.353  -2.580  0.00  0.00    -0.014 C 
ATOM     26  C   UNL     1       9.778  -5.403  -1.464  0.00  0.00    -0.078 C 
ATOM     27  H   UNL     1       8.708  -7.055  -0.991  0.00  0.00    -0.082 HD
ENDBRANCH  17  19
ENDBRANCH   5  15
BRANCH   1  28
ATOM     28  C   UNL     1       1.150  -2.402  -2.587  0.00  0.00    +0.072 C 
ATOM     29  C   UNL     1       1.012  -1.998  -1.118  0.00  0.00    +0.017 C 
BRANCH  28  30
ATOM     30  C   UNL     1       0.000  -1.793  -3.393  0.00  0.00    +0.012 C 
BRANCH  30  31
ATOM     31  C   UNL     1       0.119  -0.268  -3.380  0.00  0.00    +0.000 C 
BRANCH  31  33
ATOM     32  C   UNL     1      -0.911   1.866  -4.172  0.00  0.00    +0.004 C 
ATOM     33  C   UNL     1      -1.030   0.341  -4.186  0.00  0.00    -0.003 C 
ENDBRANCH  31  33
ENDBRANCH  30  31
ENDBRANCH  28  30
ENDBRANCH   1  28
TORSDOF 6
