REMARK  Name = ZINC16642701
REMARK  3 active torsions:
REMARK  status: ('A' for Active; 'I' for Inactive)
REMARK    1  A    between atoms: C_1  and  C_2
REMARK    2  A    between atoms: N_4  and  C_5
REMARK    3  A    between atoms: C_14  and  C_17
REMARK                            x       y       z     vdW  Elec       q    Type
REMARK                         _______ _______ _______ _____ _____    ______ ____
ROOT
ATOM      1  C   UNL     1      -1.133  -2.164  -0.084  0.00  0.00    +0.036 C 
ATOM      2  C   UNL     1      -0.417  -2.603   1.195  0.00  0.00    +0.029 C 
ATOM      3  C   UNL     1      -0.398  -4.131   1.269  0.00  0.00    -0.008 C 
ATOM      4  C   UNL     1       0.341  -4.692   0.052  0.00  0.00    +0.007 C 
ATOM      5  C   UNL     1      -0.375  -4.253  -1.226  0.00  0.00    -0.008 C 
ATOM      6  C   UNL     1      -0.394  -2.725  -1.301  0.00  0.00    +0.029 C 
ATOM      7  C   UNL     1      -1.811  -4.780  -1.214  0.00  0.00    +0.020 C 
ATOM      8  C   UNL     1      -2.550  -4.220   0.003  0.00  0.00    +0.050 C 
ATOM      9  C   UNL     1      -1.834  -4.659   1.281  0.00  0.00    +0.020 C 
ATOM     10  C   UNL     1      -2.569  -2.692  -0.072  0.00  0.00    +0.042 C 
ENDROOT
BRANCH   8  11
ATOM     11  C   UNL     1      -3.964  -4.740   0.015  0.00  0.00    +0.222 C 
ATOM     12  O   UNL     1      -4.317  -5.518   0.875  0.00  0.00    -0.275 OA
ATOM     13  N   UNL     1      -4.837  -4.340  -0.931  0.00  0.00    -0.297 N 
ATOM     14  C   UNL     1      -4.405  -3.486  -2.049  0.00  0.00    +0.136 C 
ATOM     15  C   UNL     1      -4.886  -4.123  -3.358  0.00  0.00    +0.179 C 
ATOM     16  O   UNL     1      -6.289  -4.386  -3.265  0.00  0.00    -0.377 OA
ATOM     17  C   UNL     1      -6.643  -5.319  -2.242  0.00  0.00    +0.179 C 
ATOM     18  C   UNL     1      -6.250  -4.748  -0.879  0.00  0.00    +0.136 C 
ENDBRANCH   8  11
BRANCH   1  22
ATOM     19  C   UNL     1      -0.011   1.492  -0.251  0.00  0.00    +0.109 C 
ATOM     20  C   UNL     1       0.008  -0.013  -0.178  0.00  0.00    +0.210 C 
ATOM     21  O   UNL     1       1.065  -0.605  -0.139  0.00  0.00    -0.276 OA
ATOM     22  N   UNL     1      -1.151  -0.701  -0.155  0.00  0.00    -0.310 N 
ATOM     23  H   UNL     1      -1.997  -0.227  -0.186  0.00  0.00    +0.149 HD
ENDBRANCH   1  22
TORSDOF 2
