REMARK  Name = ZINC52884850
REMARK  11 active torsions:
REMARK  status: ('A' for Active; 'I' for Inactive)
REMARK    1  A    between atoms: C_1  and  C_2
REMARK    2  A    between atoms: C_4  and  C_16
REMARK    3  A    between atoms: C_7  and  N_8
REMARK    4  A    between atoms: C_11  and  C_13
REMARK    5  A    between atoms: C_13  and  C_14
REMARK    6  A    between atoms: C_13  and  C_15
REMARK    7  A    between atoms: C_16  and  N_17
REMARK    8  A    between atoms: N_17  and  C_18
REMARK    9  A    between atoms: C_18  and  C_19
REMARK   10  A    between atoms: C_18  and  C_20
REMARK   11  A    between atoms: C_18  and  C_21
REMARK                            x       y       z     vdW  Elec       q    Type
REMARK                         _______ _______ _______ _____ _____    ______ ____
ROOT
ATOM      1  C   UNL     1      -0.338   1.480   0.052  0.00  0.00    +0.046 C 
ATOM      2  C   UNL     1      -0.151  -0.015   0.022  0.00  0.00    -0.025 A 
ATOM      3  C   UNL     1      -0.251  -0.701  -1.173  0.00  0.00    +0.007 A 
ATOM      4  C   UNL     1      -0.080  -2.072  -1.201  0.00  0.00    -0.064 A 
ATOM      5  C   UNL     1       0.192  -2.762  -0.034  0.00  0.00    +0.004 A 
ATOM      6  C   UNL     1       0.293  -2.082   1.164  0.00  0.00    +0.028 A 
ATOM      7  C   UNL     1       0.128  -0.704   1.194  0.00  0.00    +0.068 A 
ENDROOT
BRANCH   7   8
ATOM      8  N   UNL     1       0.236  -0.010   2.408  0.00  0.00    -0.239 N 
ATOM      9  C   UNL     1      -0.347  -0.357   3.577  0.00  0.00    +0.115 A 
ATOM     10  C   UNL     1       0.003   0.567   4.502  0.00  0.00    +0.045 A 
ATOM     11  C   UNL     1       0.827   1.510   3.878  0.00  0.00    +0.066 A 
ATOM     12  N   UNL     1       0.972   1.162   2.625  0.00  0.00    -0.171 NA
BRANCH  11  13
ATOM     13  C   UNL     1       1.447   2.715   4.537  0.00  0.00    +0.033 C 
ATOM     14  C   UNL     1       0.448   3.873   4.526  0.00  0.00    +0.014 C 
ATOM     15  C   UNL     1       1.815   2.373   5.983  0.00  0.00    +0.014 C 
ENDBRANCH  11  13
ENDBRANCH   7   8
BRANCH   4  16
ATOM     16  C   UNL     1      -0.190  -2.817  -2.507  0.00  0.00    -0.046 C 
BRANCH  16  17
ATOM     17  N   UNL     1       1.131  -2.885  -3.145  0.00  0.00    +0.385 N 
ATOM     18  H   UNL     1       1.469  -1.950  -3.319  0.00  0.00    -0.085 HD
ATOM     19  H   UNL     1       1.774  -3.368  -2.536  0.00  0.00    -0.085 HD
BRANCH  17  20
ATOM     20  C   UNL     1       1.023  -3.611  -4.417  0.00  0.00    -0.077 C 
ATOM     21  C   UNL     1       0.048  -2.880  -5.341  0.00  0.00    -0.011 C 
ATOM     22  C   UNL     1       2.399  -3.682  -5.082  0.00  0.00    -0.011 C 
ATOM     23  C   UNL     1       0.510  -5.029  -4.154  0.00  0.00    -0.011 C 
ENDBRANCH  17  20
ENDBRANCH  16  17
ENDBRANCH   4  16
TORSDOF 5
