REMARK  Name = ZINC64886081
REMARK  7 active torsions:
REMARK  status: ('A' for Active; 'I' for Inactive)
REMARK    1  A    between atoms: C_5  and  C_7
REMARK    2  A    between atoms: C_10  and  C_12
REMARK    3  A    between atoms: N_14  and  N_15
REMARK    4  A    between atoms: N_18  and  C_19
REMARK    5  A    between atoms: C_19  and  C_20
REMARK    6  A    between atoms: C_20  and  C_21
REMARK    7  A    between atoms: C_21  and  N_22
REMARK                            x       y       z     vdW  Elec       q    Type
REMARK                         _______ _______ _______ _____ _____    ______ ____
ROOT
ATOM      1  C   UNL     1       1.956  -6.173  -0.805  0.00  0.00    +0.267 C 
ATOM      2  O   UNL     1       1.478  -7.123  -0.214  0.00  0.00    -0.268 OA
ATOM      3  N   UNL     1       2.809  -6.376  -1.828  0.00  0.00    -0.229 N 
ATOM      4  H   UNL     1       3.191  -5.619  -2.300  0.00  0.00    +0.173 HD
ENDROOT
BRANCH   3   5
ATOM      5  N   UNL     1       3.146  -7.681  -2.211  0.00  0.00    -0.218 N 
ATOM      6  C   UNL     1       4.000  -7.884  -3.234  0.00  0.00    +0.316 C 
ATOM      7  O   UNL     1       4.292  -9.017  -3.566  0.00  0.00    -0.251 OA
ATOM      8  N   UNL     1       4.529  -6.832  -3.889  0.00  0.00    -0.298 N 
ATOM      9  H   UNL     1       2.765  -8.438  -1.740  0.00  0.00    +0.174 HD
ATOM     10  H   UNL     1       4.296  -5.928  -3.624  0.00  0.00    +0.150 HD
BRANCH   8  11
ATOM     11  C   UNL     1       5.457  -7.053  -5.001  0.00  0.00    +0.107 C 
BRANCH  11  12
ATOM     12  C   UNL     1       5.907  -5.704  -5.565  0.00  0.00    +0.040 C 
BRANCH  12  13
ATOM     13  C   UNL     1       6.876  -5.935  -6.727  0.00  0.00    +0.124 C 
BRANCH  13  14
ATOM     14  N   UNL     1       7.307  -4.643  -7.267  0.00  0.00    -0.338 N 
ATOM     15  C   UNL     1       6.696  -3.936  -8.267  0.00  0.00    +0.104 A 
ATOM     16  C   UNL     1       7.417  -2.813  -8.447  0.00  0.00    +0.101 A 
ATOM     17  N   UNL     1       8.441  -2.834  -7.582  0.00  0.00    -0.352 N 
ATOM     18  C   UNL     1       8.379  -3.925  -6.868  0.00  0.00    +0.173 A 
ATOM     19  H   UNL     1       9.119  -2.145  -7.497  0.00  0.00    +0.166 HD
ENDBRANCH  13  14
ENDBRANCH  12  13
ENDBRANCH  11  12
ENDBRANCH   8  11
ENDBRANCH   3   5
BRANCH   1  23
ATOM     20  C   UNL     1       1.249  -2.160  -0.022  0.00  0.00    +0.023 A 
ATOM     21  C   UNL     1       0.576  -3.048   0.802  0.00  0.00    +0.017 A 
ATOM     22  C   UNL     1       0.755  -4.389   0.609  0.00  0.00    +0.021 A 
ATOM     23  C   UNL     1       1.604  -4.808  -0.405  0.00  0.00    +0.076 A 
ATOM     24  S   UNL     1       2.152  -3.259  -1.102  0.00  0.00    -0.084 S 
BRANCH  20  29
ATOM     25  C   UNL     1      -0.017   1.375   0.010  0.00  0.00    +0.001 A 
ATOM     26  C   UNL     1       1.170   2.087   0.002  0.00  0.00    +0.003 A 
ATOM     27  C   UNL     1       2.383   1.424  -0.013  0.00  0.00    +0.039 A 
ATOM     28  C   UNL     1       2.417   0.042  -0.021  0.00  0.00    +0.132 A 
ATOM     29  C   UNL     1       1.222  -0.683  -0.013  0.00  0.00    +0.024 A 
ATOM     30  C   UNL     1       0.002  -0.004   0.002  0.00  0.00    +0.012 A 
ATOM     31  F   UNL     1       3.603  -0.606  -0.036  0.00  0.00    -0.205 F 
ENDBRANCH  20  29
ENDBRANCH   1  23
TORSDOF 7
