REMARK  Name = ZINC39666493
REMARK  8 active torsions:
REMARK  status: ('A' for Active; 'I' for Inactive)
REMARK    1  A    between atoms: C_1  and  C_2
REMARK    2  A    between atoms: C_6  and  C_9
REMARK    3  A    between atoms: C_13  and  C_22
REMARK    4  A    between atoms: N_24  and  C_25
REMARK    5  A    between atoms: C_25  and  C_26
REMARK    6  A    between atoms: C_26  and  C_28
REMARK    7  A    between atoms: C_26  and  O_29
REMARK    8  A    between atoms: O_29  and  C_30
REMARK                            x       y       z     vdW  Elec       q    Type
REMARK                         _______ _______ _______ _____ _____    ______ ____
ROOT
ATOM      1  C   UNL     1       0.049  -2.812   2.410  0.00  0.00    +0.252 C 
ATOM      2  O   UNL     1       1.113  -3.111   2.918  0.00  0.00    -0.270 OA
ATOM      3  N   UNL     1      -1.106  -3.180   2.999  0.00  0.00    -0.296 N 
ATOM      4  C   UNL     1      -2.487  -2.918   2.533  0.00  0.00    +0.121 C 
ATOM      5  C   UNL     1      -3.259  -4.220   2.844  0.00  0.00    +0.100 C 
ATOM      6  C   UNL     1      -2.463  -4.885   3.980  0.00  0.00    -0.004 C 
ATOM      7  C   UNL     1      -1.280  -3.946   4.257  0.00  0.00    +0.115 C 
ATOM      8  C   UNL     1      -3.333  -5.023   5.225  0.00  0.00    -0.010 C 
ATOM      9  C   UNL     1      -2.539  -5.739   6.321  0.00  0.00    -0.082 C 
ATOM     10  N   UNL     1      -2.124  -7.063   5.841  0.00  0.00    +0.379 N 
ATOM     11  C   UNL     1      -1.213  -6.919   4.699  0.00  0.00    -0.082 C 
ATOM     12  C   UNL     1      -1.951  -6.252   3.535  0.00  0.00    -0.010 C 
ATOM     13  H   UNL     1      -1.654  -7.557   6.585  0.00  0.00    -0.086 HD
ATOM     14  H   UNL     1      -2.938  -7.586   5.556  0.00  0.00    -0.086 HD
ENDROOT
BRANCH   1  20
ATOM     15  C   UNL     1      -0.050   1.568   0.016  0.00  0.00    +0.047 C 
ATOM     16  C   UNL     1      -0.025   0.061  -0.010  0.00  0.00    -0.014 A 
ATOM     17  C   UNL     1      -0.028  -0.608  -1.221  0.00  0.00    +0.009 A 
ATOM     18  C   UNL     1      -0.006  -1.990  -1.256  0.00  0.00    +0.039 A 
ATOM     19  C   UNL     1       0.019  -2.715  -0.080  0.00  0.00    +0.138 A 
ATOM     20  C   UNL     1       0.023  -2.046   1.149  0.00  0.00    +0.107 A 
ATOM     21  C   UNL     1       0.006  -0.648   1.175  0.00  0.00    +0.141 A 
ATOM     22  F   UNL     1       0.015   0.008   2.357  0.00  0.00    -0.204 F 
ATOM     23  F   UNL     1       0.040  -4.065  -0.116  0.00  0.00    -0.205 F 
ENDBRANCH   1  20
BRANCH   5  24
ATOM     24  C   UNL     1      -4.660  -3.904   3.298  0.00  0.00    +0.218 C 
ATOM     25  O   UNL     1      -4.875  -2.907   3.955  0.00  0.00    -0.275 OA
ATOM     26  N   UNL     1      -5.676  -4.729   2.975  0.00  0.00    -0.312 N 
ATOM     27  H   UNL     1      -5.505  -5.526   2.450  0.00  0.00    +0.149 HD
BRANCH  26  28
ATOM     28  C   UNL     1      -7.039  -4.421   3.416  0.00  0.00    +0.148 C 
BRANCH  28  29
ATOM     29  C   UNL     1      -7.993  -5.508   2.919  0.00  0.00    +0.187 C 
ATOM     30  C   UNL     1      -9.416  -5.187   3.380  0.00  0.00    +0.053 C 
BRANCH  29  31
ATOM     31  O   UNL     1      -7.955  -5.559   1.491  0.00  0.00    -0.486 OA
BRANCH  31  32
ATOM     32  C   UNL     1      -8.298  -6.738   0.906  0.00  0.00    +0.139 A 
ATOM     33  C   UNL     1      -8.774  -7.785   1.681  0.00  0.00    +0.047 A 
ATOM     34  C   UNL     1      -9.122  -8.982   1.085  0.00  0.00    +0.004 A 
ATOM     35  C   UNL     1      -8.996  -9.136  -0.284  0.00  0.00    +0.002 A 
ATOM     36  C   UNL     1      -8.521  -8.095  -1.059  0.00  0.00    +0.023 A 
ATOM     37  C   UNL     1      -8.177  -6.893  -0.468  0.00  0.00    +0.083 A 
ATOM     38 CL   UNL     1      -7.588  -5.582  -1.442  0.00  0.00    -0.080 Cl
ENDBRANCH  31  32
ENDBRANCH  29  31
ENDBRANCH  28  29
ENDBRANCH  26  28
ENDBRANCH   5  24
TORSDOF 6
