REMARK  Name = ZINC61824461
REMARK  7 active torsions:
REMARK  status: ('A' for Active; 'I' for Inactive)
REMARK    1  A    between atoms: C_1  and  C_2
REMARK    2  A    between atoms: C_2  and  C_20
REMARK    3  A    between atoms: N_6  and  C_10
REMARK    4  A    between atoms: C_10  and  C_11
REMARK    5  A    between atoms: C_14  and  O_18
REMARK    6  A    between atoms: C_15  and  N_17
REMARK    7  A    between atoms: O_18  and  C_19
REMARK                            x       y       z     vdW  Elec       q    Type
REMARK                         _______ _______ _______ _____ _____    ______ ____
ROOT
ATOM      1  C   UNL     1       1.033  -4.110  -0.022  0.00  0.00    +0.151 C 
ENDROOT
BRANCH   1   7
ATOM      2  C   UNL     1      -0.019   1.526   0.010  0.00  0.00    +0.012 C 
ATOM      3  C   UNL     1       0.002  -0.004   0.002  0.00  0.00    -0.018 C 
ATOM      4  C   UNL     1       0.739  -0.502  -1.246  0.00  0.00    +0.103 C 
ATOM      5  C   UNL     1       0.854  -2.002  -1.187  0.00  0.00    +0.223 C 
ATOM      6  O   UNL     1       0.897  -2.636  -2.219  0.00  0.00    -0.275 OA
ATOM      7  N   UNL     1       0.910  -2.651  -0.014  0.00  0.00    -0.238 N 
ATOM      8  C   UNL     1       0.857  -2.015   1.166  0.00  0.00    +0.223 C 
ATOM      9  O   UNL     1       0.903  -2.660   2.192  0.00  0.00    -0.275 OA
ATOM     10  C   UNL     1       0.743  -0.515   1.242  0.00  0.00    +0.103 C 
ATOM     11  C   UNL     1      -1.432  -0.537   0.004  0.00  0.00    +0.012 C 
ENDBRANCH   1   7
BRANCH   1  12
ATOM     12  C   UNL     1       2.491  -4.492  -0.026  0.00  0.00    -0.028 A 
ATOM     13  C   UNL     1       3.157  -4.654  -1.227  0.00  0.00    +0.009 A 
ATOM     14  C   UNL     1       4.495  -5.003  -1.237  0.00  0.00    +0.048 A 
ATOM     15  C   UNL     1       5.172  -5.191  -0.043  0.00  0.00    +0.141 A 
ATOM     16  C   UNL     1       4.501  -5.028   1.167  0.00  0.00    +0.067 A 
ATOM     17  C   UNL     1       3.160  -4.673   1.169  0.00  0.00    +0.031 A 
BRANCH  16  18
ATOM     18  N   UNL     1       5.179  -5.218   2.376  0.00  0.00    -0.355 N 
ATOM     19  H   UNL     1       6.117  -5.463   2.373  0.00  0.00    +0.142 HD
ATOM     20  H   UNL     1       4.711  -5.104   3.218  0.00  0.00    +0.142 HD
ENDBRANCH  16  18
BRANCH  15  21
ATOM     21  O   UNL     1       6.488  -5.535  -0.052  0.00  0.00    -0.493 OA
ATOM     22  C   UNL     1       7.110  -5.686  -1.329  0.00  0.00    +0.277 C 
ENDBRANCH  15  21
ENDBRANCH   1  12
TORSDOF 4
