REMARK  Name = ZINC13255498
REMARK  9 active torsions:
REMARK  status: ('A' for Active; 'I' for Inactive)
REMARK    1  A    between atoms: C_1  and  C_2
REMARK    2  A    between atoms: C_6  and  C_28
REMARK    3  A    between atoms: C_7  and  O_8
REMARK    4  A    between atoms: O_8  and  C_9
REMARK    5  A    between atoms: C_9  and  C_11
REMARK    6  A    between atoms: C_9  and  C_12
REMARK    7  A    between atoms: N_14  and  N_15
REMARK    8  A    between atoms: C_16  and  C_18
REMARK    9  A    between atoms: C_24  and  C_26
REMARK                            x       y       z     vdW  Elec       q    Type
REMARK                         _______ _______ _______ _____ _____    ______ ____
ROOT
ATOM      1  C   UNL     1      -0.144   1.618   0.597  0.00  0.00    +0.270 C 
ATOM      2  O   UNL     1       0.057   0.596   1.219  0.00  0.00    -0.270 OA
ATOM      3  N   UNL     1       0.884   2.264   0.013  0.00  0.00    -0.231 N 
ATOM      4  H   UNL     1       0.724   3.081  -0.484  0.00  0.00    +0.173 HD
ENDROOT
BRANCH   3   5
ATOM      5  N   UNL     1       2.185   1.755   0.123  0.00  0.00    -0.234 N 
ATOM      6  C   UNL     1       3.213   2.401  -0.462  0.00  0.00    +0.233 C 
ATOM      7  O   UNL     1       3.013   3.423  -1.083  0.00  0.00    -0.274 OA
ATOM      8  H   UNL     1       2.345   0.938   0.620  0.00  0.00    +0.173 HD
BRANCH   6   9
ATOM      9  C   UNL     1       4.612   1.853  -0.343  0.00  0.00    +0.094 C 
ATOM     10  C   UNL     1       5.600   3.005  -0.141  0.00  0.00    +0.040 C 
ATOM     11  C   UNL     1       5.725   3.806  -1.403  0.00  0.00    -0.030 C 
ATOM     12  C   UNL     1       5.349   3.387  -2.569  0.00  0.00    -0.030 C 
ATOM     13  C   UNL     1       4.726   2.044  -2.819  0.00  0.00    +0.042 C 
ATOM     14  C   UNL     1       4.988   1.113  -1.633  0.00  0.00    +0.118 C 
BRANCH  14  15
ATOM     15  C   UNL     1       4.144  -0.128  -1.768  0.00  0.00    +0.360 C 
ATOM     16  O   UNL     1       3.325  -0.398  -0.921  0.00  0.00    -0.246 OA
ATOM     17  O   UNL     1       4.303  -0.935  -2.829  0.00  0.00    -0.246 OA
ENDBRANCH  14  15
ENDBRANCH   6   9
ENDBRANCH   3   5
BRANCH   1  18
ATOM     18  C   UNL     1      -1.544   2.162   0.473  0.00  0.00    +0.257 C 
ATOM     19  C   UNL     1      -1.982   2.114  -0.992  0.00  0.00    +0.062 C 
BRANCH  18  20
ATOM     20  O   UNL     1      -2.434   1.371   1.263  0.00  0.00    -0.479 OA
BRANCH  20  27
ATOM     21  C   UNL     1      -2.208   2.907   3.622  0.00  0.00    +0.047 C 
ATOM     22  C   UNL     1      -3.508   2.748   2.878  0.00  0.00    -0.007 A 
ATOM     23  C   UNL     1      -4.651   3.371   3.342  0.00  0.00    +0.027 A 
ATOM     24  C   UNL     1      -5.846   3.222   2.662  0.00  0.00    +0.042 A 
ATOM     25  C   UNL     1      -5.899   2.452   1.513  0.00  0.00    +0.027 A 
ATOM     26  C   UNL     1      -4.758   1.832   1.043  0.00  0.00    -0.007 A 
ATOM     27  C   UNL     1      -3.558   1.981   1.724  0.00  0.00    +0.127 A 
ATOM     28  C   UNL     1      -4.816   0.994  -0.208  0.00  0.00    +0.047 C 
ATOM     29 CL   UNL     1      -7.282   4.000   3.251  0.00  0.00    -0.084 Cl
ENDBRANCH  20  27
ENDBRANCH  18  20
ENDBRANCH   1  18
TORSDOF 6
