REMARK  Name = ZINC40406977
REMARK  3 active torsions:
REMARK  status: ('A' for Active; 'I' for Inactive)
REMARK    1  A    between atoms: C_4  and  N_8
REMARK    2  A    between atoms: C_5  and  N_7
REMARK    3  A    between atoms: N_8  and  C_9
REMARK                            x       y       z     vdW  Elec       q    Type
REMARK                         _______ _______ _______ _____ _____    ______ ____
ROOT
ATOM      1  C   UNL     1       4.867  -0.003  -0.096  0.00  0.00    +0.032 A 
ATOM      2  C   UNL     1       4.936   1.388  -0.058  0.00  0.00    +0.024 A 
ATOM      3  C   UNL     1       6.153   1.995  -0.128  0.00  0.00    +0.014 A 
ATOM      4  C   UNL     1       7.335   1.235  -0.232  0.00  0.00    +0.026 A 
ATOM      5  C   UNL     1       7.275  -0.150  -0.252  0.00  0.00    -0.034 A 
ATOM      6  C   UNL     1       6.029  -0.751  -0.188  0.00  0.00    +0.027 A 
ATOM      7  C   UNL     1       8.424  -1.124  -0.304  0.00  0.00    +0.042 C 
ATOM      8  C   UNL     1       9.781  -0.530  -0.044  0.00  0.00    +0.061 C 
ATOM      9  C   UNL     1      10.239   0.391  -1.133  0.00  0.00    +0.052 A 
ATOM     10  C   UNL     1       9.644   1.621  -1.289  0.00  0.00    +0.044 A 
ATOM     11  C   UNL     1      10.047   2.483  -2.312  0.00  0.00    +0.015 A 
ATOM     12  C   UNL     1      11.069   2.049  -3.143  0.00  0.00    +0.020 A 
ATOM     13  C   UNL     1      11.631   0.804  -2.923  0.00  0.00    +0.111 A 
ATOM     14  N   UNL     1      11.214   0.019  -1.947  0.00  0.00    -0.259 NA
ATOM     15  C   UNL     1       8.589   1.996  -0.331  0.00  0.00    +0.195 C 
ATOM     16  O   UNL     1       8.759   2.958   0.394  0.00  0.00    -0.287 OA
ENDROOT
BRANCH   1  17
ATOM     17  N   UNL     1       3.634  -0.640  -0.037  0.00  0.00    -0.313 N 
ATOM     18  H   UNL     1       3.522  -1.431   0.514  0.00  0.00    +0.152 HD
BRANCH  17  22
ATOM     19  C   UNL     1       0.411   0.850  -2.227  0.00  0.00    +0.002 A 
ATOM     20  C   UNL     1       1.675   1.383  -2.403  0.00  0.00    +0.002 A 
ATOM     21  C   UNL     1       2.744   0.891  -1.679  0.00  0.00    +0.025 A 
ATOM     22  C   UNL     1       2.552  -0.140  -0.771  0.00  0.00    +0.052 A 
ATOM     23  C   UNL     1       1.277  -0.678  -0.593  0.00  0.00    +0.046 A 
ATOM     24  C   UNL     1       0.210  -0.178  -1.324  0.00  0.00    +0.024 A 
BRANCH  23  25
ATOM     25  N   UNL     1       1.076  -1.719   0.321  0.00  0.00    -0.357 N 
ATOM     26  H   UNL     1       1.823  -2.067   0.831  0.00  0.00    +0.142 HD
ATOM     27  H   UNL     1       0.189  -2.092   0.443  0.00  0.00    +0.142 HD
ENDBRANCH  23  25
ENDBRANCH  17  22
ENDBRANCH   1  17
TORSDOF 3
