REMARK  Name = ZINC57848553
REMARK  7 active torsions:
REMARK  status: ('A' for Active; 'I' for Inactive)
REMARK    1  A    between atoms: C_1  and  C_2
REMARK    2  A    between atoms: C_5  and  C_9
REMARK    3  A    between atoms: C_6  and  C_8
REMARK    4  A    between atoms: C_9  and  C_25
REMARK    5  A    between atoms: N_12  and  C_16
REMARK    6  A    between atoms: C_16  and  C_17
REMARK    7  A    between atoms: C_17  and  C_18
REMARK                            x       y       z     vdW  Elec       q    Type
REMARK                         _______ _______ _______ _____ _____    ______ ____
ROOT
ATOM      1  C   UNL     1       0.040  -4.205   0.011  0.00  0.00    +0.135 C 
ATOM      2  C   UNL     1       1.358  -4.748   0.526  0.00  0.00    +0.251 C 
ATOM      3  O   UNL     1       1.818  -4.619   1.641  0.00  0.00    -0.272 OA
ATOM      4  N   UNL     1       1.912  -5.406  -0.511  0.00  0.00    -0.224 N 
ATOM      5  C   UNL     1       1.135  -5.354  -1.600  0.00  0.00    +0.310 C 
ATOM      6  O   UNL     1       1.423  -5.873  -2.660  0.00  0.00    -0.252 OA
ATOM      7  N   UNL     1       0.001  -4.663  -1.389  0.00  0.00    -0.281 N 
ATOM      8  C   UNL     1      -1.133  -4.790   0.801  0.00  0.00    +0.047 C 
ATOM      9  H   UNL     1      -0.706  -4.498  -2.033  0.00  0.00    +0.152 HD
ENDROOT
BRANCH   1  14
ATOM     10  C   UNL     1      -0.019   1.567   0.264  0.00  0.00    +0.044 C 
ATOM     11  C   UNL     1      -0.003   0.062   0.198  0.00  0.00    -0.050 A 
ATOM     12  C   UNL     1       1.117  -0.637   0.607  0.00  0.00    +0.004 A 
ATOM     13  C   UNL     1       1.131  -2.017   0.547  0.00  0.00    +0.007 A 
ATOM     14  C   UNL     1       0.024  -2.700   0.078  0.00  0.00    -0.013 A 
ATOM     15  C   UNL     1      -1.096  -2.002  -0.330  0.00  0.00    -0.045 A 
ATOM     16  C   UNL     1      -1.112  -0.621  -0.266  0.00  0.00    +0.007 A 
ATOM     17  C   UNL     1      -2.303  -2.746  -0.842  0.00  0.00    +0.044 C 
ENDBRANCH   1  14
BRANCH   4  18
ATOM     18  C   UNL     1       3.205  -6.091  -0.455  0.00  0.00    +0.116 C 
BRANCH  18  19
ATOM     19  C   UNL     1       2.995  -7.543  -0.021  0.00  0.00    +0.004 C 
BRANCH  19  20
ATOM     20  C   UNL     1       4.346  -8.259   0.038  0.00  0.00    -0.070 C 
ATOM     21  C   UNL     1       4.123  -9.741   0.349  0.00  0.00    -0.016 C 
ATOM     22  C   UNL     1       5.478 -10.453   0.406  0.00  0.00    -0.003 C 
ATOM     23  C   UNL     1       6.361  -9.767   1.452  0.00  0.00    -0.019 C 
ATOM     24  C   UNL     1       6.500  -8.284   1.100  0.00  0.00    -0.082 C 
ATOM     25  N   UNL     1       5.174  -7.654   1.088  0.00  0.00    +0.381 N 
ATOM     26  H   UNL     1       5.274  -6.667   0.908  0.00  0.00    -0.086 HD
ATOM     27  H   UNL     1       4.730  -7.788   1.984  0.00  0.00    -0.086 HD
ENDBRANCH  19  20
ENDBRANCH  18  19
ENDBRANCH   4  18
TORSDOF 4
