REMARK  Name = ZINC43800654
REMARK  6 active torsions:
REMARK  status: ('A' for Active; 'I' for Inactive)
REMARK    1  A    between atoms: C_1  and  N_2
REMARK    2  A    between atoms: N_5  and  C_8
REMARK    3  A    between atoms: C_8  and  C_9
REMARK    4  A    between atoms: C_9  and  C_10
REMARK    5  A    between atoms: C_10  and  N_11
REMARK    6  A    between atoms: C_12  and  C_14
REMARK                            x       y       z     vdW  Elec       q    Type
REMARK                         _______ _______ _______ _____ _____    ______ ____
ROOT
ATOM      1  N   UNL     1       3.347  -6.422   2.154  0.00  0.00    -0.313 N 
ATOM      2  C   UNL     1       3.569  -7.738   2.339  0.00  0.00    +0.240 C 
ATOM      3  O   UNL     1       3.033  -8.551   1.615  0.00  0.00    -0.273 OA
ATOM      4  H   UNL     1       3.776  -5.772   2.733  0.00  0.00    +0.149 HD
ENDROOT
BRANCH   2   5
ATOM      5  C   UNL     1       4.482  -8.201   3.444  0.00  0.00    +0.187 C 
ATOM      6  C   UNL     1       5.909  -7.723   3.162  0.00  0.00    -0.041 C 
ATOM      7  N   UNL     1       6.807  -8.225   4.211  0.00  0.00    +0.383 N 
ATOM      8  C   UNL     1       6.774  -9.694   4.221  0.00  0.00    -0.054 C 
ATOM      9  C   UNL     1       5.346 -10.168   4.501  0.00  0.00    +0.142 C 
ATOM     10  O   UNL     1       4.467  -9.630   3.510  0.00  0.00    -0.371 OA
ATOM     11  H   UNL     1       7.748  -7.911   4.027  0.00  0.00    -0.086 HD
ATOM     12  H   UNL     1       6.505  -7.875   5.108  0.00  0.00    -0.086 HD
ENDBRANCH   2   5
BRANCH   1  13
ATOM     13  C   UNL     1       2.459  -5.972   1.079  0.00  0.00    +0.105 C 
BRANCH  13  14
ATOM     14  C   UNL     1       2.381  -4.444   1.088  0.00  0.00    +0.034 C 
BRANCH  14  15
ATOM     15  C   UNL     1       1.453  -3.974  -0.034  0.00  0.00    +0.086 C 
BRANCH  15  20
ATOM     16  C   UNL     1      -0.018   1.465   0.010  0.00  0.00    -0.096 C 
ATOM     17  N   UNL     1       0.002  -0.004   0.002  0.00  0.00    +0.379 N 
ATOM     18  C   UNL     1       0.688  -0.477  -1.207  0.00  0.00    -0.064 C 
ATOM     19  C   UNL     1       0.693  -2.008  -1.226  0.00  0.00    +0.066 C 
ATOM     20  N   UNL     1       1.378  -2.507  -0.025  0.00  0.00    -0.306 NA
ATOM     21  C   UNL     1       0.717  -2.021   1.194  0.00  0.00    +0.066 C 
ATOM     22  C   UNL     1       0.713  -0.490   1.192  0.00  0.00    -0.064 C 
ATOM     23  H   UNL     1      -0.945  -0.353   0.010  0.00  0.00    -0.082 HD
ENDBRANCH  15  20
ENDBRANCH  14  15
ENDBRANCH  13  14
ENDBRANCH   1  13
TORSDOF 5
