REMARK  Name = ZINC38083351
REMARK  7 active torsions:
REMARK  status: ('A' for Active; 'I' for Inactive)
REMARK    1  A    between atoms: C_1  and  C_2
REMARK    2  A    between atoms: C_2  and  C_4
REMARK    3  A    between atoms: C_2  and  N_14
REMARK    4  A    between atoms: C_7  and  S_10
REMARK    5  A    between atoms: S_10  and  N_13
REMARK    6  A    between atoms: N_14  and  C_15
REMARK    7  A    between atoms: C_15  and  C_16
REMARK                            x       y       z     vdW  Elec       q    Type
REMARK                         _______ _______ _______ _____ _____    ______ ____
ROOT
ATOM      1  C   UNL     1      -0.019   1.526   0.010  0.00  0.00    -0.009 C 
ATOM      2  C   UNL     1       0.002  -0.004   0.002  0.00  0.00    -0.044 C 
ENDROOT
BRANCH   2   3
ATOM      3  C   UNL     1       0.731  -0.503   1.223  0.00  0.00    -0.062 A 
ATOM      4  C   UNL     1       2.113  -0.514   1.247  0.00  0.00    +0.004 A 
ATOM      5  C   UNL     1       2.782  -0.972   2.366  0.00  0.00    +0.029 A 
ATOM      6  C   UNL     1       2.068  -1.419   3.463  0.00  0.00    +0.105 A 
ATOM      7  C   UNL     1       0.686  -1.407   3.439  0.00  0.00    +0.029 A 
ATOM      8  C   UNL     1       0.017  -0.945   2.321  0.00  0.00    +0.004 A 
BRANCH   6   9
ATOM      9  S   UNL     1       2.920  -2.003   4.890  0.00  0.00    +0.056 S 
ATOM     10  O   UNL     1       2.026  -2.874   5.569  0.00  0.00    -0.153 OA
ATOM     11  O   UNL     1       4.206  -2.422   4.452  0.00  0.00    -0.153 OA
BRANCH   9  12
ATOM     12  N   UNL     1       3.159  -0.702   5.885  0.00  0.00    -0.204 NA
ATOM     13  H   UNL     1       2.842   0.176   5.621  0.00  0.00    +0.144 HD
ATOM     14  H   UNL     1       3.617  -0.817   6.732  0.00  0.00    +0.144 HD
ENDBRANCH   9  12
ENDBRANCH   6   9
ENDBRANCH   2   3
BRANCH   2  15
ATOM     15  N   UNL     1       0.690  -0.478  -1.207  0.00  0.00    +0.384 N 
ATOM     16  H   UNL     1       1.608  -0.063  -1.256  0.00  0.00    -0.085 HD
ATOM     17  H   UNL     1       0.776  -1.482  -1.172  0.00  0.00    -0.085 HD
BRANCH  15  18
ATOM     18  C   UNL     1      -0.086  -0.093  -2.394  0.00  0.00    -0.077 C 
BRANCH  18  19
ATOM     19  C   UNL     1       0.630  -0.587  -3.652  0.00  0.00    -0.006 C 
ATOM     20  C   UNL     1       1.964   0.161  -3.818  0.00  0.00    +0.026 C 
ATOM     21  C   UNL     1       2.537  -0.090  -5.234  0.00  0.00    +0.166 C 
ATOM     22  S   UNL     1       1.024  -0.390  -6.235  0.00  0.00    -0.031 S 
ATOM     23  O   UNL     1       1.062  -1.716  -6.745  0.00  0.00    -0.174 OA
ATOM     24  O   UNL     1       0.839   0.698  -7.130  0.00  0.00    -0.174 OA
ATOM     25  C   UNL     1      -0.246  -0.295  -4.904  0.00  0.00    +0.167 C 
ENDBRANCH  18  19
ENDBRANCH  15  18
ENDBRANCH   2  15
TORSDOF 6
