REMARK  Name = ZINC41563394
REMARK  4 active torsions:
REMARK  status: ('A' for Active; 'I' for Inactive)
REMARK    1  A    between atoms: C_1  and  N_2
REMARK    2  A    between atoms: N_2  and  C_3
REMARK    3  A    between atoms: N_2  and  S_11
REMARK    4  A    between atoms: S_11  and  C_14
REMARK                            x       y       z     vdW  Elec       q    Type
REMARK                         _______ _______ _______ _____ _____    ______ ____
ROOT
ATOM      1  S   UNL     1      -0.000  -0.824  -1.437  0.00  0.00    +0.086 S 
ATOM      2  O   UNL     1      -0.531  -2.115  -1.167  0.00  0.00    -0.151 OA
ATOM      3  O   UNL     1      -0.572   0.049  -2.401  0.00  0.00    -0.151 OA
ENDROOT
BRANCH   1   4
ATOM      4  C   UNL     1       1.682  -1.059  -1.905  0.00  0.00    +0.256 A 
ATOM      5  N   UNL     1       2.790  -0.696  -1.292  0.00  0.00    -0.119 NA
ATOM      6  N   UNL     1       3.932  -0.943  -1.766  0.00  0.00    -0.125 NA
ATOM      7  C   UNL     1       4.088  -1.588  -2.915  0.00  0.00    +0.181 A 
ATOM      8  S   UNL     1       2.373  -1.868  -3.346  0.00  0.00    -0.011 S 
ATOM      9  N   UNL     1       5.247  -1.947  -3.587  0.00  0.00    -0.336 N 
ATOM     10  H   UNL     1       6.114  -1.722  -3.214  0.00  0.00    +0.144 HD
ATOM     11  H   UNL     1       5.191  -2.422  -4.431  0.00  0.00    +0.144 HD
ENDBRANCH   1   4
BRANCH   1  13
ATOM     12  C   UNL     1      -0.018   1.461   0.010  0.00  0.00    +0.132 C 
ATOM     13  N   UNL     1       0.002  -0.004   0.002  0.00  0.00    -0.173 NA
BRANCH  13  14
ATOM     14  C   UNL     1       0.024  -0.743   1.267  0.00  0.00    +0.102 C 
ATOM     15  C   UNL     1      -1.209  -0.372   2.107  0.00  0.00    +0.045 C 
ATOM     16  C   UNL     1      -1.036  -0.889   3.555  0.00  0.00    +0.167 C 
ATOM     17  S   UNL     1       0.791  -0.893   3.767  0.00  0.00    -0.029 S 
ATOM     18  O   UNL     1       1.229  -2.228   3.981  0.00  0.00    -0.174 OA
ATOM     19  O   UNL     1       1.151   0.119   4.698  0.00  0.00    -0.174 OA
ATOM     20  C   UNL     1       1.295  -0.360   2.077  0.00  0.00    +0.186 C 
ENDBRANCH  13  14
ENDBRANCH   1  13
TORSDOF 3
