REMARK  Name = ZINC39982871
REMARK  7 active torsions:
REMARK  status: ('A' for Active; 'I' for Inactive)
REMARK    1  A    between atoms: C_1  and  C_2
REMARK    2  A    between atoms: C_3  and  O_23
REMARK    3  A    between atoms: C_6  and  C_9
REMARK    4  A    between atoms: C_7  and  O_8
REMARK    5  A    between atoms: C_11  and  C_16
REMARK    6  A    between atoms: C_12  and  C_15
REMARK    7  A    between atoms: C_20  and  C_22
REMARK                            x       y       z     vdW  Elec       q    Type
REMARK                         _______ _______ _______ _____ _____    ______ ____
ROOT
ATOM      1  C   UNL     1       0.204  -2.885   2.740  0.00  0.00    +0.162 C 
ATOM      2  C   UNL     1       1.702  -2.835   2.982  0.00  0.00    +0.006 C 
ATOM      3  C   UNL     1       2.101  -4.093   2.785  0.00  0.00    +0.062 C 
ATOM      4  N   UNL     1       1.055  -4.884   2.460  0.00  0.00    -0.183 NA
ATOM      5  N   UNL     1      -0.036  -4.301   2.413  0.00  0.00    -0.297 N 
ATOM      6  C   UNL     1       3.526  -4.568   2.909  0.00  0.00    +0.067 C 
ATOM      7  H   UNL     1      -0.893  -4.702   2.200  0.00  0.00    +0.183 HD
ENDROOT
BRANCH   1  13
ATOM      8  C   UNL     1      -1.336   1.555   0.993  0.00  0.00    +0.051 C 
ATOM      9  C   UNL     1      -0.916   0.129   0.747  0.00  0.00    +0.033 A 
ATOM     10  C   UNL     1      -0.883  -0.372  -0.546  0.00  0.00    +0.123 A 
ATOM     11  C   UNL     1      -0.496  -1.685  -0.771  0.00  0.00    +0.046 A 
ATOM     12  C   UNL     1      -0.145  -2.495   0.293  0.00  0.00    +0.013 A 
ATOM     13  C   UNL     1      -0.179  -1.999   1.582  0.00  0.00    +0.022 A 
ATOM     14  C   UNL     1      -0.558  -0.684   1.811  0.00  0.00    +0.129 A 
BRANCH  14  15
ATOM     15  O   UNL     1      -0.584  -0.195   3.079  0.00  0.00    -0.506 OA
ATOM     16  H   UNL     1      -1.432  -0.314   3.529  0.00  0.00    +0.292 HD
ENDBRANCH  14  15
BRANCH  10  17
ATOM     17  O   UNL     1      -1.228   0.424  -1.592  0.00  0.00    -0.506 OA
ATOM     18  H   UNL     1      -0.488   0.915  -1.974  0.00  0.00    +0.292 HD
ENDBRANCH  10  17
ENDBRANCH   1  13
BRANCH   2  19
ATOM     19  C   UNL     1       2.542  -1.642   3.358  0.00  0.00    +0.146 C 
ATOM     20  C   UNL     1       2.640  -0.683   2.140  0.00  0.00    +0.107 C 
ATOM     21  S   UNL     1       4.380  -0.123   2.383  0.00  0.00    -0.108 S 
ATOM     22  C   UNL     1       4.932  -1.478   3.407  0.00  0.00    +0.066 C 
ATOM     23  N   UNL     1       3.858  -2.096   3.769  0.00  0.00    -0.273 NA
ATOM     24  C   UNL     1       6.352  -1.826   3.771  0.00  0.00    +0.073 C 
ENDBRANCH   2  19
TORSDOF 4
