REMARK  Name = ZINC41185764
REMARK  6 active torsions:
REMARK  status: ('A' for Active; 'I' for Inactive)
REMARK    1  A    between atoms: C_1  and  C_2
REMARK    2  A    between atoms: C_3  and  C_22
REMARK    3  A    between atoms: C_5  and  C_7
REMARK    4  A    between atoms: C_7  and  C_9
REMARK    5  A    between atoms: C_7  and  N_20
REMARK    6  A    between atoms: N_20  and  C_21
REMARK                            x       y       z     vdW  Elec       q    Type
REMARK                         _______ _______ _______ _____ _____    ______ ____
ROOT
ATOM      1  C   UNL     1       0.055  -2.955   2.284  0.00  0.00    +0.016 C 
ENDROOT
BRANCH   1   2
ATOM      2  C   UNL     1       1.431  -2.965   2.898  0.00  0.00    -0.050 A 
ATOM      3  C   UNL     1       2.312  -3.987   2.600  0.00  0.00    +0.052 A 
ATOM      4  C   UNL     1       3.579  -3.999   3.164  0.00  0.00    +0.164 A 
ATOM      5  C   UNL     1       3.961  -2.979   4.028  0.00  0.00    +0.180 A 
ATOM      6  C   UNL     1       3.071  -1.957   4.325  0.00  0.00    +0.086 A 
ATOM      7  C   UNL     1       1.811  -1.949   3.755  0.00  0.00    +0.026 A 
ATOM      8 CL   UNL     1       3.543  -0.684   5.407  0.00  0.00    -0.080 Cl
ATOM      9  O   UNL     1       5.203  -2.968   4.585  0.00  0.00    -0.483 OA
ATOM     10  C   UNL     1       5.932  -4.200   4.559  0.00  0.00    +0.270 C 
ATOM     11  C   UNL     1       5.820  -4.794   3.148  0.00  0.00    +0.270 C 
ATOM     12  O   UNL     1       4.435  -5.014   2.863  0.00  0.00    -0.485 OA
ENDBRANCH   1   2
BRANCH   1  17
ATOM     13  C   UNL     1      -0.018   1.503   0.010  0.00  0.00    +0.066 C 
ATOM     14  C   UNL     1       0.002  -0.004   0.002  0.00  0.00    +0.048 A 
ATOM     15  C   UNL     1       0.006  -0.708  -1.159  0.00  0.00    +0.009 A 
ATOM     16  S   UNL     1       0.032  -2.379  -0.531  0.00  0.00    -0.078 S 
ATOM     17  C   UNL     1       0.036  -2.009   1.111  0.00  0.00    +0.069 A 
ATOM     18  N   UNL     1       0.023  -0.699   1.122  0.00  0.00    -0.250 NA
ATOM     19  C   UNL     1      -0.008  -0.215  -2.583  0.00  0.00    +0.053 C 
ENDBRANCH   1  17
BRANCH   1  20
ATOM     20  N   UNL     1      -0.926  -2.514   3.285  0.00  0.00    +0.386 N 
ATOM     21  C   UNL     1      -2.279  -2.618   2.724  0.00  0.00    -0.099 C 
ATOM     22  H   UNL     1      -0.855  -3.098   4.104  0.00  0.00    -0.085 HD
ATOM     23  H   UNL     1      -0.739  -1.555   3.538  0.00  0.00    -0.085 HD
ENDBRANCH   1  20
TORSDOF 3
