REMARK  Name = ZINC44758101
REMARK  14 active torsions:
REMARK  status: ('A' for Active; 'I' for Inactive)
REMARK    1  A    between atoms: C_1  and  C_2
REMARK    2  A    between atoms: C_2  and  C_3
REMARK    3  A    between atoms: C_3  and  C_5
REMARK    4  A    between atoms: C_3  and  N_6
REMARK    5  A    between atoms: C_7  and  C_9
REMARK    6  A    between atoms: C_9  and  N_10
REMARK    7  A    between atoms: N_13  and  C_16
REMARK    8  A    between atoms: C_16  and  C_17
REMARK    9  A    between atoms: C_19  and  C_25
REMARK   10  A    between atoms: C_21  and  O_24
REMARK   11  A    between atoms: C_22  and  O_23
REMARK   12  A    between atoms: C_25  and  C_26
REMARK   13  A    between atoms: C_25  and  C_27
REMARK   14  A    between atoms: C_25  and  C_28
REMARK                            x       y       z     vdW  Elec       q    Type
REMARK                         _______ _______ _______ _____ _____    ______ ____
ROOT
ATOM      1  N   UNL     1       4.803   0.553  -3.671  0.00  0.00    +0.387 N 
ATOM      2  C   UNL     1       4.112   1.624  -4.401  0.00  0.00    -0.063 C 
ATOM      3  C   UNL     1       4.652   1.698  -5.830  0.00  0.00    +0.066 C 
ATOM      4  N   UNL     1       6.098   1.963  -5.791  0.00  0.00    -0.302 NA
ATOM      5  C   UNL     1       6.800   0.911  -5.042  0.00  0.00    +0.066 C 
ATOM      6  C   UNL     1       6.242   0.843  -3.619  0.00  0.00    -0.063 C 
ATOM      7  H   UNL     1       4.654  -0.326  -4.143  0.00  0.00    -0.081 HD
ENDROOT
BRANCH   1   8
ATOM      8  C   UNL     1       4.271   0.470  -2.304  0.00  0.00    +0.019 C 
BRANCH   8  10
ATOM      9  N   UNL     1       2.125  -0.091  -1.209  0.00  0.00    -0.314 N 
ATOM     10  C   UNL     1       2.824   0.051  -2.353  0.00  0.00    +0.197 C 
ATOM     11  O   UNL     1       2.289  -0.157  -3.421  0.00  0.00    -0.278 OA
ATOM     12  H   UNL     1       2.553   0.075  -0.355  0.00  0.00    +0.149 HD
BRANCH   9  13
ATOM     13  C   UNL     1       0.718  -0.497  -1.257  0.00  0.00    +0.070 C 
ATOM     14  C   UNL     1       0.630  -2.023  -1.329  0.00  0.00    +0.028 C 
BRANCH  13  16
ATOM     15  C   UNL     1      -0.019   1.526   0.010  0.00  0.00    +0.005 C 
ATOM     16  C   UNL     1       0.002  -0.004   0.002  0.00  0.00    +0.018 C 
ENDBRANCH  13  16
ENDBRANCH   9  13
ENDBRANCH   8  10
ENDBRANCH   1   8
BRANCH   4  17
ATOM     17  C   UNL     1       6.645   2.098  -7.147  0.00  0.00    +0.123 C 
BRANCH  17  18
ATOM     18  C   UNL     1       8.062   2.607  -7.069  0.00  0.00    +0.012 A 
ATOM     19  C   UNL     1       9.119   1.746  -7.300  0.00  0.00    +0.013 A 
ATOM     20  C   UNL     1      10.419   2.209  -7.229  0.00  0.00    -0.038 A 
ATOM     21  C   UNL     1      10.668   3.535  -6.927  0.00  0.00    +0.053 A 
ATOM     22  C   UNL     1       9.614   4.403  -6.694  0.00  0.00    +0.159 A 
ATOM     23  C   UNL     1       8.304   3.938  -6.772  0.00  0.00    +0.163 A 
BRANCH  20  24
ATOM     24  C   UNL     1      11.568   1.267  -7.482  0.00  0.00    -0.013 C 
ATOM     25  C   UNL     1      11.456   0.693  -8.896  0.00  0.00    +0.015 C 
ATOM     26  C   UNL     1      12.889   2.025  -7.343  0.00  0.00    +0.015 C 
ATOM     27  C   UNL     1      11.525   0.126  -6.463  0.00  0.00    +0.015 C 
ENDBRANCH  20  24
BRANCH  23  28
ATOM     28  O   UNL     1       7.265   4.786  -6.550  0.00  0.00    -0.503 OA
ATOM     29  H   UNL     1       6.988   4.835  -5.625  0.00  0.00    +0.292 HD
ENDBRANCH  23  28
BRANCH  22  30
ATOM     30  O   UNL     1       9.857   5.707  -6.396  0.00  0.00    -0.503 OA
ATOM     31  H   UNL     1       9.903   6.285  -7.170  0.00  0.00    +0.292 HD
ENDBRANCH  22  30
ENDBRANCH  17  18
ENDBRANCH   4  17
TORSDOF 9
