REMARK  Name = ZINC38677664
REMARK  9 active torsions:
REMARK  status: ('A' for Active; 'I' for Inactive)
REMARK    1  A    between atoms: C_1  and  N_2
REMARK    2  A    between atoms: C_6  and  C_7
REMARK    3  A    between atoms: C_7  and  C_9
REMARK    4  A    between atoms: C_7  and  N_28
REMARK    5  A    between atoms: C_9  and  N_10
REMARK    6  A    between atoms: C_11  and  C_13
REMARK    7  A    between atoms: N_18  and  C_20
REMARK    8  A    between atoms: C_23  and  O_26
REMARK    9  A    between atoms: O_26  and  C_27
REMARK                            x       y       z     vdW  Elec       q    Type
REMARK                         _______ _______ _______ _____ _____    ______ ____
ROOT
ATOM      1  N   UNL     1       1.353   0.504   4.332  0.00  0.00    -0.316 N 
ATOM      2  C   UNL     1       2.440   1.070   4.895  0.00  0.00    +0.218 C 
ATOM      3  O   UNL     1       3.358   1.445   4.197  0.00  0.00    -0.275 OA
ATOM      4  H   UNL     1       0.619   0.204   4.891  0.00  0.00    +0.149 HD
ENDROOT
BRANCH   2   5
ATOM      5  C   UNL     1       2.514   1.236   6.391  0.00  0.00    +0.101 C 
ATOM      6  C   UNL     1       2.538  -0.138   7.100  0.00  0.00    +0.110 C 
ATOM      7  C   UNL     1       4.010  -0.440   7.274  0.00  0.00    +0.221 C 
ATOM      8  O   UNL     1       4.469  -1.533   7.530  0.00  0.00    -0.275 OA
ATOM      9  N   UNL     1       4.735   0.679   7.103  0.00  0.00    -0.271 N 
ATOM     10  C   UNL     1       3.874   1.834   6.814  0.00  0.00    +0.127 C 
BRANCH   9  11
ATOM     11  C   UNL     1       6.132   0.737   7.191  0.00  0.00    +0.036 A 
ATOM     12  C   UNL     1       6.867  -0.431   7.340  0.00  0.00    +0.027 A 
ATOM     13  C   UNL     1       8.244  -0.374   7.425  0.00  0.00    +0.047 A 
ATOM     14  C   UNL     1       8.893   0.851   7.362  0.00  0.00    +0.120 A 
ATOM     15  C   UNL     1       8.159   2.018   7.214  0.00  0.00    +0.047 A 
ATOM     16  C   UNL     1       6.782   1.962   7.122  0.00  0.00    +0.027 A 
BRANCH  14  17
ATOM     17  O   UNL     1      10.249   0.907   7.447  0.00  0.00    -0.495 OA
ATOM     18  C   UNL     1      10.850   2.201   7.375  0.00  0.00    +0.277 C 
ENDBRANCH  14  17
ENDBRANCH   9  11
ENDBRANCH   2   5
BRANCH   1  19
ATOM     19  C   UNL     1       1.281   0.343   2.878  0.00  0.00    +0.095 C 
BRANCH  19  20
ATOM     20  C   UNL     1       0.026  -0.452   2.515  0.00  0.00    -0.003 C 
BRANCH  20  21
ATOM     21  N   UNL     1       0.122  -1.805   3.081  0.00  0.00    +0.386 N 
ATOM     22  C   UNL     1      -0.051  -1.719   4.544  0.00  0.00    -0.078 C 
ATOM     23  C   UNL     1      -0.551  -3.052   5.041  0.00  0.00    -0.019 C 
ATOM     24  C   UNL     1       0.605  -3.934   5.550  0.00  0.00    -0.002 C 
ATOM     25  C   UNL     1       1.845  -3.833   4.639  0.00  0.00    -0.002 C 
ATOM     26  C   UNL     1       1.484  -3.825   3.175  0.00  0.00    -0.019 C 
ATOM     27  C   UNL     1       1.343  -2.364   2.700  0.00  0.00    -0.078 C 
ATOM     28  H   UNL     1      -0.624  -2.368   2.701  0.00  0.00    -0.081 HD
ENDBRANCH  20  21
BRANCH  20  34
ATOM     29  C   UNL     1      -0.103   1.927   0.531  0.00  0.00    +0.148 C 
ATOM     30  N   UNL     1      -0.151   0.512   0.153  0.00  0.00    -0.355 N 
ATOM     31  C   UNL     1      -0.253   0.032  -1.119  0.00  0.00    +0.085 A 
ATOM     32  C   UNL     1      -0.268  -1.315  -1.062  0.00  0.00    +0.019 A 
ATOM     33  C   UNL     1      -0.171  -1.681   0.296  0.00  0.00    +0.021 A 
ATOM     34  C   UNL     1      -0.096  -0.543   1.016  0.00  0.00    +0.006 A 
ENDBRANCH  20  34
ENDBRANCH  19  20
ENDBRANCH   1  19
TORSDOF 7
