REMARK  Name = ZINC35739443
REMARK  4 active torsions:
REMARK  status: ('A' for Active; 'I' for Inactive)
REMARK    1  A    between atoms: C_1  and  C_2
REMARK    2  A    between atoms: C_2  and  C_4
REMARK    3  A    between atoms: C_2  and  N_9
REMARK    4  A    between atoms: C_16  and  N_20
REMARK                            x       y       z     vdW  Elec       q    Type
REMARK                         _______ _______ _______ _____ _____    ______ ____
ROOT
ATOM      1  N   UNL     1       0.711  -0.489   1.189  0.00  0.00    -0.224 N 
ATOM      2  C   UNL     1       0.335  -0.237   2.456  0.00  0.00    +0.255 C 
ATOM      3  O   UNL     1      -0.630   0.419   2.793  0.00  0.00    -0.270 OA
ATOM      4  C   UNL     1       1.295  -0.892   3.369  0.00  0.00    +0.051 A 
ATOM      5  C   UNL     1       1.416  -0.979   4.745  0.00  0.00    +0.014 A 
ATOM      6  C   UNL     1       2.466  -1.695   5.304  0.00  0.00    +0.003 A 
ATOM      7  C   UNL     1       3.393  -2.324   4.501  0.00  0.00    +0.023 A 
ATOM      8  C   UNL     1       3.289  -2.249   3.111  0.00  0.00    +0.038 A 
ATOM      9  C   UNL     1       2.239  -1.533   2.538  0.00  0.00    +0.070 A 
ATOM     10  C   UNL     1       1.819  -1.251   1.155  0.00  0.00    +0.256 C 
ATOM     11  O   UNL     1       2.382  -1.639   0.151  0.00  0.00    -0.269 OA
ENDROOT
BRANCH   8  12
ATOM     12  N   UNL     1       4.224  -2.883   2.305  0.00  0.00    -0.357 N 
ATOM     13  H   UNL     1       4.953  -3.380   2.707  0.00  0.00    +0.142 HD
ATOM     14  H   UNL     1       4.148  -2.829   1.339  0.00  0.00    +0.142 HD
ENDBRANCH   8  12
BRANCH   1  16
ATOM     15  C   UNL     1      -0.019   1.526   0.010  0.00  0.00    +0.037 C 
ATOM     16  C   UNL     1       0.002  -0.004   0.002  0.00  0.00    +0.147 C 
BRANCH  16  17
ATOM     17  C   UNL     1      -1.412  -0.526   0.013  0.00  0.00    +0.125 A 
ATOM     18  C   UNL     1      -2.093  -0.975  -1.057  0.00  0.00    +0.046 A 
ATOM     19  C   UNL     1      -3.371  -1.363  -0.595  0.00  0.00    +0.041 A 
ATOM     20  C   UNL     1      -3.395  -1.128   0.729  0.00  0.00    +0.195 A 
ATOM     21  O   UNL     1      -2.204  -0.626   1.093  0.00  0.00    -0.466 OA
ENDBRANCH  16  17
ENDBRANCH   1  16
TORSDOF 3
