REMARK  Name = ZINC66567526
REMARK  11 active torsions:
REMARK  status: ('A' for Active; 'I' for Inactive)
REMARK    1  A    between atoms: C_1  and  C_2
REMARK    2  A    between atoms: C_2  and  N_16
REMARK    3  A    between atoms: N_5  and  C_8
REMARK    4  A    between atoms: C_8  and  C_9
REMARK    5  A    between atoms: C_9  and  C_10
REMARK    6  A    between atoms: N_16  and  C_17
REMARK    7  A    between atoms: C_18  and  O_20
REMARK    8  A    between atoms: O_20  and  C_21
REMARK    9  A    between atoms: C_21  and  C_22
REMARK   10  A    between atoms: C_21  and  C_23
REMARK   11  A    between atoms: C_21  and  C_24
REMARK                            x       y       z     vdW  Elec       q    Type
REMARK                         _______ _______ _______ _____ _____    ______ ____
ROOT
ATOM      1  C   UNL     1      -0.032   1.534  -0.047  0.00  0.00    +0.032 C 
ATOM      2  C   UNL     1      -0.001   0.005  -0.002  0.00  0.00    +0.034 C 
ATOM      3  C   UNL     1       0.740  -0.529  -1.232  0.00  0.00    +0.007 C 
ATOM      4  C   UNL     1       0.836  -2.053  -1.140  0.00  0.00    -0.077 C 
ATOM      5  N   UNL     1       1.568  -2.429   0.075  0.00  0.00    +0.380 N 
ATOM      6  C   UNL     1       0.827  -1.983   1.261  0.00  0.00    -0.077 C 
ATOM      7  C   UNL     1       0.730  -0.456   1.262  0.00  0.00    +0.007 C 
ATOM      8  H   UNL     1       2.479  -1.994   0.066  0.00  0.00    -0.082 HD
ENDROOT
BRANCH   2   9
ATOM      9  N   UNL     1      -1.372  -0.513   0.009  0.00  0.00    -0.265 N 
ATOM     10  C   UNL     1      -1.880  -1.264  -1.142  0.00  0.00    +0.136 C 
ATOM     11  C   UNL     1      -2.165  -0.298   1.077  0.00  0.00    +0.404 C 
ATOM     12  O   UNL     1      -1.743   0.325   2.031  0.00  0.00    -0.226 OA
BRANCH  11  13
ATOM     13  O   UNL     1      -3.424  -0.773   1.087  0.00  0.00    -0.445 OA
BRANCH  13  14
ATOM     14  C   UNL     1      -4.208  -0.509   2.252  0.00  0.00    +0.107 C 
ATOM     15  C   UNL     1      -4.338   1.003   2.446  0.00  0.00    +0.055 C 
ATOM     16  C   UNL     1      -5.600  -1.122   2.080  0.00  0.00    +0.055 C 
ATOM     17  C   UNL     1      -3.527  -1.124   3.476  0.00  0.00    +0.055 C 
ENDBRANCH  13  14
ENDBRANCH  11  13
ENDBRANCH   2   9
BRANCH   5  18
ATOM     18  C   UNL     1       1.726  -3.889   0.119  0.00  0.00    -0.070 C 
BRANCH  18  19
ATOM     19  C   UNL     1       2.595  -4.272   1.318  0.00  0.00    +0.078 C 
BRANCH  19  20
ATOM     20  C   UNL     1       2.757  -5.770   1.363  0.00  0.00    +0.219 C 
ATOM     21  O   UNL     1       2.229  -6.462   0.519  0.00  0.00    -0.275 OA
ATOM     22  N   UNL     1       3.488  -6.340   2.341  0.00  0.00    -0.240 N 
ATOM     23  C   UNL     1       3.633  -7.679   2.381  0.00  0.00    +0.303 C 
ATOM     24  O   UNL     1       3.104  -8.373   1.535  0.00  0.00    -0.253 OA
ATOM     25  N   UNL     1       4.364  -8.249   3.359  0.00  0.00    -0.313 N 
ATOM     26  H   UNL     1       3.910  -5.786   3.016  0.00  0.00    +0.159 HD
ATOM     27  H   UNL     1       4.786  -7.696   4.035  0.00  0.00    +0.146 HD
ATOM     28  H   UNL     1       4.468  -9.213   3.388  0.00  0.00    +0.146 HD
ENDBRANCH  19  20
ENDBRANCH  18  19
ENDBRANCH   5  18
TORSDOF 6
