REMARK  Name = ZINC43218857
REMARK  7 active torsions:
REMARK  status: ('A' for Active; 'I' for Inactive)
REMARK    1  A    between atoms: C_1  and  C_2
REMARK    2  A    between atoms: C_2  and  C_3
REMARK    3  A    between atoms: C_2  and  C_4
REMARK    4  A    between atoms: C_2  and  N_5
REMARK    5  A    between atoms: C_10  and  C_27
REMARK    6  A    between atoms: C_13  and  C_18
REMARK    7  A    between atoms: C_13  and  C_24
REMARK                            x       y       z     vdW  Elec       q    Type
REMARK                         _______ _______ _______ _____ _____    ______ ____
ROOT
ATOM      1  N   UNL     1       0.325  -0.702  -1.424  0.00  0.00    -0.236 N 
ATOM      2  C   UNL     1      -0.126  -1.467  -2.470  0.00  0.00    +0.225 C 
ATOM      3  O   UNL     1      -1.275  -1.740  -2.746  0.00  0.00    -0.275 OA
ATOM      4  C   UNL     1       1.067  -1.875  -3.170  0.00  0.00    +0.077 C 
ATOM      5  C   UNL     1       1.500  -2.365  -4.490  0.00  0.00    -0.026 C 
ATOM      6  N   UNL     1       2.998  -2.285  -4.380  0.00  0.00    +0.398 N 
ATOM      7  C   UNL     1       3.325  -1.279  -3.325  0.00  0.00    +0.074 C 
ATOM      8  C   UNL     1       1.986  -0.601  -2.998  0.00  0.00    +0.090 C 
ATOM      9  C   UNL     1       1.637  -0.346  -1.558  0.00  0.00    +0.226 C 
ATOM     10  O   UNL     1       2.371   0.083  -0.693  0.00  0.00    -0.275 OA
ATOM     11  H   UNL     1       3.370  -3.186  -4.120  0.00  0.00    -0.083 HD
ATOM     12  H   UNL     1       3.390  -1.994  -5.263  0.00  0.00    -0.083 HD
ENDROOT
BRANCH   5  13
ATOM     13  C   UNL     1       1.052  -3.787  -4.709  0.00  0.00    -0.061 A 
ATOM     14  C   UNL     1       1.850  -4.835  -4.292  0.00  0.00    +0.003 A 
ATOM     15  C   UNL     1       1.439  -6.140  -4.492  0.00  0.00    +0.015 A 
ATOM     16  C   UNL     1       0.229  -6.396  -5.110  0.00  0.00    +0.018 A 
ATOM     17  C   UNL     1      -0.570  -5.347  -5.527  0.00  0.00    +0.015 A 
ATOM     18  C   UNL     1      -0.161  -4.043  -5.322  0.00  0.00    +0.003 A 
ATOM     19 BR   UNL     1      -0.334  -8.181  -5.385  0.00  0.00    -0.050 Br
ENDBRANCH   5  13
BRANCH   7  20
ATOM     20  C   UNL     1       3.901  -1.964  -2.112  0.00  0.00    -0.047 A 
ATOM     21  C   UNL     1       4.809  -1.299  -1.310  0.00  0.00    +0.003 A 
ATOM     22  C   UNL     1       5.337  -1.927  -0.197  0.00  0.00    +0.000 A 
ATOM     23  C   UNL     1       4.957  -3.220   0.113  0.00  0.00    +0.000 A 
ATOM     24  C   UNL     1       4.049  -3.884  -0.690  0.00  0.00    +0.000 A 
ATOM     25  C   UNL     1       3.517  -3.255  -1.800  0.00  0.00    +0.003 A 
ENDBRANCH   7  20
BRANCH   1  27
ATOM     26  C   UNL     1      -0.588   1.222  -0.222  0.00  0.00    +0.031 C 
ATOM     27  C   UNL     1      -0.512  -0.304  -0.289  0.00  0.00    +0.036 C 
ATOM     28  C   UNL     1       0.097  -0.843   1.007  0.00  0.00    +0.031 C 
ATOM     29  C   UNL     1      -1.919  -0.877  -0.468  0.00  0.00    +0.031 C 
ENDBRANCH   1  27
BRANCH   7  30
ATOM     30  C   UNL     1       4.296  -0.259  -3.860  0.00  0.00    +0.350 C 
ATOM     31  O   UNL     1       4.715  -0.355  -5.002  0.00  0.00    -0.248 OA
ATOM     32  O   UNL     1       4.664   0.662  -3.152  0.00  0.00    -0.248 OA
ENDBRANCH   7  30
TORSDOF 4
