REMARK  Name = ZINC04618299
REMARK  5 active torsions:
REMARK  status: ('A' for Active; 'I' for Inactive)
REMARK    1  A    between atoms: C_2  and  C_3
REMARK    2  A    between atoms: C_2  and  N_10
REMARK    3  A    between atoms: C_8  and  O_9
REMARK    4  A    between atoms: N_10  and  N_11
REMARK    5  A    between atoms: C_12  and  C_23
REMARK                            x       y       z     vdW  Elec       q    Type
REMARK                         _______ _______ _______ _____ _____    ______ ____
ROOT
ATOM      1  N   UNL     1       2.418   0.035  -0.153  0.00  0.00    -0.193 N 
ATOM      2  C   UNL     1       3.121   0.060  -1.436  0.00  0.00    +0.218 C 
ATOM      3  N   UNL     1       3.842   1.329  -1.596  0.00  0.00    -0.320 N 
ATOM      4  C   UNL     1       4.567   1.822  -0.517  0.00  0.00    +0.041 A 
ATOM      5  C   UNL     1       5.700   2.599  -0.688  0.00  0.00    +0.024 A 
ATOM      6  C   UNL     1       6.386   3.060   0.419  0.00  0.00    +0.002 A 
ATOM      7  C   UNL     1       5.949   2.752   1.698  0.00  0.00    +0.001 A 
ATOM      8  C   UNL     1       4.821   1.980   1.886  0.00  0.00    +0.015 A 
ATOM      9  C   UNL     1       4.119   1.510   0.779  0.00  0.00    +0.059 A 
ATOM     10  C   UNL     1       2.900   0.694   0.921  0.00  0.00    +0.266 C 
ATOM     11  O   UNL     1       2.337   0.612   1.996  0.00  0.00    -0.268 OA
ATOM     12  H   UNL     1       3.813   1.813  -2.436  0.00  0.00    +0.148 HD
ENDROOT
BRANCH   2  13
ATOM     13  C   UNL     1       4.106  -1.079  -1.488  0.00  0.00    +0.029 A 
ATOM     14  C   UNL     1       5.292  -1.153  -2.140  0.00  0.00    +0.015 A 
ATOM     15  C   UNL     1       6.039  -2.312  -2.044  0.00  0.00    +0.008 A 
ATOM     16  C   UNL     1       5.563  -3.341  -1.301  0.00  0.00    +0.045 A 
ATOM     17  S   UNL     1       4.018  -2.679  -0.700  0.00  0.00    -0.098 S 
ENDBRANCH   2  13
BRANCH   1  18
ATOM     18  N   UNL     1       1.220  -0.683  -0.040  0.00  0.00    -0.260 N 
ATOM     19  H   UNL     1       1.238  -1.651   0.010  0.00  0.00    +0.170 HD
BRANCH  18  21
ATOM     20  C   UNL     1      -0.022   1.328  -0.066  0.00  0.00    +0.035 C 
ATOM     21  C   UNL     1       0.002  -0.004   0.002  0.00  0.00    +0.048 C 
BRANCH  21  22
ATOM     22  C   UNL     1      -1.264  -0.762   0.122  0.00  0.00    +0.038 A 
ATOM     23  C   UNL     1      -2.271  -0.599  -0.829  0.00  0.00    +0.013 A 
ATOM     24  C   UNL     1      -3.448  -1.308  -0.713  0.00  0.00    +0.001 A 
ATOM     25  C   UNL     1      -3.635  -2.182   0.345  0.00  0.00    +0.004 A 
ATOM     26  C   UNL     1      -2.644  -2.352   1.293  0.00  0.00    +0.046 A 
ATOM     27  C   UNL     1      -1.453  -1.650   1.186  0.00  0.00    +0.126 A 
BRANCH  27  28
ATOM     28  O   UNL     1      -0.476  -1.820   2.114  0.00  0.00    -0.506 OA
ATOM     29  H   UNL     1      -0.539  -1.216   2.867  0.00  0.00    +0.292 HD
ENDBRANCH  27  28
ENDBRANCH  21  22
ENDBRANCH  18  21
ENDBRANCH   1  18
TORSDOF 5
