REMARK  Name = ZINC22239130
REMARK  6 active torsions:
REMARK  status: ('A' for Active; 'I' for Inactive)
REMARK    1  A    between atoms: C_1  and  C_2
REMARK    2  A    between atoms: C_2  and  O_3
REMARK    3  A    between atoms: O_3  and  C_4
REMARK    4  A    between atoms: C_6  and  C_12
REMARK    5  A    between atoms: C_9  and  O_10
REMARK    6  A    between atoms: N_19  and  C_22
REMARK                            x       y       z     vdW  Elec       q    Type
REMARK                         _______ _______ _______ _____ _____    ______ ____
ROOT
ATOM      1  C   UNL     1      -2.631   4.409   0.780  0.00  0.00    +0.026 C 
ATOM      2  C   UNL     1      -3.761   3.764   0.315  0.00  0.00    +0.102 C 
ATOM      3  C   UNL     1      -3.723   2.353  -0.115  0.00  0.00    +0.276 C 
ATOM      4  O   UNL     1      -2.688   1.714  -0.072  0.00  0.00    -0.268 OA
ATOM      5  N   UNL     1      -4.866   1.790  -0.557  0.00  0.00    -0.123 NA
ATOM      6  C   UNL     1      -6.013   2.482  -0.610  0.00  0.00    +0.340 C 
ATOM      7  O   UNL     1      -7.008   1.915  -1.018  0.00  0.00    -0.250 OA
ATOM      8  N   UNL     1      -6.122   3.764  -0.236  0.00  0.00    -0.188 N 
ATOM      9  C   UNL     1      -5.063   4.455   0.233  0.00  0.00    +0.264 C 
ATOM     10  O   UNL     1      -5.176   5.618   0.573  0.00  0.00    -0.269 OA
ENDROOT
BRANCH   8  11
ATOM     11  C   UNL     1      -7.368   4.400  -0.329  0.00  0.00    +0.047 A 
ATOM     12  C   UNL     1      -8.300   4.257   0.690  0.00  0.00    +0.025 A 
ATOM     13  C   UNL     1      -9.527   4.885   0.597  0.00  0.00    +0.023 A 
ATOM     14  C   UNL     1      -9.828   5.657  -0.511  0.00  0.00    +0.059 A 
ATOM     15  C   UNL     1      -8.901   5.801  -1.529  0.00  0.00    +0.061 A 
ATOM     16  C   UNL     1      -7.670   5.179  -1.438  0.00  0.00    +0.045 A 
ATOM     17 CL   UNL     1      -9.283   6.770  -2.918  0.00  0.00    -0.082 Cl
ATOM     18 CL   UNL     1     -11.371   6.444  -0.625  0.00  0.00    -0.082 Cl
ENDBRANCH   8  11
BRANCH   1  21
ATOM     19  C   UNL     1       0.845   3.221   1.513  0.00  0.00    +0.164 A 
ATOM     20  C   UNL     1      -0.393   3.808   1.673  0.00  0.00    +0.057 A 
ATOM     21  C   UNL     1      -1.317   3.788   0.618  0.00  0.00    -0.019 A 
ATOM     22  C   UNL     1      -0.973   3.174  -0.597  0.00  0.00    +0.031 A 
ATOM     23  C   UNL     1       0.263   2.586  -0.744  0.00  0.00    +0.087 A 
ATOM     24  C   UNL     1       1.177   2.608   0.304  0.00  0.00    +0.177 A 
ATOM     25 CL   UNL     1       0.685   1.822  -2.245  0.00  0.00    -0.080 Cl
BRANCH  24  26
ATOM     26  O   UNL     1       2.397   2.032   0.150  0.00  0.00    -0.502 OA
ATOM     27  H   UNL     1       2.660   1.549  -0.802  0.00  0.00    +0.292 HD
ENDBRANCH  24  26
BRANCH  19  28
ATOM     28  O   UNL     1       1.743   3.239   2.535  0.00  0.00    -0.489 OA
BRANCH  28  30
ATOM     29  C   UNL     1       2.470   3.803   4.769  0.00  0.00    +0.048 C 
ATOM     30  C   UNL     1       1.337   3.882   3.744  0.00  0.00    +0.226 C 
ENDBRANCH  28  30
ENDBRANCH  19  28
ENDBRANCH   1  21
TORSDOF 5
