REMARK  Name = ZINC38777285
REMARK  4 active torsions:
REMARK  status: ('A' for Active; 'I' for Inactive)
REMARK    1  A    between atoms: C_3  and  C_6
REMARK    2  A    between atoms: N_8  and  C_9
REMARK    3  A    between atoms: C_9  and  C_10
REMARK    4  A    between atoms: C_10  and  C_11
REMARK                            x       y       z     vdW  Elec       q    Type
REMARK                         _______ _______ _______ _____ _____    ______ ____
ROOT
ATOM      1  C   UNL     1       7.652  -2.090  -0.083  0.00  0.00    +0.217 C 
ATOM      2  O   UNL     1       8.284  -1.055  -0.084  0.00  0.00    -0.276 OA
ATOM      3  N   UNL     1       8.297  -3.273  -0.096  0.00  0.00    -0.302 N 
ATOM      4  C   UNL     1       7.546  -4.536  -0.101  0.00  0.00    +0.106 C 
ATOM      5  C   UNL     1       8.038  -5.406   1.060  0.00  0.00    +0.009 C 
ATOM      6  C   UNL     1       9.555  -5.575   0.960  0.00  0.00    -0.037 C 
ATOM      7  C   UNL     1      10.235  -4.209   1.056  0.00  0.00    +0.009 C 
ATOM      8  C   UNL     1       9.766  -3.325  -0.111  0.00  0.00    +0.106 C 
ATOM      9  C   UNL     1      10.047  -6.477   2.092  0.00  0.00    +0.140 C 
ATOM     10  C   UNL     1       9.420  -7.844   1.832  0.00  0.00    +0.042 C 
ATOM     11  N   UNL     1       8.778  -8.146   2.892  0.00  0.00    -0.243 NA
ATOM     12  C   UNL     1       8.803  -7.137   3.797  0.00  0.00    +0.216 C 
ATOM     13  N   UNL     1       9.510  -6.100   3.400  0.00  0.00    -0.264 NA
ATOM     14  C   UNL     1       9.523  -8.512   0.484  0.00  0.00    +0.034 C 
ATOM     15  C   UNL     1       9.135  -7.439  -0.551  0.00  0.00    -0.076 C 
ATOM     16  N   UNL     1       9.897  -6.209  -0.321  0.00  0.00    +0.385 N 
ATOM     17  H   UNL     1       9.704  -5.561  -1.070  0.00  0.00    -0.085 HD
ATOM     18  H   UNL     1      10.882  -6.429  -0.326  0.00  0.00    -0.085 HD
ENDROOT
BRANCH   1  19
ATOM     19  C   UNL     1       6.146  -2.054  -0.068  0.00  0.00    +0.114 C 
BRANCH  19  20
ATOM     20  C   UNL     1       5.671  -0.599  -0.056  0.00  0.00    +0.114 C 
BRANCH  20  23
ATOM     21  C   UNL     1       3.561   0.619  -0.029  0.00  0.00    +0.279 C 
ATOM     22  O   UNL     1       4.195   1.658  -0.030  0.00  0.00    -0.267 OA
ATOM     23  N   UNL     1       4.206  -0.564  -0.042  0.00  0.00    -0.308 N 
ATOM     24  H   UNL     1       3.701  -1.392  -0.041  0.00  0.00    +0.149 HD
BRANCH  21  27
ATOM     25  C   UNL     1      -0.016   1.347   0.009  0.00  0.00    +0.042 A 
ATOM     26  C   UNL     1       1.319   1.778  -0.001  0.00  0.00    +0.054 A 
ATOM     27  C   UNL     1       2.095   0.654  -0.014  0.00  0.00    +0.189 A 
ATOM     28  O   UNL     1       1.276  -0.418  -0.012  0.00  0.00    -0.458 OA
ATOM     29  C   UNL     1       0.002  -0.004   0.002  0.00  0.00    +0.196 A 
ENDBRANCH  21  27
ENDBRANCH  20  23
ENDBRANCH  19  20
ENDBRANCH   1  19
TORSDOF 4
