REMARK  Name = ZINC18196490
REMARK  6 active torsions:
REMARK  status: ('A' for Active; 'I' for Inactive)
REMARK    1  A    between atoms: C_2  and  C_3
REMARK    2  A    between atoms: C_3  and  O_4
REMARK    3  A    between atoms: O_4  and  C_5
REMARK    4  A    between atoms: C_8  and  C_11
REMARK    5  A    between atoms: C_18  and  O_19
REMARK    6  A    between atoms: C_26  and  C_29
REMARK                            x       y       z     vdW  Elec       q    Type
REMARK                         _______ _______ _______ _____ _____    ______ ____
ROOT
ATOM      1  C   UNL     1       4.829   7.585   0.009  0.00  0.00    +0.092 C 
ATOM      2  C   UNL     1       5.476   7.719  -1.340  0.00  0.00    +0.067 A 
ATOM      3  C   UNL     1       4.926   7.183  -2.475  0.00  0.00    +0.126 A 
ATOM      4  N   UNL     1       5.740   7.479  -3.506  0.00  0.00    -0.260 N 
ATOM      5  H   UNL     1       5.599   7.221  -4.461  0.00  0.00    +0.190 HD
ATOM      6  N   UNL     1       6.824   8.214  -2.998  0.00  0.00    -0.134 NA
ATOM      7  C   UNL     1       6.660   8.355  -1.701  0.00  0.00    +0.237 A 
ATOM      8  N   UNL     1       3.731   6.475  -2.435  0.00  0.00    -0.303 N 
ATOM      9  C   UNL     1       3.254   6.061  -1.217  0.00  0.00    +0.017 C 
ATOM     10  C   UNL     1       3.740   6.535  -0.050  0.00  0.00    +0.024 C 
ATOM     11  C   UNL     1       3.242   6.072   1.181  0.00  0.00    +0.162 C 
ATOM     12  O   UNL     1       3.695   6.527   2.213  0.00  0.00    -0.292 OA
ATOM     13  C   UNL     1       2.164   5.027   1.250  0.00  0.00    +0.088 C 
ATOM     14  C   UNL     1       2.248   4.142   0.003  0.00  0.00    +0.039 C 
ATOM     15  C   UNL     1       2.139   5.039  -1.232  0.00  0.00    +0.060 C 
ATOM     16  H   UNL     1       3.245   6.278  -3.251  0.00  0.00    +0.153 HD
ENDROOT
BRANCH   1  20
ATOM     17  C   UNL     1       3.129  11.336   1.148  0.00  0.00    +0.121 A 
ATOM     18  C   UNL     1       4.114  10.753   1.932  0.00  0.00    +0.046 A 
ATOM     19  C   UNL     1       4.662   9.540   1.562  0.00  0.00    +0.008 A 
ATOM     20  C   UNL     1       4.229   8.908   0.411  0.00  0.00    -0.035 A 
ATOM     21  C   UNL     1       3.252   9.490  -0.375  0.00  0.00    +0.008 A 
ATOM     22  C   UNL     1       2.696  10.699  -0.006  0.00  0.00    +0.046 A 
BRANCH  17  23
ATOM     23  O   UNL     1       2.589  12.530   1.510  0.00  0.00    -0.488 OA
BRANCH  23  24
ATOM     24  C   UNL     1       1.579  13.071   0.656  0.00  0.00    +0.256 C 
BRANCH  24  26
ATOM     25  C   UNL     1       0.946  15.417   0.419  0.00  0.00    +0.007 C 
ATOM     26  C   UNL     1       1.102  14.387   1.213  0.00  0.00    +0.006 C 
ENDBRANCH  24  26
ENDBRANCH  23  24
ENDBRANCH  17  23
ENDBRANCH   1  20
BRANCH  14  27
ATOM     27  C   UNL     1       1.115   3.148   0.008  0.00  0.00    -0.006 A 
ATOM     28  C   UNL     1       1.169   1.793   0.001  0.00  0.00    +0.011 A 
ATOM     29  C   UNL     1      -0.013   1.076   0.008  0.00  0.00    +0.008 A 
ATOM     30  C   UNL     1      -1.190   1.748   0.017  0.00  0.00    +0.045 A 
ATOM     31  S   UNL     1      -0.644   3.448   0.027  0.00  0.00    -0.101 S 
ENDBRANCH  14  27
BRANCH   7  32
ATOM     32  O   UNL     1       7.503   9.009  -0.857  0.00  0.00    -0.491 OA
ATOM     33  H   UNL     1       8.277   9.373  -1.375  0.00  0.00    +0.294 HD
ENDBRANCH   7  32
TORSDOF 6
