REMARK  Name = ZINC45462486
REMARK  8 active torsions:
REMARK  status: ('A' for Active; 'I' for Inactive)
REMARK    1  A    between atoms: C_1  and  C_2
REMARK    2  A    between atoms: C_2  and  C_3
REMARK    3  A    between atoms: C_2  and  C_15
REMARK    4  A    between atoms: C_2  and  N_18
REMARK    5  A    between atoms: C_3  and  O_4
REMARK    6  A    between atoms: O_4  and  C_5
REMARK    7  A    between atoms: C_8  and  N_12
REMARK    8  A    between atoms: N_18  and  C_19
REMARK                            x       y       z     vdW  Elec       q    Type
REMARK                         _______ _______ _______ _____ _____    ______ ____
ROOT
ATOM      1  C   UNL     1      -0.019   1.526   0.010  0.00  0.00    +0.003 C 
ATOM      2  C   UNL     1       0.002  -0.004   0.002  0.00  0.00    +0.042 C 
ENDROOT
BRANCH   2   3
ATOM      3  C   UNL     1       0.707  -0.490  -1.238  0.00  0.00    +0.203 C 
ATOM      4  O   UNL     1       1.522   0.219  -1.790  0.00  0.00    -0.277 OA
ATOM      5  N   UNL     1       0.433  -1.713  -1.733  0.00  0.00    -0.330 N 
ATOM      6  H   UNL     1      -0.218  -2.281  -1.292  0.00  0.00    +0.145 HD
ATOM      7  H   UNL     1       0.888  -2.026  -2.531  0.00  0.00    +0.145 HD
ENDBRANCH   2   3
BRANCH   2   8
ATOM      8  N   UNL     1      -1.376  -0.512   0.012  0.00  0.00    +0.392 N 
ATOM      9  H   UNL     1      -1.362  -1.521   0.007  0.00  0.00    -0.084 HD
ATOM     10  H   UNL     1      -1.848  -0.187   0.843  0.00  0.00    -0.084 HD
BRANCH   8  11
ATOM     11  C   UNL     1      -2.087  -0.026  -1.178  0.00  0.00    -0.070 C 
ATOM     12  C   UNL     1      -3.284   0.901  -0.956  0.00  0.00    -0.017 C 
ATOM     13  C   UNL     1      -3.507  -0.542  -1.413  0.00  0.00    -0.017 C 
ENDBRANCH   8  11
ENDBRANCH   2   8
BRANCH   2  14
ATOM     14  C   UNL     1       0.742  -0.511   1.242  0.00  0.00    +0.225 C 
BRANCH  14  15
ATOM     15  O   UNL     1       2.083  -0.016   1.231  0.00  0.00    -0.491 OA
BRANCH  15  16
ATOM     16  C   UNL     1       2.881  -0.376   2.271  0.00  0.00    +0.139 A 
ATOM     17  C   UNL     1       2.386  -1.194   3.276  0.00  0.00    +0.049 A 
ATOM     18  C   UNL     1       3.200  -1.559   4.332  0.00  0.00    +0.036 A 
ATOM     19  C   UNL     1       4.507  -1.111   4.386  0.00  0.00    +0.128 A 
ATOM     20  C   UNL     1       5.003  -0.296   3.386  0.00  0.00    +0.056 A 
ATOM     21  C   UNL     1       4.195   0.068   2.325  0.00  0.00    +0.085 A 
ATOM     22 CL   UNL     1       4.821   1.086   1.065  0.00  0.00    -0.080 Cl
BRANCH  19  23
ATOM     23  N   UNL     1       5.376  -1.503   5.518  0.00  0.00    +0.056 N 
ATOM     24  O   UNL     1       4.942  -2.215   6.394  0.00  0.00    -0.126 OA
ATOM     25  O   UNL     1       6.519  -1.112   5.567  0.00  0.00    -0.126 OA
ENDBRANCH  19  23
ENDBRANCH  15  16
ENDBRANCH  14  15
ENDBRANCH   2  14
TORSDOF 7
