REMARK  Name = ZINC65527250
REMARK  4 active torsions:
REMARK  status: ('A' for Active; 'I' for Inactive)
REMARK    1  A    between atoms: C_1  and  O_2
REMARK    2  A    between atoms: O_2  and  C_3
REMARK    3  A    between atoms: C_8  and  C_13
REMARK    4  A    between atoms: C_26  and  N_30
REMARK                            x       y       z     vdW  Elec       q    Type
REMARK                         _______ _______ _______ _____ _____    ______ ____
ROOT
ATOM      1  C   UNL     1      -4.365  -4.934   1.544  0.00  0.00    +0.059 C 
ATOM      2  C   UNL     1      -5.014  -6.085   1.546  0.00  0.00    +0.018 C 
ATOM      3  C   UNL     1      -5.455  -6.319   2.975  0.00  0.00    +0.117 C 
ATOM      4  C   UNL     1      -7.010  -6.411   3.022  0.00  0.00    +0.131 C 
ATOM      5  N   UNL     1      -7.346  -6.498   4.407  0.00  0.00    -0.313 N 
ATOM      6  C   UNL     1      -6.958  -5.518   5.412  0.00  0.00    +0.108 C 
ATOM      7  C   UNL     1      -5.582  -5.931   5.857  0.00  0.00    +0.036 C 
ATOM      8  C   UNL     1      -4.505  -5.178   5.021  0.00  0.00    +0.108 C 
ATOM      9  N   UNL     1      -5.091  -5.100   3.667  0.00  0.00    -0.221 NA
ATOM     10  N   UNL     1      -4.328  -4.368   2.809  0.00  0.00    -0.278 N 
ATOM     11  C   UNL     1      -8.094  -7.588   4.824  0.00  0.00    +0.126 A 
ATOM     12  C   UNL     1      -8.707  -8.421   3.892  0.00  0.00    +0.087 A 
ATOM     13  C   UNL     1      -9.445  -9.503   4.361  0.00  0.00    +0.121 A 
ATOM     14  N   UNL     1      -9.538  -9.701   5.675  0.00  0.00    -0.221 NA
ATOM     15  C   UNL     1      -8.943  -8.890   6.525  0.00  0.00    +0.225 A 
ATOM     16  N   UNL     1      -8.231  -7.858   6.120  0.00  0.00    -0.221 NA
ATOM     17  H   UNL     1      -3.834  -3.568   3.047  0.00  0.00    +0.166 HD
ENDROOT
BRANCH   1  23
ATOM     18  C   UNL     1      -0.868  -0.714   0.398  0.00  0.00    +0.122 A 
ATOM     19  C   UNL     1      -2.113  -0.012   0.117  0.00  0.00    +0.048 A 
ATOM     20  C   UNL     1      -3.285  -0.662  -0.004  0.00  0.00    +0.031 A 
ATOM     21  C   UNL     1      -3.328  -2.125   0.148  0.00  0.00    +0.061 A 
ATOM     22  N   UNL     1      -4.304  -2.983   0.082  0.00  0.00    -0.359 N 
ATOM     23  C   UNL     1      -3.738  -4.316   0.321  0.00  0.00    +0.221 C 
ATOM     24  N   UNL     1      -2.298  -4.122   0.535  0.00  0.00    -0.359 N 
ATOM     25  C   UNL     1      -2.057  -2.844   0.434  0.00  0.00    +0.064 A 
ATOM     26  C   UNL     1      -0.825  -2.061   0.546  0.00  0.00    +0.073 A 
ATOM     27  H   UNL     1      -5.236  -2.780  -0.092  0.00  0.00    +0.162 HD
ATOM     28  H   UNL     1      -1.646  -4.817   0.717  0.00  0.00    +0.162 HD
BRANCH  18  30
ATOM     29  C   UNL     1       0.184   1.415   0.344  0.00  0.00    +0.277 C 
ATOM     30  O   UNL     1       0.281  -0.002   0.508  0.00  0.00    -0.495 OA
ENDBRANCH  18  30
ENDBRANCH   1  23
BRANCH  13  31
ATOM     31  N   UNL     1     -10.075 -10.362   3.474  0.00  0.00    -0.343 N 
ATOM     32  H   UNL     1     -10.003 -10.211   2.518  0.00  0.00    +0.144 HD
ATOM     33  H   UNL     1     -10.588 -11.114   3.808  0.00  0.00    +0.144 HD
ENDBRANCH  13  31
TORSDOF 3
