REMARK  Name = ZINC51256200
REMARK  13 active torsions:
REMARK  status: ('A' for Active; 'I' for Inactive)
REMARK    1  A    between atoms: C_1  and  C_2
REMARK    2  A    between atoms: C_2  and  C_3
REMARK    3  A    between atoms: C_3  and  C_4
REMARK    4  A    between atoms: C_3  and  C_5
REMARK    5  A    between atoms: C_3  and  C_10
REMARK    6  A    between atoms: C_5  and  N_6
REMARK    7  A    between atoms: N_6  and  C_7
REMARK    8  A    between atoms: C_7  and  C_8
REMARK    9  A    between atoms: C_7  and  C_9
REMARK   10  A    between atoms: C_10  and  N_11
REMARK   11  A    between atoms: N_11  and  C_12
REMARK   12  A    between atoms: N_11  and  C_13
REMARK   13  A    between atoms: C_19  and  C_21
REMARK                            x       y       z     vdW  Elec       q    Type
REMARK                         _______ _______ _______ _____ _____    ______ ____
ROOT
ATOM      1  C   UNL     1      -1.916  -0.111   0.367  0.00  0.00    -0.062 C 
ATOM      2  C   UNL     1      -0.589   0.519   0.797  0.00  0.00    +0.007 C 
ENDROOT
BRANCH   1   4
ATOM      3  C   UNL     1      -4.222  -0.717   1.113  0.00  0.00    +0.004 C 
ATOM      4  C   UNL     1      -2.883  -0.122   1.553  0.00  0.00    -0.001 C 
ENDBRANCH   1   4
BRANCH   1   5
ATOM      5  C   UNL     1      -1.670  -1.546  -0.104  0.00  0.00    -0.077 C 
BRANCH   5   6
ATOM      6  N   UNL     1      -1.089  -2.329   0.995  0.00  0.00    +0.381 N 
ATOM      7  H   UNL     1      -0.215  -1.914   1.278  0.00  0.00    -0.086 HD
ATOM      8  H   UNL     1      -1.727  -2.336   1.776  0.00  0.00    -0.086 HD
BRANCH   6   9
ATOM      9  C   UNL     1      -0.854  -3.707   0.542  0.00  0.00    -0.078 C 
ATOM     10  C   UNL     1      -0.135  -4.489   1.643  0.00  0.00    -0.014 C 
ATOM     11  C   UNL     1      -2.193  -4.377   0.231  0.00  0.00    -0.014 C 
ENDBRANCH   6   9
ENDBRANCH   5   6
ENDBRANCH   1   5
BRANCH   1  12
ATOM     12  C   UNL     1      -2.521   0.705  -0.777  0.00  0.00    -0.074 C 
BRANCH  12  13
ATOM     13  N   UNL     1      -1.674   0.578  -1.971  0.00  0.00    +0.380 N 
ATOM     14  C   UNL     1      -0.481   1.420  -1.817  0.00  0.00    -0.096 C 
ATOM     15  H   UNL     1      -1.394  -0.385  -2.083  0.00  0.00    -0.082 HD
BRANCH  13  16
ATOM     16  C   UNL     1      -2.429   1.009  -3.155  0.00  0.00    -0.066 C 
ATOM     17  C   UNL     1      -3.672   0.132  -3.315  0.00  0.00    -0.015 C 
ATOM     18  C   UNL     1      -4.458   0.582  -4.548  0.00  0.00    -0.002 C 
ATOM     19  C   UNL     1      -3.576   0.449  -5.792  0.00  0.00    +0.000 C 
ATOM     20  C   UNL     1      -2.333   1.326  -5.631  0.00  0.00    +0.002 C 
ATOM     21  C   UNL     1      -1.547   0.876  -4.398  0.00  0.00    -0.028 C 
ATOM     22  C   UNL     1      -1.123  -0.584  -4.568  0.00  0.00    +0.006 C 
ENDBRANCH  13  16
ENDBRANCH  12  13
ENDBRANCH   1  12
TORSDOF 7
