REMARK  Name = ZINC45069301
REMARK  8 active torsions:
REMARK  status: ('A' for Active; 'I' for Inactive)
REMARK    1  A    between atoms: C_1  and  C_2
REMARK    2  A    between atoms: C_2  and  C_4
REMARK    3  A    between atoms: C_2  and  N_12
REMARK    4  A    between atoms: N_12  and  C_13
REMARK    5  A    between atoms: C_13  and  C_14
REMARK    6  A    between atoms: C_14  and  C_15
REMARK    7  A    between atoms: C_15  and  S_16
REMARK    8  A    between atoms: S_16  and  N_19
REMARK                            x       y       z     vdW  Elec       q    Type
REMARK                         _______ _______ _______ _____ _____    ______ ____
ROOT
ATOM      1  N   UNL     1      -1.376  -0.512   0.012  0.00  0.00    +0.383 N 
ATOM      2  H   UNL     1      -1.888  -0.113  -0.760  0.00  0.00    -0.085 HD
ATOM      3  H   UNL     1      -1.364  -1.518  -0.076  0.00  0.00    -0.085 HD
ENDROOT
BRANCH   1   5
ATOM      4  C   UNL     1      -0.019   1.526   0.010  0.00  0.00    -0.009 C 
ATOM      5  C   UNL     1       0.002  -0.004   0.002  0.00  0.00    -0.043 C 
BRANCH   5   6
ATOM      6  C   UNL     1       0.707  -0.490  -1.238  0.00  0.00    -0.048 A 
ATOM      7  C   UNL     1      -0.023  -0.817  -2.365  0.00  0.00    +0.004 A 
ATOM      8  C   UNL     1       0.624  -1.262  -3.503  0.00  0.00    +0.015 A 
ATOM      9  C   UNL     1       2.002  -1.381  -3.514  0.00  0.00    +0.019 A 
ATOM     10  C   UNL     1       2.733  -1.054  -2.386  0.00  0.00    +0.030 A 
ATOM     11  C   UNL     1       2.086  -0.603  -1.250  0.00  0.00    +0.021 A 
ATOM     12 BR   UNL     1       3.085  -0.149   0.290  0.00  0.00    -0.050 Br
ATOM     13 BR   UNL     1       2.886  -1.991  -5.070  0.00  0.00    -0.050 Br
ENDBRANCH   5   6
ENDBRANCH   1   5
BRANCH   1  14
ATOM     14  C   UNL     1      -2.026  -0.140   1.276  0.00  0.00    -0.080 C 
BRANCH  14  15
ATOM     15  C   UNL     1      -3.461  -0.669   1.287  0.00  0.00    +0.005 C 
BRANCH  15  16
ATOM     16  C   UNL     1      -4.138  -0.281   2.603  0.00  0.00    +0.183 C 
BRANCH  16  17
ATOM     17  S   UNL     1      -5.840  -0.909   2.616  0.00  0.00    +0.027 S 
ATOM     18  O   UNL     1      -6.622  -0.224   1.647  0.00  0.00    -0.158 OA
ATOM     19  O   UNL     1      -5.838  -2.329   2.672  0.00  0.00    -0.158 OA
BRANCH  17  20
ATOM     20  N   UNL     1      -6.460  -0.429   4.075  0.00  0.00    -0.208 NA
ATOM     21  H   UNL     1      -7.408  -0.247   4.163  0.00  0.00    +0.144 HD
ATOM     22  H   UNL     1      -5.874  -0.330   4.841  0.00  0.00    +0.144 HD
ENDBRANCH  17  20
ENDBRANCH  16  17
ENDBRANCH  15  16
ENDBRANCH  14  15
ENDBRANCH   1  14
TORSDOF 7
