REMARK  Name = ZINC40515127
REMARK  5 active torsions:
REMARK  status: ('A' for Active; 'I' for Inactive)
REMARK    1  A    between atoms: C_1  and  C_2
REMARK    2  A    between atoms: C_2  and  C_3
REMARK    3  A    between atoms: C_11  and  C_18
REMARK    4  A    between atoms: C_12  and  C_17
REMARK    5  A    between atoms: C_14  and  C_16
REMARK                            x       y       z     vdW  Elec       q    Type
REMARK                         _______ _______ _______ _____ _____    ______ ____
ROOT
ATOM      1  C   UNL     1       2.011   0.696   2.705  0.00  0.00    +0.100 C 
ATOM      2  C   UNL     1       0.621   0.187   3.104  0.00  0.00    +0.182 C 
ATOM      3  O   UNL     1       0.592  -1.238   2.996  0.00  0.00    -0.376 OA
ATOM      4  C   UNL     1       0.804  -1.729   1.670  0.00  0.00    +0.179 C 
ATOM      5  C   UNL     1       2.204  -1.319   1.198  0.00  0.00    +0.135 C 
ATOM      6  N   UNL     1       2.352   0.133   1.389  0.00  0.00    -0.307 N 
ATOM      7  C   UNL     1       2.798   0.945   0.362  0.00  0.00    +0.133 A 
ATOM      8  C   UNL     1       4.168   1.230   0.241  0.00  0.00    +0.055 A 
ATOM      9  C   UNL     1       4.595   2.053  -0.806  0.00  0.00    -0.035 A 
ATOM     10  C   UNL     1       3.645   2.552  -1.680  0.00  0.00    +0.027 A 
ATOM     11  C   UNL     1       2.313   2.226  -1.497  0.00  0.00    +0.041 A 
ATOM     12  N   UNL     1       1.931   1.444  -0.506  0.00  0.00    -0.236 NA
ATOM     13  C   UNL     1       1.280   2.771  -2.450  0.00  0.00    +0.065 C 
ATOM     14  C   UNL     1       6.054   2.389  -0.978  0.00  0.00    +0.044 C 
ENDROOT
BRANCH   8  15
ATOM     15  C   UNL     1       5.139   0.672   1.202  0.00  0.00    +0.098 C 
ATOM     16  N   UNL     1       5.806   1.483   2.023  0.00  0.00    -0.387 N 
ATOM     17  N   UNL     1       5.350  -0.643   1.249  0.00  0.00    -0.344 N 
ATOM     18  H   UNL     1       5.652   2.441   1.989  0.00  0.00    +0.157 HD
ATOM     19  H   UNL     1       4.865  -1.234   0.651  0.00  0.00    +0.144 HD
ATOM     20  H   UNL     1       5.988  -1.010   1.881  0.00  0.00    +0.144 HD
ATOM     21  H   UNL     1       6.444   1.117   2.655  0.00  0.00    +0.157 HD
ENDBRANCH   8  15
BRANCH   1  23
ATOM     22  C   UNL     1       1.774   2.806   4.022  0.00  0.00    +0.006 C 
ATOM     23  C   UNL     1       1.997   2.223   2.625  0.00  0.00    +0.021 C 
ENDBRANCH   1  23
TORSDOF 2
