REMARK  Name = ZINC36738949
REMARK  6 active torsions:
REMARK  status: ('A' for Active; 'I' for Inactive)
REMARK    1  A    between atoms: C_1  and  C_2
REMARK    2  A    between atoms: C_5  and  C_9
REMARK    3  A    between atoms: C_6  and  O_8
REMARK    4  A    between atoms: N_11  and  C_12
REMARK    5  A    between atoms: C_13  and  C_20
REMARK    6  A    between atoms: C_17  and  N_18
REMARK                            x       y       z     vdW  Elec       q    Type
REMARK                         _______ _______ _______ _____ _____    ______ ____
ROOT
ATOM      1  C   UNL     1      -0.474  -4.233  -0.365  0.00  0.00    +0.252 C 
ATOM      2  O   UNL     1      -1.208  -4.841   0.389  0.00  0.00    -0.270 OA
ATOM      3  N   UNL     1       0.284  -4.904  -1.255  0.00  0.00    -0.280 N 
ATOM      4  H   UNL     1       0.820  -4.418  -1.901  0.00  0.00    +0.155 HD
ENDROOT
BRANCH   3   5
ATOM      5  C   UNL     1       0.297  -6.306  -1.248  0.00  0.00    +0.058 A 
ATOM      6  C   UNL     1       0.558  -6.992  -0.072  0.00  0.00    -0.026 A 
ATOM      7  C   UNL     1       0.571  -8.374  -0.066  0.00  0.00    +0.020 A 
ATOM      8  C   UNL     1       0.323  -9.077  -1.232  0.00  0.00    +0.020 A 
ATOM      9  C   UNL     1       0.061  -8.400  -2.410  0.00  0.00    +0.040 A 
ATOM     10  C   UNL     1       0.041  -7.013  -2.422  0.00  0.00    +0.047 A 
ATOM     11 BR   UNL     1       0.343 -10.968  -1.216  0.00  0.00    -0.050 Br
ATOM     12  C   UNL     1       0.828  -6.231   1.201  0.00  0.00    +0.046 C 
BRANCH  10  13
ATOM     13  N   UNL     1      -0.229  -6.327  -3.611  0.00  0.00    -0.356 N 
ATOM     14  H   UNL     1      -0.347  -5.364  -3.598  0.00  0.00    +0.142 HD
ATOM     15  H   UNL     1      -0.299  -6.813  -4.447  0.00  0.00    +0.142 HD
ENDBRANCH  10  13
ENDBRANCH   3   5
BRANCH   1  20
ATOM     16  C   UNL     1      -0.227   1.513  -0.143  0.00  0.00    +0.044 C 
ATOM     17  C   UNL     1      -0.294   0.009  -0.198  0.00  0.00    -0.047 A 
ATOM     18  C   UNL     1       0.484  -0.682  -1.113  0.00  0.00    +0.004 A 
ATOM     19  C   UNL     1       0.431  -2.057  -1.172  0.00  0.00    +0.017 A 
ATOM     20  C   UNL     1      -0.411  -2.760  -0.307  0.00  0.00    +0.078 A 
ATOM     21  C   UNL     1      -1.198  -2.058   0.617  0.00  0.00    +0.129 A 
ATOM     22  C   UNL     1      -1.127  -0.673   0.666  0.00  0.00    +0.049 A 
BRANCH  21  23
ATOM     23  O   UNL     1      -2.020  -2.729   1.461  0.00  0.00    -0.506 OA
ATOM     24  H   UNL     1      -1.606  -2.974   2.300  0.00  0.00    +0.292 HD
ENDBRANCH  21  23
ENDBRANCH   1  20
TORSDOF 4
