REMARK  Name = ZINC54929328
REMARK  8 active torsions:
REMARK  status: ('A' for Active; 'I' for Inactive)
REMARK    1  A    between atoms: C_1  and  C_2
REMARK    2  A    between atoms: C_2  and  C_3
REMARK    3  A    between atoms: C_2  and  C_4
REMARK    4  A    between atoms: C_4  and  C_5
REMARK    5  A    between atoms: C_5  and  C_7
REMARK    6  A    between atoms: C_5  and  N_21
REMARK    7  A    between atoms: C_7  and  C_9
REMARK    8  A    between atoms: C_7  and  O_20
REMARK                            x       y       z     vdW  Elec       q    Type
REMARK                         _______ _______ _______ _____ _____    ______ ____
ROOT
ATOM      1  C   UNL     1       2.874  -0.457  -2.520  0.00  0.00    +0.130 C 
ENDROOT
BRANCH   1   2
ATOM      2  C   UNL     1       4.346  -0.151  -2.425  0.00  0.00    -0.016 A 
ATOM      3  C   UNL     1       4.833   1.053  -2.899  0.00  0.00    +0.055 A 
ATOM      4  C   UNL     1       6.187   1.338  -2.813  0.00  0.00    +0.164 A 
ATOM      5  C   UNL     1       7.054   0.411  -2.247  0.00  0.00    +0.176 A 
ATOM      6  C   UNL     1       6.560  -0.796  -1.774  0.00  0.00    +0.063 A 
ATOM      7  C   UNL     1       5.207  -1.072  -1.859  0.00  0.00    +0.025 A 
ATOM      8 BR   UNL     1       7.736  -2.063  -1.006  0.00  0.00    -0.046 Br
ATOM      9  O   UNL     1       8.386   0.673  -2.145  0.00  0.00    -0.484 OA
ATOM     10  C   UNL     1       8.897   1.730  -2.964  0.00  0.00    +0.270 C 
ATOM     11  C   UNL     1       7.951   2.932  -2.845  0.00  0.00    +0.270 C 
ATOM     12  O   UNL     1       6.652   2.526  -3.288  0.00  0.00    -0.485 OA
ENDBRANCH   1   2
BRANCH   1  13
ATOM     13  O   UNL     1       2.692  -1.853  -2.762  0.00  0.00    -0.389 OA
ATOM     14  H   UNL     1       3.058  -2.423  -2.071  0.00  0.00    +0.210 HD
ENDBRANCH   1  13
BRANCH   1  15
ATOM     15  C   UNL     1       2.187  -0.073  -1.207  0.00  0.00    -0.041 C 
BRANCH  15  16
ATOM     16  N   UNL     1       2.856  -0.751  -0.089  0.00  0.00    +0.382 N 
ATOM     17  H   UNL     1       2.798  -1.750  -0.219  0.00  0.00    -0.090 HD
ATOM     18  H   UNL     1       3.824  -0.472  -0.056  0.00  0.00    -0.090 HD
ATOM     19  H   UNL     1       2.403  -0.498   0.777  0.00  0.00    -0.090 HD
ENDBRANCH  15  16
BRANCH  15  20
ATOM     20  C   UNL     1       0.718  -0.497  -1.257  0.00  0.00    -0.011 C 
BRANCH  20  22
ATOM     21  C   UNL     1      -0.019   1.526   0.010  0.00  0.00    +0.007 C 
ATOM     22  C   UNL     1       0.002  -0.004   0.002  0.00  0.00    -0.019 C 
ATOM     23  C   UNL     1      -1.433  -0.534   0.013  0.00  0.00    +0.007 C 
ENDBRANCH  20  22
ENDBRANCH  15  20
ENDBRANCH   1  15
TORSDOF 6
