REMARK  Name = ZINC12224601
REMARK  4 active torsions:
REMARK  status: ('A' for Active; 'I' for Inactive)
REMARK    1  A    between atoms: C_1  and  C_2
REMARK    2  A    between atoms: C_2  and  C_7
REMARK    3  A    between atoms: N_9  and  C_10
REMARK    4  A    between atoms: C_10  and  C_11
REMARK                            x       y       z     vdW  Elec       q    Type
REMARK                         _______ _______ _______ _____ _____    ______ ____
ROOT
ATOM      1  C   UNL     1       1.179   1.773   0.000  0.00  0.00    -0.014 A 
ATOM      2  C   UNL     1       1.154   3.162   0.008  0.00  0.00    +0.010 A 
ATOM      3  C   UNL     1      -0.073   3.800   0.023  0.00  0.00    +0.042 A 
ATOM      4  C   UNL     1      -1.234   3.034   0.030  0.00  0.00    +0.099 A 
ATOM      5  C   UNL     1      -0.013   1.076   0.008  0.00  0.00    +0.089 A 
ATOM      6  N   UNL     1      -2.474   3.662   0.045  0.00  0.00    -0.312 N 
ATOM      7  C   UNL     1      -2.590   4.572   1.194  0.00  0.00    +0.134 C 
ATOM      8  C   UNL     1      -3.943   5.286   1.139  0.00  0.00    +0.178 C 
ATOM      9  O   UNL     1      -4.989   4.311   1.113  0.00  0.00    -0.377 OA
ATOM     10  C   UNL     1      -4.908   3.409   0.007  0.00  0.00    +0.178 C 
ATOM     11  C   UNL     1      -3.565   2.676   0.051  0.00  0.00    +0.134 C 
ATOM     12  N   UNL     1      -1.236   1.669   0.017  0.00  0.00    -0.349 N 
ATOM     13  H   UNL     1      -2.107   1.125   0.013  0.00  0.00    +0.167 HD
ENDROOT
BRANCH   1  14
ATOM     14  C   UNL     1       2.492   1.036  -0.016  0.00  0.00    +0.141 C 
BRANCH  14  17
ATOM     15  C   UNL     1       4.058   0.156  -1.662  0.00  0.00    +0.222 C 
ATOM     16  O   UNL     1       4.754  -0.235  -0.749  0.00  0.00    -0.275 OA
ATOM     17  N   UNL     1       2.905   0.803  -1.402  0.00  0.00    -0.311 N 
ATOM     18  H   UNL     1       2.349   1.116  -2.132  0.00  0.00    +0.149 HD
BRANCH  15  20
ATOM     19  C   UNL     1       4.109   1.019  -4.082  0.00  0.00    +0.024 C 
ATOM     20  C   UNL     1       4.483  -0.083  -3.088  0.00  0.00    +0.079 C 
ATOM     21  C   UNL     1       4.471  -1.526  -3.597  0.00  0.00    +0.058 C 
ATOM     22  C   UNL     1       5.802  -0.824  -3.318  0.00  0.00    +0.133 C 
ATOM     23 CL   UNL     1       6.797  -0.331  -4.739  0.00  0.00    -0.100 Cl
ATOM     24 CL   UNL     1       6.729  -1.343  -1.862  0.00  0.00    -0.100 Cl
ENDBRANCH  15  20
ENDBRANCH  14  17
ENDBRANCH   1  14
TORSDOF 3
