REMARK  Name = ZINC37822119
REMARK  7 active torsions:
REMARK  status: ('A' for Active; 'I' for Inactive)
REMARK    1  A    between atoms: C_1  and  S_2
REMARK    2  A    between atoms: S_2  and  N_5
REMARK    3  A    between atoms: N_5  and  C_6
REMARK    4  A    between atoms: C_6  and  C_7
REMARK    5  A    between atoms: C_7  and  C_8
REMARK    6  A    between atoms: C_15  and  C_17
REMARK    7  A    between atoms: C_20  and  O_24
REMARK                            x       y       z     vdW  Elec       q    Type
REMARK                         _______ _______ _______ _____ _____    ______ ____
ROOT
ATOM      1  C   UNL     1       4.265  -0.445  -2.799  0.00  0.00    +0.077 C 
ATOM      2  C   UNL     1       4.973  -1.214  -3.919  0.00  0.00    +0.022 C 
ATOM      3  C   UNL     1       6.407  -0.700  -4.058  0.00  0.00    +0.003 C 
ATOM      4  C   UNL     1       6.385   0.784  -4.431  0.00  0.00    +0.019 C 
ATOM      5  C   UNL     1       5.693   1.576  -3.317  0.00  0.00    +0.108 C 
ATOM      6  N   UNL     1       4.365   0.995  -3.074  0.00  0.00    -0.300 N 
ATOM      7  C   UNL     1       3.261   1.767  -3.106  0.00  0.00    +0.202 C 
ATOM      8  O   UNL     1       2.183   1.295  -2.813  0.00  0.00    -0.277 OA
ENDROOT
BRANCH   7   9
ATOM      9  C   UNL     1       3.366   3.216  -3.506  0.00  0.00    +0.019 C 
ATOM     10  C   UNL     1       3.397   3.349  -5.044  0.00  0.00    +0.023 C 
ATOM     11  C   UNL     1       2.583   4.622  -5.353  0.00  0.00    +0.097 C 
ATOM     12  C   UNL     1       2.128   5.151  -3.976  0.00  0.00    -0.050 C 
ATOM     13  N   UNL     1       2.149   3.958  -3.088  0.00  0.00    +0.388 N 
ATOM     14  H   UNL     1       1.325   3.395  -3.235  0.00  0.00    -0.085 HD
ATOM     15  H   UNL     1       2.220   4.237  -2.121  0.00  0.00    -0.085 HD
BRANCH  11  16
ATOM     16  O   UNL     1       3.403   5.588  -6.012  0.00  0.00    -0.394 OA
ATOM     17  H   UNL     1       2.944   6.410  -6.231  0.00  0.00    +0.210 HD
ENDBRANCH  11  16
ENDBRANCH   7   9
BRANCH   1  18
ATOM     18  C   UNL     1       2.792  -0.855  -2.747  0.00  0.00    +0.039 C 
BRANCH  18  19
ATOM     19  C   UNL     1       2.690  -2.362  -2.502  0.00  0.00    +0.107 C 
BRANCH  19  20
ATOM     20  N   UNL     1       1.284  -2.736  -2.331  0.00  0.00    -0.195 NA
ATOM     21  H   UNL     1       0.617  -2.051  -2.164  0.00  0.00    +0.148 HD
BRANCH  20  23
ATOM     22  C   UNL     1       1.642  -5.123  -1.008  0.00  0.00    +0.214 C 
ATOM     23  S   UNL     1       0.833  -4.327  -2.423  0.00  0.00    +0.027 S 
ATOM     24  O   UNL     1       1.401  -4.795  -3.639  0.00  0.00    -0.158 OA
ATOM     25  O   UNL     1      -0.576  -4.315  -2.238  0.00  0.00    -0.158 OA
ENDBRANCH  20  23
ENDBRANCH  19  20
ENDBRANCH  18  19
ENDBRANCH   1  18
TORSDOF 6
