REMARK  Name = ZINC47027862
REMARK  6 active torsions:
REMARK  status: ('A' for Active; 'I' for Inactive)
REMARK    1  A    between atoms: C_1  and  C_2
REMARK    2  A    between atoms: C_2  and  C_4
REMARK    3  A    between atoms: C_2  and  N_10
REMARK    4  A    between atoms: C_4  and  N_5
REMARK    5  A    between atoms: C_16  and  C_19
REMARK    6  A    between atoms: C_22  and  O_25
REMARK                            x       y       z     vdW  Elec       q    Type
REMARK                         _______ _______ _______ _____ _____    ______ ____
ROOT
ATOM      1  N   UNL     1       0.711  -0.491   1.188  0.00  0.00    -0.295 N 
ATOM      2  C   UNL     1       2.054  -0.600   1.174  0.00  0.00    +0.303 C 
ATOM      3  O   UNL     1       2.670  -0.383   0.148  0.00  0.00    -0.253 OA
ATOM      4  N   UNL     1       2.714  -0.949   2.296  0.00  0.00    -0.282 N 
ATOM      5  C   UNL     1       4.186  -0.967   2.344  0.00  0.00    +0.114 C 
ATOM      6  C   UNL     1       4.636   0.058   3.388  0.00  0.00    +0.054 C 
ATOM      7  C   UNL     1       3.820  -0.076   4.639  0.00  0.00    -0.041 C 
ATOM      8  C   UNL     1       2.656  -0.676   4.702  0.00  0.00    -0.004 C 
ATOM      9  C   UNL     1       1.994  -1.322   3.522  0.00  0.00    +0.137 C 
ATOM     10  H   UNL     1       0.213  -0.735   1.984  0.00  0.00    +0.151 HD
ENDROOT
BRANCH   7  11
ATOM     11  C   UNL     1       4.364   0.506   5.883  0.00  0.00    -0.022 A 
ATOM     12  C   UNL     1       4.530   1.887   5.995  0.00  0.00    +0.012 A 
ATOM     13  C   UNL     1       5.038   2.426   7.158  0.00  0.00    +0.046 A 
ATOM     14  C   UNL     1       5.385   1.597   8.216  0.00  0.00    +0.117 A 
ATOM     15  C   UNL     1       5.222   0.223   8.108  0.00  0.00    +0.046 A 
ATOM     16  C   UNL     1       4.709  -0.324   6.952  0.00  0.00    +0.012 A 
BRANCH  14  17
ATOM     17  O   UNL     1       5.886   2.133   9.360  0.00  0.00    -0.507 OA
ATOM     18  H   UNL     1       5.212   2.359  10.016  0.00  0.00    +0.292 HD
ENDBRANCH  14  17
ENDBRANCH   7  11
BRANCH   1  20
ATOM     19  C   UNL     1      -0.020   1.526   0.015  0.00  0.00    +0.029 C 
ATOM     20  C   UNL     1       0.002  -0.004   0.002  0.00  0.00    +0.091 C 
BRANCH  20  21
ATOM     21  C   UNL     1      -1.433  -0.535   0.011  0.00  0.00    +0.144 C 
BRANCH  21  22
ATOM     22  N   UNL     1      -1.414  -1.994  -0.120  0.00  0.00    -0.337 N 
ATOM     23  C   UNL     1      -1.441  -2.704  -1.290  0.00  0.00    +0.104 A 
ATOM     24  C   UNL     1      -1.409  -4.008  -0.955  0.00  0.00    +0.101 A 
ATOM     25  N   UNL     1      -1.364  -4.091   0.383  0.00  0.00    -0.352 N 
ATOM     26  C   UNL     1      -1.361  -2.889   0.889  0.00  0.00    +0.173 A 
ATOM     27  H   UNL     1      -1.333  -4.916   0.893  0.00  0.00    +0.166 HD
ENDBRANCH  21  22
ENDBRANCH  20  21
ENDBRANCH   1  20
TORSDOF 5
