REMARK  Name = ZINC44059878
REMARK  7 active torsions:
REMARK  status: ('A' for Active; 'I' for Inactive)
REMARK    1  A    between atoms: C_1  and  N_2
REMARK    2  A    between atoms: N_2  and  C_3
REMARK    3  A    between atoms: C_15  and  O_17
REMARK    4  A    between atoms: O_17  and  C_18
REMARK    5  A    between atoms: C_18  and  C_19
REMARK    6  A    between atoms: C_19  and  O_20
REMARK    7  A    between atoms: O_20  and  C_21
REMARK                            x       y       z     vdW  Elec       q    Type
REMARK                         _______ _______ _______ _____ _____    ______ ____
ROOT
ATOM      1  C   UNL     1      -1.370  -0.513   0.133  0.00  0.00    -0.043 C 
ATOM      2  C   UNL     1      -2.147  -0.221  -1.152  0.00  0.00    -0.013 C 
ATOM      3  C   UNL     1      -1.294   0.648  -2.078  0.00  0.00    -0.001 C 
ATOM      4  C   UNL     1      -1.200  -0.013  -3.455  0.00  0.00    -0.000 C 
ATOM      5  C   UNL     1       0.270  -0.152  -3.856  0.00  0.00    -0.000 C 
ATOM      6  C   UNL     1       0.561  -1.606  -4.231  0.00  0.00    -0.000 C 
ATOM      7  C   UNL     1       1.757  -2.112  -3.422  0.00  0.00    +0.000 C 
ATOM      8  C   UNL     1       1.375  -3.408  -2.704  0.00  0.00    +0.000 C 
ATOM      9  C   UNL     1       1.681  -3.273  -1.211  0.00  0.00    +0.000 C 
ATOM     10  C   UNL     1       0.429  -3.617  -0.401  0.00  0.00    +0.002 C 
ATOM     11  C   UNL     1       0.117  -2.474   0.567  0.00  0.00    +0.030 C 
ATOM     12  C   UNL     1      -1.332  -2.023   0.375  0.00  0.00    +0.104 C 
ENDROOT
BRANCH   1  14
ATOM     13  C   UNL     1      -0.017   1.465   0.023  0.00  0.00    -0.100 C 
ATOM     14  N   UNL     1       0.002  -0.004   0.002  0.00  0.00    +0.381 N 
ATOM     15  H   UNL     1       0.397  -0.323  -0.870  0.00  0.00    -0.086 HD
ATOM     16  H   UNL     1       0.562  -0.344   0.769  0.00  0.00    -0.086 HD
ENDBRANCH   1  14
BRANCH  12  17
ATOM     17  O   UNL     1      -2.087  -2.337   1.547  0.00  0.00    -0.376 OA
BRANCH  17  18
ATOM     18  C   UNL     1      -2.691  -3.632   1.520  0.00  0.00    +0.188 C 
BRANCH  18  19
ATOM     19  C   UNL     1      -3.469  -3.859   2.817  0.00  0.00    +0.187 C 
BRANCH  19  20
ATOM     20  O   UNL     1      -4.558  -2.937   2.887  0.00  0.00    -0.381 OA
ATOM     21  C   UNL     1      -5.354  -3.064   4.067  0.00  0.00    +0.194 C 
ENDBRANCH  19  20
ENDBRANCH  18  19
ENDBRANCH  17  18
ENDBRANCH  12  17
TORSDOF 5
