REMARK  Name = ZINC57660272
REMARK  12 active torsions:
REMARK  status: ('A' for Active; 'I' for Inactive)
REMARK    1  A    between atoms: C_1  and  C_2
REMARK    2  A    between atoms: C_2  and  C_3
REMARK    3  A    between atoms: C_2  and  C_4
REMARK    4  A    between atoms: C_7  and  C_10
REMARK    5  A    between atoms: C_10  and  C_12
REMARK    6  A    between atoms: C_10  and  N_14
REMARK    7  A    between atoms: C_12  and  N_13
REMARK    8  A    between atoms: N_14  and  C_15
REMARK    9  A    between atoms: C_18  and  O_23
REMARK   10  A    between atoms: C_19  and  O_21
REMARK   11  A    between atoms: O_21  and  C_22
REMARK   12  A    between atoms: O_23  and  C_24
REMARK                            x       y       z     vdW  Elec       q    Type
REMARK                         _______ _______ _______ _____ _____    ______ ____
ROOT
ATOM      1  C   UNL     1      -5.409  -1.983   0.045  0.00  0.00    +0.083 C 
ENDROOT
BRANCH   1   5
ATOM      2  C   UNL     1      -1.325  -0.758  -0.207  0.00  0.00    -0.045 A 
ATOM      3  C   UNL     1      -2.101  -0.360   0.865  0.00  0.00    +0.004 A 
ATOM      4  C   UNL     1      -3.423  -0.756   0.947  0.00  0.00    +0.005 A 
ATOM      5  C   UNL     1      -3.969  -1.550  -0.045  0.00  0.00    -0.029 A 
ATOM      6  C   UNL     1      -3.193  -1.947  -1.118  0.00  0.00    +0.005 A 
ATOM      7  C   UNL     1      -1.872  -1.547  -1.201  0.00  0.00    +0.004 A 
BRANCH   2   9
ATOM      8  C   UNL     1       0.189   1.202  -0.327  0.00  0.00    +0.012 C 
ATOM      9  C   UNL     1       0.116  -0.326  -0.296  0.00  0.00    +0.013 C 
ATOM     10  C   UNL     1       0.881  -0.849   0.921  0.00  0.00    +0.012 C 
ENDBRANCH   2   9
ENDBRANCH   1   5
BRANCH   1  11
ATOM     11  N   UNL     1      -6.021  -1.923  -1.285  0.00  0.00    -0.339 N 
ATOM     12  H   UNL     1      -6.089  -2.726  -1.825  0.00  0.00    +0.147 HD
BRANCH  11  13
ATOM     13  C   UNL     1      -6.506  -0.706  -1.777  0.00  0.00    +0.031 A 
ATOM     14  C   UNL     1      -6.498   0.422  -0.969  0.00  0.00    +0.027 A 
ATOM     15  C   UNL     1      -6.978   1.625  -1.453  0.00  0.00    +0.051 A 
ATOM     16  C   UNL     1      -7.467   1.706  -2.747  0.00  0.00    +0.162 A 
ATOM     17  C   UNL     1      -7.477   0.577  -3.559  0.00  0.00    +0.163 A 
ATOM     18  C   UNL     1      -6.991  -0.626  -3.076  0.00  0.00    +0.072 A 
BRANCH  17  19
ATOM     19  O   UNL     1      -7.958   0.656  -4.829  0.00  0.00    -0.491 OA
ATOM     20  C   UNL     1      -7.937  -0.543  -5.606  0.00  0.00    +0.277 C 
ENDBRANCH  17  19
BRANCH  16  21
ATOM     21  O   UNL     1      -7.939   2.891  -3.222  0.00  0.00    -0.491 OA
ATOM     22  C   UNL     1      -7.899   4.009  -2.333  0.00  0.00    +0.277 C 
ENDBRANCH  16  21
ENDBRANCH  11  13
ENDBRANCH   1  11
BRANCH   1  23
ATOM     23  C   UNL     1      -5.479  -3.417   0.573  0.00  0.00    -0.059 C 
BRANCH  23  24
ATOM     24  N   UNL     1      -6.876  -3.871   0.577  0.00  0.00    +0.380 N 
ATOM     25  H   UNL     1      -7.441  -3.217   1.099  0.00  0.00    -0.090 HD
ATOM     26  H   UNL     1      -7.215  -3.924  -0.373  0.00  0.00    -0.090 HD
ATOM     27  H   UNL     1      -6.933  -4.782   1.006  0.00  0.00    -0.090 HD
ENDBRANCH  23  24
ENDBRANCH   1  23
TORSDOF 8
