REMARK  Name = ZINC62811206
REMARK  4 active torsions:
REMARK  status: ('A' for Active; 'I' for Inactive)
REMARK    1  A    between atoms: C_2  and  N_20
REMARK    2  A    between atoms: C_3  and  C_7
REMARK    3  A    between atoms: N_9  and  C_10
REMARK    4  A    between atoms: C_11  and  C_18
REMARK                            x       y       z     vdW  Elec       q    Type
REMARK                         _______ _______ _______ _____ _____    ______ ____
ROOT
ATOM      1  C   UNL     1       3.528   0.502  -0.029  0.00  0.00    +0.271 C 
ATOM      2  O   UNL     1       4.194   1.520  -0.030  0.00  0.00    -0.268 OA
ATOM      3  N   UNL     1       4.135  -0.701  -0.041  0.00  0.00    -0.274 N 
ATOM      4  H   UNL     1       3.604  -1.512  -0.041  0.00  0.00    +0.156 HD
ENDROOT
BRANCH   3   5
ATOM      5  C   UNL     1       5.520  -0.778  -0.055  0.00  0.00    +0.090 A 
ATOM      6  C   UNL     1       6.307  -1.913  -0.074  0.00  0.00    +0.084 A 
ATOM      7  C   UNL     1       7.757  -1.724  -0.085  0.00  0.00    -0.018 A 
ATOM      8  C   UNL     1       8.141  -0.435  -0.074  0.00  0.00    -0.004 A 
ATOM      9  S   UNL     1       6.623   0.485  -0.059  0.00  0.00    -0.077 S 
ATOM     10  C   UNL     1       9.640  -0.297  -0.082  0.00  0.00    +0.043 C 
ATOM     11  C   UNL     1      10.162  -1.690   0.333  0.00  0.00    +0.010 C 
ATOM     12  C   UNL     1       9.003  -2.606  -0.110  0.00  0.00    +0.037 C 
BRANCH   6  13
ATOM     13  C   UNL     1       5.727  -3.223  -0.082  0.00  0.00    +0.102 C 
ATOM     14  N   UNL     1       5.266  -4.261  -0.088  0.00  0.00    -0.191 NA
ENDBRANCH   6  13
ENDBRANCH   3   5
BRANCH   1  17
ATOM     15  C   UNL     1      -0.016   1.355   0.009  0.00  0.00    +0.128 A 
ATOM     16  C   UNL     1       1.278   1.771  -0.001  0.00  0.00    +0.075 A 
ATOM     17  C   UNL     1       2.056   0.585  -0.014  0.00  0.00    +0.168 A 
ATOM     18  N   UNL     1       1.213  -0.431  -0.012  0.00  0.00    -0.167 NA
ATOM     19  N   UNL     1       0.002  -0.004   0.002  0.00  0.00    -0.282 N 
ATOM     20  H   UNL     1      -0.786  -0.570   0.006  0.00  0.00    +0.188 HD
BRANCH  16  21
ATOM     21  N   UNL     1       1.745   3.094   0.002  0.00  0.00    -0.355 N 
ATOM     22  H   UNL     1       1.114   3.831   0.012  0.00  0.00    +0.142 HD
ATOM     23  H   UNL     1       2.698   3.271  -0.007  0.00  0.00    +0.142 HD
ENDBRANCH  16  21
ENDBRANCH   1  17
TORSDOF 4
