REMARK  Name = ZINC05398687
REMARK  9 active torsions:
REMARK  status: ('A' for Active; 'I' for Inactive)
REMARK    1  A    between atoms: C_1  and  C_2
REMARK    2  A    between atoms: C_2  and  C_3
REMARK    3  A    between atoms: C_2  and  N_4
REMARK    4  A    between atoms: C_11  and  C_13
REMARK    5  A    between atoms: N_15  and  C_16
REMARK    6  A    between atoms: C_16  and  C_18
REMARK    7  A    between atoms: C_16  and  C_19
REMARK    8  A    between atoms: C_19  and  O_21
REMARK    9  A    between atoms: O_21  and  C_22
REMARK                            x       y       z     vdW  Elec       q    Type
REMARK                         _______ _______ _______ _____ _____    ______ ____
ROOT
ATOM      1  N   UNL     1       4.351   4.034  -0.593  0.00  0.00    -0.297 N 
ATOM      2  C   UNL     1       3.324   3.185  -0.390  0.00  0.00    +0.303 C 
ATOM      3  O   UNL     1       2.180   3.592  -0.441  0.00  0.00    -0.253 OA
ATOM      4  N   UNL     1       3.566   1.885  -0.130  0.00  0.00    -0.278 N 
ATOM      5  C   UNL     1       4.940   1.396   0.066  0.00  0.00    +0.091 C 
ATOM      6  C   UNL     1       4.995   0.595   1.371  0.00  0.00    -0.063 C 
ATOM      7  C   UNL     1       2.616   0.136   1.281  0.00  0.00    -0.050 C 
ATOM      8  C   UNL     1       2.463   0.918  -0.028  0.00  0.00    +0.146 C 
ATOM      9  H   UNL     1       5.260   3.697  -0.627  0.00  0.00    +0.150 HD
ATOM     10  N   UNL     1       3.965  -0.461   1.345  0.00  0.00    +0.382 N 
ATOM     11  H   UNL     1       4.042  -1.030   2.196  0.00  0.00    -0.086 HD
ATOM     12  H   UNL     1       4.110  -1.056   0.521  0.00  0.00    -0.086 HD
ENDROOT
BRANCH   8  13
ATOM     13  C   UNL     1       1.146   1.649  -0.029  0.00  0.00    +0.232 C 
ATOM     14  O   UNL     1       0.970   2.582   0.725  0.00  0.00    -0.274 OA
ATOM     15  N   UNL     1       0.164   1.268  -0.870  0.00  0.00    -0.301 N 
ATOM     16  H   UNL     1       0.305   0.521  -1.473  0.00  0.00    +0.150 HD
BRANCH  15  17
ATOM     17  C   UNL     1      -1.115   1.983  -0.876  0.00  0.00    +0.179 C 
ATOM     18  C   UNL     1      -2.027   1.406   0.209  0.00  0.00    +0.040 C 
BRANCH  17  19
ATOM     19  C   UNL     1      -1.772   1.825  -2.222  0.00  0.00    +0.327 C 
ATOM     20  O   UNL     1      -1.229   1.180  -3.088  0.00  0.00    -0.249 OA
BRANCH  19  21
ATOM     21  O   UNL     1      -2.962   2.399  -2.460  0.00  0.00    -0.467 OA
ATOM     22  C   UNL     1      -3.536   2.205  -3.779  0.00  0.00    +0.280 C 
ENDBRANCH  19  21
ENDBRANCH  17  19
ENDBRANCH  15  17
ENDBRANCH   8  13
BRANCH   1  24
ATOM     23  C   UNL     1       4.005   6.135   0.610  0.00  0.00    +0.027 C 
ATOM     24  C   UNL     1       4.094   5.467  -0.763  0.00  0.00    +0.068 C 
ATOM     25  C   UNL     1       5.235   6.098  -1.564  0.00  0.00    +0.027 C 
ENDBRANCH   1  24
TORSDOF 5
