REMARK  Name = ZINC13442806
REMARK  8 active torsions:
REMARK  status: ('A' for Active; 'I' for Inactive)
REMARK    1  A    between atoms: C_1  and  C_2
REMARK    2  A    between atoms: C_2  and  C_4
REMARK    3  A    between atoms: C_2  and  O_22
REMARK    4  A    between atoms: C_8  and  N_9
REMARK    5  A    between atoms: C_10  and  C_12
REMARK    6  A    between atoms: C_12  and  C_13
REMARK    7  A    between atoms: C_12  and  C_14
REMARK    8  A    between atoms: C_19  and  C_21
REMARK                            x       y       z     vdW  Elec       q    Type
REMARK                         _______ _______ _______ _____ _____    ______ ____
ROOT
ATOM      1  C   UNL     1       0.056  -1.976   1.725  0.00  0.00    +0.013 A 
ATOM      2  C   UNL     1       1.418  -2.103   1.443  0.00  0.00    -0.027 A 
ATOM      3  C   UNL     1       2.224  -2.438   2.485  0.00  0.00    +0.012 A 
ATOM      4  S   UNL     1       1.113  -2.587   3.858  0.00  0.00    -0.076 S 
ATOM      5  C   UNL     1      -0.396  -2.183   2.990  0.00  0.00    +0.078 A 
ATOM      6  C   UNL     1       3.707  -2.629   2.459  0.00  0.00    +0.150 C 
ATOM      7  N   UNL     1       4.122  -2.615   1.041  0.00  0.00    -0.297 N 
ATOM      8  C   UNL     1       3.498  -1.613   0.164  0.00  0.00    +0.113 C 
ATOM      9  C   UNL     1       1.999  -1.890   0.048  0.00  0.00    +0.055 C 
ATOM     10  C   UNL     1       5.036  -3.486   0.570  0.00  0.00    +0.213 C 
ATOM     11  O   UNL     1       5.285  -3.522  -0.616  0.00  0.00    -0.276 OA
ATOM     12  C   UNL     1       5.748  -4.417   1.518  0.00  0.00    +0.109 C 
ENDROOT
BRANCH   5  13
ATOM     13  N   UNL     1      -1.701  -2.102   3.483  0.00  0.00    -0.279 N 
ATOM     14  C   UNL     1      -1.967  -2.478   4.750  0.00  0.00    +0.220 C 
ATOM     15  O   UNL     1      -1.074  -2.886   5.462  0.00  0.00    -0.275 OA
ATOM     16  H   UNL     1      -2.415  -1.776   2.914  0.00  0.00    +0.155 HD
BRANCH  14  17
ATOM     17  C   UNL     1      -3.375  -2.391   5.282  0.00  0.00    +0.069 C 
ATOM     18  C   UNL     1      -4.295  -3.271   4.434  0.00  0.00    +0.017 C 
ATOM     19  C   UNL     1      -3.402  -2.873   6.733  0.00  0.00    +0.017 C 
ENDBRANCH  14  17
ENDBRANCH   5  13
BRANCH   1  21
ATOM     20  C   UNL     1      -1.355  -0.150   0.816  0.00  0.00    +0.043 C 
ATOM     21  C   UNL     1      -0.910  -1.602   0.630  0.00  0.00    +0.144 C 
BRANCH  21  22
ATOM     22  O   UNL     1      -2.050  -2.461   0.688  0.00  0.00    -0.387 OA
ATOM     23  H   UNL     1      -2.632  -2.292   1.442  0.00  0.00    +0.210 HD
ENDBRANCH  21  22
ENDBRANCH   1  21
TORSDOF 4
