REMARK  Name = ZINC09462032
REMARK  6 active torsions:
REMARK  status: ('A' for Active; 'I' for Inactive)
REMARK    1  A    between atoms: C_1  and  C_2
REMARK    2  A    between atoms: N_8  and  C_9
REMARK    3  A    between atoms: C_9  and  C_10
REMARK    4  A    between atoms: C_19  and  C_27
REMARK    5  A    between atoms: C_21  and  C_25
REMARK    6  A    between atoms: C_22  and  N_24
REMARK                            x       y       z     vdW  Elec       q    Type
REMARK                         _______ _______ _______ _____ _____    ______ ____
ROOT
ATOM      1  C   UNL     1      -2.010   3.977  -0.083  0.00  0.00    +0.064 C 
ATOM      2  C   UNL     1      -0.857   3.010   0.009  0.00  0.00    +0.023 A 
ATOM      3  C   UNL     1       0.407   3.484   0.050  0.00  0.00    +0.068 A 
ATOM      4  C   UNL     1       1.489   2.584   0.136  0.00  0.00    +0.141 A 
ATOM      5  C   UNL     1       1.231   1.230   0.176  0.00  0.00    +0.072 A 
ATOM      6  C   UNL     1      -0.097   0.785   0.131  0.00  0.00    +0.259 A 
ATOM      7  O   UNL     1      -0.341  -0.411   0.166  0.00  0.00    -0.267 OA
ATOM      8  N   UNL     1      -1.103   1.675   0.045  0.00  0.00    -0.308 N 
ATOM      9  C   UNL     1       2.355   0.235   0.266  0.00  0.00    +0.105 C 
ATOM     10  C   UNL     1       3.621   0.922   0.699  0.00  0.00    +0.098 C 
ATOM     11  C   UNL     1       3.747   2.269   0.632  0.00  0.00    +0.199 C 
ATOM     12  O   UNL     1       2.754   3.054   0.178  0.00  0.00    -0.441 OA
ENDROOT
BRANCH   9  13
ATOM     13  C   UNL     1       2.568  -0.401  -1.083  0.00  0.00    -0.016 A 
ATOM     14  C   UNL     1       2.895   0.384  -2.174  0.00  0.00    +0.007 A 
ATOM     15  C   UNL     1       3.096  -0.200  -3.410  0.00  0.00    +0.020 A 
ATOM     16  C   UNL     1       2.960  -1.569  -3.560  0.00  0.00    +0.042 A 
ATOM     17  C   UNL     1       2.628  -2.354  -2.470  0.00  0.00    +0.040 A 
ATOM     18  C   UNL     1       2.432  -1.770  -1.232  0.00  0.00    +0.046 A 
ATOM     19 CL   UNL     1       2.015  -2.754   0.136  0.00  0.00    -0.083 Cl
ATOM     20 CL   UNL     1       3.206  -2.301  -5.114  0.00  0.00    -0.083 Cl
ENDBRANCH   9  13
BRANCH  11  21
ATOM     21  N   UNL     1       4.922   2.849   1.039  0.00  0.00    -0.328 N 
ATOM     22  H   UNL     1       5.647   2.296   1.369  0.00  0.00    +0.145 HD
ATOM     23  H   UNL     1       5.027   3.812   0.997  0.00  0.00    +0.145 HD
ENDBRANCH  11  21
BRANCH  10  24
ATOM     24  C   UNL     1       4.713   0.138   1.191  0.00  0.00    +0.101 C 
ATOM     25  N   UNL     1       5.580  -0.484   1.581  0.00  0.00    -0.191 NA
ENDBRANCH  10  24
BRANCH   8  26
ATOM     26  C   UNL     1      -2.487   1.195  -0.006  0.00  0.00    +0.160 C 
BRANCH  26  27
ATOM     27  C   UNL     1      -2.852   0.865  -1.431  0.00  0.00    -0.024 A 
ATOM     28  C   UNL     1      -2.523  -0.370  -1.958  0.00  0.00    +0.009 A 
ATOM     29  C   UNL     1      -2.856  -0.678  -3.264  0.00  0.00    +0.050 A 
ATOM     30  C   UNL     1      -3.520   0.251  -4.048  0.00  0.00    +0.166 A 
ATOM     31  C   UNL     1      -3.851   1.495  -3.516  0.00  0.00    +0.167 A 
ATOM     32  C   UNL     1      -3.519   1.795  -2.205  0.00  0.00    +0.055 A 
ATOM     33  O   UNL     1      -4.493   2.223  -4.476  0.00  0.00    -0.453 OA
ATOM     34  C   UNL     1      -4.190   1.568  -5.722  0.00  0.00    +0.466 C 
ATOM     35  O   UNL     1      -3.955   0.200  -5.341  0.00  0.00    -0.453 OA
ENDBRANCH  26  27
ENDBRANCH   8  26
TORSDOF 5
