REMARK  Name = ZINC50224146
REMARK  3 active torsions:
REMARK  status: ('A' for Active; 'I' for Inactive)
REMARK    1  A    between atoms: C_5  and  N_8
REMARK    2  A    between atoms: C_10  and  C_13
REMARK    3  A    between atoms: C_13  and  N_14
REMARK                            x       y       z     vdW  Elec       q    Type
REMARK                         _______ _______ _______ _____ _____    ______ ____
ROOT
ATOM      1  N   UNL     1       1.237  -2.084  -0.021  0.00  0.00    -0.217 N 
ATOM      2  C   UNL     1       0.153  -2.900   0.076  0.00  0.00    +0.137 A 
ATOM      3  C   UNL     1       0.632  -4.166   0.026  0.00  0.00    +0.066 A 
ATOM      4  N   UNL     1       1.960  -4.066  -0.097  0.00  0.00    -0.136 NA
ATOM      5  N   UNL     1       2.286  -2.822  -0.127  0.00  0.00    -0.061 NA
ENDROOT
BRANCH   1  10
ATOM      6  C   UNL     1       0.491   1.381   0.979  0.00  0.00    +0.037 A 
ATOM      7  C   UNL     1       1.170   2.087   0.003  0.00  0.00    +0.021 A 
ATOM      8  C   UNL     1       1.871   1.414  -0.982  0.00  0.00    +0.037 A 
ATOM      9  C   UNL     1       1.895   0.032  -0.992  0.00  0.00    +0.069 A 
ATOM     10  C   UNL     1       1.215  -0.681  -0.013  0.00  0.00    +0.104 A 
ATOM     11  C   UNL     1       0.512  -0.002   0.974  0.00  0.00    +0.069 A 
ATOM     12 CL   UNL     1      -0.340  -0.888   2.200  0.00  0.00    -0.081 Cl
ATOM     13 CL   UNL     1       2.775  -0.813  -2.228  0.00  0.00    -0.081 Cl
ATOM     14 BR   UNL     1       1.140   3.978   0.013  0.00  0.00    -0.050 Br
ENDBRANCH   1  10
BRANCH   3  15
ATOM     15  C   UNL     1      -0.174  -5.438   0.095  0.00  0.00    -0.027 C 
BRANCH  15  16
ATOM     16  N   UNL     1      -0.462  -5.910  -1.266  0.00  0.00    +0.382 N 
ATOM     17  H   UNL     1       0.405  -6.087  -1.751  0.00  0.00    -0.090 HD
ATOM     18  H   UNL     1      -1.001  -6.761  -1.219  0.00  0.00    -0.090 HD
ATOM     19  H   UNL     1      -0.987  -5.206  -1.762  0.00  0.00    -0.090 HD
ENDBRANCH  15  16
ENDBRANCH   3  15
TORSDOF 3
