REMARK  Name = ZINC54904649
REMARK  6 active torsions:
REMARK  status: ('A' for Active; 'I' for Inactive)
REMARK    1  A    between atoms: C_1  and  C_2
REMARK    2  A    between atoms: C_2  and  C_3
REMARK    3  A    between atoms: C_15  and  N_22
REMARK    4  A    between atoms: C_18  and  C_20
REMARK    5  A    between atoms: C_18  and  C_21
REMARK    6  A    between atoms: N_22  and  C_23
REMARK                            x       y       z     vdW  Elec       q    Type
REMARK                         _______ _______ _______ _____ _____    ______ ____
ROOT
ATOM      1  C   UNL     1       0.917  -0.042  -1.000  0.00  0.00    +0.101 C 
ATOM      2  C   UNL     1       1.137  -1.557  -1.071  0.00  0.00    +0.182 C 
ATOM      3  O   UNL     1       1.766  -1.883  -2.313  0.00  0.00    -0.376 OA
ATOM      4  C   UNL     1       0.984  -1.563  -3.467  0.00  0.00    +0.179 C 
ATOM      5  C   UNL     1       0.756  -0.048  -3.518  0.00  0.00    +0.135 C 
ATOM      6  N   UNL     1       0.213   0.384  -2.220  0.00  0.00    -0.302 N 
ATOM      7  C   UNL     1      -0.927   1.169  -2.149  0.00  0.00    +0.161 A 
ATOM      8  N   UNL     1      -1.479   1.715  -1.087  0.00  0.00    -0.229 NA
ATOM      9  C   UNL     1      -2.585   2.451  -1.170  0.00  0.00    +0.053 A 
ATOM     10  C   UNL     1      -3.086   2.589  -2.423  0.00  0.00    +0.000 A 
ATOM     11  S   UNL     1      -1.940   1.660  -3.402  0.00  0.00    -0.059 S 
ATOM     12  C   UNL     1      -4.300   3.347  -2.841  0.00  0.00    -0.032 C 
ATOM     13  C   UNL     1      -4.713   4.269  -1.681  0.00  0.00    -0.004 C 
ATOM     14  C   UNL     1      -4.710   3.459  -0.382  0.00  0.00    -0.031 C 
ATOM     15  C   UNL     1      -3.274   3.110   0.017  0.00  0.00    +0.062 C 
ATOM     16  C   UNL     1      -5.359   4.283   0.732  0.00  0.00    +0.011 C 
ATOM     17  C   UNL     1      -5.508   2.169  -0.586  0.00  0.00    +0.011 C 
ENDROOT
BRANCH  12  18
ATOM     18  N   UNL     1      -3.996   4.153  -4.031  0.00  0.00    +0.382 N 
ATOM     19  C   UNL     1      -5.226   4.792  -4.517  0.00  0.00    -0.100 C 
ATOM     20  H   UNL     1      -3.320   4.863  -3.793  0.00  0.00    -0.085 HD
ATOM     21  H   UNL     1      -3.619   3.557  -4.753  0.00  0.00    -0.085 HD
ENDBRANCH  12  18
BRANCH   1  23
ATOM     22  C   UNL     1       0.807  -0.144   1.494  0.00  0.00    +0.006 C 
ATOM     23  C   UNL     1       0.070   0.298   0.229  0.00  0.00    +0.021 C 
ENDBRANCH   1  23
TORSDOF 2
