REMARK  Name = ZINC36998867
REMARK  7 active torsions:
REMARK  status: ('A' for Active; 'I' for Inactive)
REMARK    1  A    between atoms: C_1  and  C_2
REMARK    2  A    between atoms: C_7  and  C_22
REMARK    3  A    between atoms: N_12  and  C_16
REMARK    4  A    between atoms: C_16  and  C_17
REMARK    5  A    between atoms: C_17  and  C_19
REMARK    6  A    between atoms: C_17  and  O_21
REMARK    7  A    between atoms: C_19  and  N_20
REMARK                            x       y       z     vdW  Elec       q    Type
REMARK                         _______ _______ _______ _____ _____    ______ ____
ROOT
ATOM      1  C   UNL     1      -0.019   1.526   0.010  0.00  0.00    +0.010 C 
ATOM      2  C   UNL     1       0.002  -0.004   0.002  0.00  0.00    +0.019 C 
ATOM      3  C   UNL     1      -1.434  -0.533   0.012  0.00  0.00    +0.006 C 
ATOM      4  C   UNL     1      -1.413  -2.063   0.024  0.00  0.00    +0.001 C 
ATOM      5  C   UNL     1      -0.690  -2.554   1.280  0.00  0.00    +0.006 C 
ATOM      6  C   UNL     1       0.749  -2.033   1.276  0.00  0.00    +0.019 C 
ATOM      7  C   UNL     1       0.741  -0.509   1.237  0.00  0.00    +0.118 C 
ATOM      8  C   UNL     1       0.111   0.049   2.493  0.00  0.00    +0.247 C 
ATOM      9  O   UNL     1      -1.023  -0.123   2.884  0.00  0.00    -0.273 OA
ATOM     10  N   UNL     1       1.078   0.778   3.087  0.00  0.00    -0.222 N 
ATOM     11  C   UNL     1       2.217   0.755   2.383  0.00  0.00    +0.309 C 
ATOM     12  O   UNL     1       3.230   1.337   2.717  0.00  0.00    -0.252 OA
ATOM     13  N   UNL     1       2.113   0.013   1.264  0.00  0.00    -0.284 N 
ATOM     14  C   UNL     1       1.466  -2.505   2.542  0.00  0.00    +0.010 C 
ATOM     15  H   UNL     1       2.808  -0.145   0.606  0.00  0.00    +0.151 HD
ENDROOT
BRANCH  10  16
ATOM     16  C   UNL     1       0.904   1.505   4.347  0.00  0.00    +0.147 C 
BRANCH  16  17
ATOM     17  C   UNL     1       1.272   0.593   5.518  0.00  0.00    +0.115 C 
BRANCH  17  18
ATOM     18  O   UNL     1       0.424  -0.557   5.511  0.00  0.00    -0.392 OA
ATOM     19  H   UNL     1      -0.518  -0.352   5.594  0.00  0.00    +0.210 HD
ENDBRANCH  17  18
BRANCH  17  20
ATOM     20  C   UNL     1       1.090   1.352   6.834  0.00  0.00    -0.053 C 
BRANCH  20  21
ATOM     21  N   UNL     1       1.556   0.518   7.949  0.00  0.00    +0.380 N 
ATOM     22  H   UNL     1       1.020  -0.336   7.978  0.00  0.00    -0.090 HD
ATOM     23  H   UNL     1       2.533   0.299   7.820  0.00  0.00    -0.090 HD
ATOM     24  H   UNL     1       1.436   1.019   8.817  0.00  0.00    -0.090 HD
ENDBRANCH  20  21
ENDBRANCH  17  20
ENDBRANCH  16  17
ENDBRANCH  10  16
TORSDOF 5
