REMARK  Name = ZINC38722041
REMARK  7 active torsions:
REMARK  status: ('A' for Active; 'I' for Inactive)
REMARK    1  A    between atoms: C_1  and  C_2
REMARK    2  A    between atoms: C_4  and  C_12
REMARK    3  A    between atoms: C_12  and  C_14
REMARK    4  A    between atoms: C_14  and  C_16
REMARK    5  A    between atoms: C_14  and  O_17
REMARK    6  A    between atoms: O_17  and  C_18
REMARK    7  A    between atoms: C_18  and  C_20
REMARK                            x       y       z     vdW  Elec       q    Type
REMARK                         _______ _______ _______ _____ _____    ______ ____
ROOT
ATOM      1  C   UNL     1      -3.794  -0.991  -0.742  0.00  0.00    +0.244 C 
ATOM      2  C   UNL     1      -3.740  -2.490  -1.043  0.00  0.00    +0.061 C 
ENDROOT
BRANCH   1   3
ATOM      3  C   UNL     1      -2.429  -0.387  -0.953  0.00  0.00    +0.202 C 
ATOM      4  O   UNL     1      -2.209   0.287  -1.938  0.00  0.00    -0.288 OA
BRANCH   3   7
ATOM      5  C   UNL     1       0.008   1.448  -0.051  0.00  0.00    +0.035 C 
ATOM      6  C   UNL     1       0.011  -0.082  -0.052  0.00  0.00    +0.111 C 
ATOM      7  C   UNL     1      -1.407  -0.605  -0.004  0.00  0.00    +0.030 C 
ATOM      8  C   UNL     1      -1.492  -1.343   1.163  0.00  0.00    +0.007 A 
ATOM      9  C   UNL     1      -2.544  -2.074   1.764  0.00  0.00    +0.010 A 
ATOM     10  C   UNL     1      -2.343  -2.714   2.938  0.00  0.00    +0.001 A 
ATOM     11  C   UNL     1      -1.110  -2.691   3.609  0.00  0.00    +0.002 A 
ATOM     12  C   UNL     1      -0.043  -2.023   3.119  0.00  0.00    +0.026 A 
ATOM     13  C   UNL     1      -0.176  -1.298   1.845  0.00  0.00    +0.043 A 
ATOM     14  N   UNL     1       0.672  -0.585   1.157  0.00  0.00    -0.377 N 
ATOM     15  H   UNL     1       1.594  -0.415   1.404  0.00  0.00    +0.160 HD
ENDBRANCH   3   7
ENDBRANCH   1   3
BRANCH   1  16
ATOM     16  O   UNL     1      -4.733  -0.363  -1.617  0.00  0.00    -0.449 OA
BRANCH  16  17
ATOM     17  C   UNL     1      -6.009  -0.286  -1.191  0.00  0.00    +0.362 C 
ATOM     18  O   UNL     1      -6.316  -0.739  -0.107  0.00  0.00    -0.243 OA
BRANCH  17  19
ATOM     19  C   UNL     1      -7.034   0.350  -2.042  0.00  0.00    +0.187 A 
ATOM     20  C   UNL     1      -8.385   0.329  -1.656  0.00  0.00    +0.149 A 
ATOM     21  N   UNL     1      -9.299   0.904  -2.429  0.00  0.00    -0.237 NA
ATOM     22  C   UNL     1      -8.935   1.492  -3.555  0.00  0.00    +0.132 A 
ATOM     23  C   UNL     1      -7.601   1.512  -3.936  0.00  0.00    +0.131 A 
ATOM     24  N   UNL     1      -6.683   0.951  -3.176  0.00  0.00    -0.244 NA
ATOM     25  N   UNL     1      -8.761  -0.288  -0.477  0.00  0.00    -0.341 N 
ATOM     26  H   UNL     1      -8.085  -0.639   0.124  0.00  0.00    +0.144 HD
ATOM     27  H   UNL     1      -9.701  -0.370  -0.251  0.00  0.00    +0.144 HD
ENDBRANCH  17  19
ENDBRANCH  16  17
ENDBRANCH   1  16
TORSDOF 5
