REMARK  Name = ZINC20101462
REMARK  5 active torsions:
REMARK  status: ('A' for Active; 'I' for Inactive)
REMARK    1  A    between atoms: C_1  and  N_2
REMARK    2  A    between atoms: C_13  and  C_16
REMARK    3  A    between atoms: C_19  and  O_23
REMARK    4  A    between atoms: C_20  and  O_22
REMARK    5  A    between atoms: O_23  and  C_24
REMARK                            x       y       z     vdW  Elec       q    Type
REMARK                         _______ _______ _______ _____ _____    ______ ____
ROOT
ATOM      1  C   UNL     1       0.117   1.426  -2.386  0.00  0.00    -0.096 C 
ATOM      2  N   UNL     1      -0.719   1.570  -1.187  0.00  0.00    +0.381 N 
ATOM      3  C   UNL     1      -0.013   1.086   0.008  0.00  0.00    -0.074 C 
ATOM      4  C   UNL     1      -0.724   1.577   1.272  0.00  0.00    +0.018 C 
ATOM      5  C   UNL     1      -2.199   1.216   1.163  0.00  0.00    -0.027 A 
ATOM      6  C   UNL     1      -2.729   0.904  -0.042  0.00  0.00    -0.021 A 
ATOM      7  S   UNL     1      -4.436   0.558   0.286  0.00  0.00    -0.080 S 
ATOM      8  C   UNL     1      -4.442   0.823   1.978  0.00  0.00    +0.080 A 
ATOM      9  C   UNL     1      -3.118   1.175   2.286  0.00  0.00    +0.068 A 
ATOM     10  C   UNL     1      -2.801   1.473   3.702  0.00  0.00    +0.248 C 
ATOM     11  O   UNL     1      -1.711   1.903   4.030  0.00  0.00    -0.270 OA
ATOM     12  N   UNL     1      -3.771   1.248   4.613  0.00  0.00    -0.289 N 
ATOM     13  C   UNL     1      -5.003   0.523   4.315  0.00  0.00    +0.190 C 
ATOM     14  N   UNL     1      -5.432   0.748   2.923  0.00  0.00    -0.316 N 
ATOM     15  C   UNL     1      -2.006   0.869  -1.351  0.00  0.00    -0.036 C 
ATOM     16  H   UNL     1      -3.596   1.644   5.624  0.00  0.00    +0.151 HD
ATOM     17  H   UNL     1      -6.502   0.845   2.686  0.00  0.00    +0.149 HD
ATOM     18  H   UNL     1      -0.923   2.642  -1.049  0.00  0.00    -0.082 HD
ENDROOT
BRANCH  13  19
ATOM     19  C   UNL     1      -4.771  -0.951   4.528  0.00  0.00    -0.006 A 
ATOM     20  C   UNL     1      -5.477  -1.875   3.779  0.00  0.00    +0.011 A 
ATOM     21  C   UNL     1      -5.267  -3.228   3.970  0.00  0.00    +0.050 A 
ATOM     22  C   UNL     1      -4.349  -3.661   4.913  0.00  0.00    +0.161 A 
ATOM     23  C   UNL     1      -3.640  -2.731   5.667  0.00  0.00    +0.159 A 
ATOM     24  C   UNL     1      -3.850  -1.376   5.467  0.00  0.00    +0.056 A 
BRANCH  23  25
ATOM     25  O   UNL     1      -2.738  -3.151   6.594  0.00  0.00    -0.503 OA
ATOM     26  H   UNL     1      -2.178  -2.415   7.189  0.00  0.00    +0.292 HD
ENDBRANCH  23  25
BRANCH  22  27
ATOM     27  O   UNL     1      -4.143  -4.992   5.102  0.00  0.00    -0.491 OA
ATOM     28  C   UNL     1      -4.907  -5.888   4.293  0.00  0.00    +0.277 C 
ENDBRANCH  22  27
ENDBRANCH  13  19
TORSDOF 3
