REMARK  Name = ZINC27525709
REMARK  10 active torsions:
REMARK  status: ('A' for Active; 'I' for Inactive)
REMARK    1  A    between atoms: C_1  and  C_2
REMARK    2  A    between atoms: C_2  and  C_3
REMARK    3  A    between atoms: C_2  and  C_4
REMARK    4  A    between atoms: C_2  and  C_5
REMARK    5  A    between atoms: N_8  and  N_24
REMARK    6  A    between atoms: N_12  and  N_13
REMARK    7  A    between atoms: C_14  and  C_15
REMARK    8  A    between atoms: C_18  and  O_22
REMARK    9  A    between atoms: C_19  and  O_21
REMARK   10  A    between atoms: O_22  and  C_23
REMARK                            x       y       z     vdW  Elec       q    Type
REMARK                         _______ _______ _______ _____ _____    ______ ____
ROOT
ATOM      1  C   UNL     1      -1.063  -2.121   0.097  0.00  0.00    +0.106 A 
ATOM      2  C   UNL     1      -1.146  -0.712   0.108  0.00  0.00    +0.292 A 
ATOM      3  O   UNL     1      -2.222  -0.148   0.213  0.00  0.00    -0.264 OA
ATOM      4  N   UNL     1       0.002  -0.004  -0.000  0.00  0.00    -0.198 N 
ATOM      5  C   UNL     1       1.177  -0.684  -0.121  0.00  0.00    +0.253 A 
ATOM      6  N   UNL     1       1.189  -2.006  -0.119  0.00  0.00    -0.136 NA
ATOM      7  N   UNL     1       0.110  -2.697  -0.018  0.00  0.00    -0.273 N 
ATOM      8  N   UNL     1       2.353   0.006  -0.238  0.00  0.00    -0.204 N 
ATOM      9  H   UNL     1       2.358   1.103  -0.155  0.00  0.00    +0.177 HD
ATOM     10  H   UNL     1       0.186  -3.794  -0.028  0.00  0.00    +0.189 HD
ENDROOT
BRANCH   1  12
ATOM     11  C   UNL     1      -1.938  -4.440   0.175  0.00  0.00    +0.017 C 
ATOM     12  C   UNL     1      -2.312  -2.957   0.214  0.00  0.00    +0.009 C 
ATOM     13  C   UNL     1      -3.013  -2.643   1.537  0.00  0.00    +0.017 C 
ATOM     14  C   UNL     1      -3.252  -2.636  -0.950  0.00  0.00    +0.017 C 
ENDBRANCH   1  12
BRANCH   4  15
ATOM     15  N   UNL     1      -0.017   1.362   0.005  0.00  0.00    -0.293 N 
ATOM     16  H   UNL     1       0.924   1.925  -0.084  0.00  0.00    +0.163 HD
ATOM     17  H   UNL     1      -0.973   1.898   0.099  0.00  0.00    +0.163 HD
ENDBRANCH   4  15
BRANCH   8  18
ATOM     18  N   UNL     1       3.551  -0.684  -0.464  0.00  0.00    -0.188 NA
ATOM     19  C   UNL     1       4.667  -0.030  -0.576  0.00  0.00    +0.138 C 
BRANCH  19  20
ATOM     20  C   UNL     1       5.927  -0.756  -0.813  0.00  0.00    -0.002 A 
ATOM     21  C   UNL     1       5.924  -2.150  -0.913  0.00  0.00    +0.013 A 
ATOM     22  C   UNL     1       7.104  -2.827  -1.140  0.00  0.00    +0.050 A 
ATOM     23  C   UNL     1       8.296  -2.129  -1.259  0.00  0.00    +0.161 A 
ATOM     24  C   UNL     1       8.308  -0.740  -1.156  0.00  0.00    +0.159 A 
ATOM     25  C   UNL     1       7.129  -0.053  -0.933  0.00  0.00    +0.058 A 
BRANCH  24  26
ATOM     26  O   UNL     1       9.479  -0.059  -1.274  0.00  0.00    -0.503 OA
ATOM     27  H   UNL     1       9.488   1.038  -1.192  0.00  0.00    +0.292 HD
ENDBRANCH  24  26
BRANCH  23  28
ATOM     28  O   UNL     1       9.457  -2.802  -1.477  0.00  0.00    -0.491 OA
ATOM     29  C   UNL     1       9.374  -4.225  -1.573  0.00  0.00    +0.277 C 
ENDBRANCH  23  28
ENDBRANCH  19  20
ENDBRANCH   8  18
TORSDOF 6
