REMARK  Name = ZINC53860598
REMARK  10 active torsions:
REMARK  status: ('A' for Active; 'I' for Inactive)
REMARK    1  A    between atoms: C_1  and  C_2
REMARK    2  A    between atoms: C_2  and  N_3
REMARK    3  A    between atoms: N_3  and  C_4
REMARK    4  A    between atoms: C_8  and  C_21
REMARK    5  A    between atoms: C_11  and  C_13
REMARK    6  A    between atoms: C_13  and  N_14
REMARK    7  A    between atoms: C_17  and  O_20
REMARK    8  A    between atoms: C_21  and  C_22
REMARK    9  A    between atoms: C_21  and  C_23
REMARK   10  A    between atoms: C_21  and  C_24
REMARK                            x       y       z     vdW  Elec       q    Type
REMARK                         _______ _______ _______ _____ _____    ______ ____
ROOT
ATOM      1  C   UNL     1      -1.281  -2.172   0.124  0.00  0.00    -0.070 C 
ATOM      2  C   UNL     1      -0.643  -2.744  -1.143  0.00  0.00    -0.015 C 
ATOM      3  C   UNL     1      -1.380  -2.207  -2.372  0.00  0.00    +0.002 C 
ATOM      4  C   UNL     1      -2.851  -2.625  -2.307  0.00  0.00    -0.005 C 
ATOM      5  C   UNL     1      -3.488  -2.052  -1.040  0.00  0.00    +0.004 C 
ATOM      6  C   UNL     1      -2.751  -2.589   0.189  0.00  0.00    -0.042 C 
ENDROOT
BRANCH   4   7
ATOM      7  C   UNL     1      -3.588  -2.088  -3.536  0.00  0.00    -0.035 C 
ATOM      8  C   UNL     1      -2.950  -2.660  -4.803  0.00  0.00    +0.011 C 
ATOM      9  C   UNL     1      -5.059  -2.505  -3.471  0.00  0.00    +0.011 C 
ATOM     10  C   UNL     1      -3.492  -0.561  -3.561  0.00  0.00    +0.011 C 
ENDBRANCH   4   7
BRANCH   1  11
ATOM     11  N   UNL     1      -1.189  -0.706   0.100  0.00  0.00    +0.381 N 
ATOM     12  H   UNL     1      -1.681  -0.325   0.894  0.00  0.00    -0.086 HD
ATOM     13  H   UNL     1      -1.603  -0.357  -0.751  0.00  0.00    -0.086 HD
BRANCH  11  15
ATOM     14  C   UNL     1       0.319   1.224   0.133  0.00  0.00    -0.017 C 
ATOM     15  C   UNL     1       0.223  -0.303   0.159  0.00  0.00    -0.086 C 
ENDBRANCH  11  15
ENDBRANCH   1  11
BRANCH   6  16
ATOM     16  C   UNL     1      -3.389  -2.017   1.457  0.00  0.00    -0.077 C 
BRANCH  16  17
ATOM     17  N   UNL     1      -4.761  -2.526   1.588  0.00  0.00    +0.380 N 
ATOM     18  C   UNL     1      -5.423  -1.858   2.715  0.00  0.00    -0.076 C 
ATOM     19  C   UNL     1      -6.877  -2.325   2.806  0.00  0.00    +0.013 C 
ATOM     20  C   UNL     1      -6.909  -3.841   3.019  0.00  0.00    +0.111 C 
ATOM     21  C   UNL     1      -6.151  -4.523   1.876  0.00  0.00    +0.013 C 
ATOM     22  C   UNL     1      -4.723  -3.975   1.820  0.00  0.00    -0.076 C 
ATOM     23  H   UNL     1      -5.271  -2.335   0.739  0.00  0.00    -0.082 HD
BRANCH  20  24
ATOM     24  O   UNL     1      -8.264  -4.294   3.030  0.00  0.00    -0.392 OA
ATOM     25  H   UNL     1      -8.359  -5.248   3.162  0.00  0.00    +0.210 HD
ENDBRANCH  20  24
ENDBRANCH  16  17
ENDBRANCH   6  16
TORSDOF 6
