REMARK  Name = ZINC08779817
REMARK  9 active torsions:
REMARK  status: ('A' for Active; 'I' for Inactive)
REMARK    1  A    between atoms: C_1  and  C_2
REMARK    2  A    between atoms: C_2  and  C_4
REMARK    3  A    between atoms: C_2  and  N_63
REMARK    4  A    between atoms: N_6  and  C_7
REMARK    5  A    between atoms: C_8  and  C_15
REMARK    6  A    between atoms: C_18  and  N_63
REMARK    7  A    between atoms: C_19  and  C_20
REMARK    8  A    between atoms: C_19  and  N_63
REMARK    9  A    between atoms: C_23  and  N_26
REMARK                            x       y       z     vdW  Elec       q    Type
REMARK                         _______ _______ _______ _____ _____    ______ ____
ROOT
ATOM      1  C   UNL     1       3.206   5.676  -0.953  0.00  0.00    -0.004 C 
ATOM      2  C   UNL     1       2.185   5.633   0.185  0.00  0.00    +0.016 C 
ENDROOT
BRANCH   2   3
ATOM      3  C   UNL     1       2.904   5.696   1.508  0.00  0.00    +0.204 C 
ATOM      4  O   UNL     1       2.918   6.730   2.142  0.00  0.00    -0.277 OA
ATOM      5  N   UNL     1       3.532   4.604   1.986  0.00  0.00    -0.281 N 
ATOM      6  H   UNL     1       3.521   3.777   1.479  0.00  0.00    +0.155 HD
BRANCH   5   7
ATOM      7  C   UNL     1       4.194   4.661   3.203  0.00  0.00    +0.084 A 
ATOM      8  C   UNL     1       4.890   3.656   3.853  0.00  0.00    +0.068 A 
ATOM      9  C   UNL     1       5.503   3.980   5.141  0.00  0.00    -0.023 A 
ATOM     10  C   UNL     1       5.320   5.246   5.558  0.00  0.00    -0.004 A 
ATOM     11  S   UNL     1       4.352   6.008   4.279  0.00  0.00    -0.077 S 
ATOM     12  C   UNL     1       5.981   5.503   6.885  0.00  0.00    +0.043 C 
ATOM     13  C   UNL     1       6.982   4.339   7.053  0.00  0.00    +0.010 C 
ATOM     14  C   UNL     1       6.333   3.239   6.190  0.00  0.00    +0.037 C 
BRANCH   8  15
ATOM     15  C   UNL     1       5.008   2.316   3.271  0.00  0.00    +0.244 C 
ATOM     16  O   UNL     1       4.173   1.467   3.524  0.00  0.00    -0.270 OA
ATOM     17  N   UNL     1       6.041   2.023   2.456  0.00  0.00    -0.325 N 
ATOM     18  H   UNL     1       6.707   2.699   2.255  0.00  0.00    +0.145 HD
ATOM     19  H   UNL     1       6.119   1.136   2.071  0.00  0.00    +0.145 HD
ENDBRANCH   8  15
ENDBRANCH   5   7
ENDBRANCH   2   3
BRANCH   2  21
ATOM     20  C   UNL     1       0.289   6.562  -1.000  0.00  0.00    -0.095 C 
ATOM     21  N   UNL     1       1.259   6.781   0.094  0.00  0.00    +0.388 N 
ATOM     22  H   UNL     1       0.748   6.869   0.980  0.00  0.00    -0.081 HD
BRANCH  21  23
ATOM     23  C   UNL     1       2.019   8.026  -0.147  0.00  0.00    -0.042 C 
BRANCH  23  24
ATOM     24  C   UNL     1       1.084   9.200  -0.017  0.00  0.00    -0.064 A 
ATOM     25  C   UNL     1       0.421   9.681  -1.131  0.00  0.00    +0.003 A 
ATOM     26  C   UNL     1      -0.442  10.753  -1.014  0.00  0.00    +0.023 A 
ATOM     27  C   UNL     1      -0.634  11.356   0.222  0.00  0.00    +0.030 A 
ATOM     28  C   UNL     1       0.038  10.874   1.339  0.00  0.00    +0.023 A 
ATOM     29  C   UNL     1       0.894   9.798   1.216  0.00  0.00    +0.003 A 
BRANCH  27  30
ATOM     30  N   UNL     1      -1.501  12.444   0.343  0.00  0.00    -0.330 N 
ATOM     31  C   UNL     1      -2.534  12.184   1.354  0.00  0.00    +0.105 C 
ATOM     32  C   UNL     1      -3.374  13.446   1.564  0.00  0.00    +0.019 C 
ATOM     33  C   UNL     1      -4.023  13.847   0.236  0.00  0.00    +0.003 C 
ATOM     34  C   UNL     1      -2.929  14.065  -0.813  0.00  0.00    +0.019 C 
ATOM     35  C   UNL     1      -2.102  12.785  -0.953  0.00  0.00    +0.105 C 
ENDBRANCH  27  30
ENDBRANCH  23  24
ENDBRANCH  21  23
ENDBRANCH   2  21
TORSDOF 7
