REMARK  Name = ZINC63250063
REMARK  4 active torsions:
REMARK  status: ('A' for Active; 'I' for Inactive)
REMARK    1  A    between atoms: C_1  and  O_2
REMARK    2  A    between atoms: O_2  and  C_3
REMARK    3  A    between atoms: C_3  and  C_5
REMARK    4  A    between atoms: C_18  and  C_21
REMARK                            x       y       z     vdW  Elec       q    Type
REMARK                         _______ _______ _______ _____ _____    ______ ____
ROOT
ATOM      1  C   UNL     1      -1.244  -2.135   0.003  0.00  0.00    +0.168 C 
ATOM      2  C   UNL     1      -0.867  -2.668   1.397  0.00  0.00    +0.063 C 
ATOM      3  C   UNL     1      -2.011  -2.301   2.310  0.00  0.00    -0.035 C 
ATOM      4  C   UNL     1      -2.054  -1.710   3.495  0.00  0.00    -0.001 A 
ATOM      5  C   UNL     1      -0.991  -1.309   4.431  0.00  0.00    +0.010 A 
ATOM      6  C   UNL     1      -1.398  -0.688   5.570  0.00  0.00    +0.001 A 
ATOM      7  C   UNL     1      -2.739  -0.429   5.868  0.00  0.00    +0.002 A 
ATOM      8  C   UNL     1      -3.782  -0.772   5.071  0.00  0.00    +0.026 A 
ATOM      9  C   UNL     1      -3.481  -1.441   3.849  0.00  0.00    +0.043 A 
ATOM     10  N   UNL     1      -4.274  -1.902   2.925  0.00  0.00    -0.376 N 
ATOM     11  C   UNL     1      -3.460  -2.580   1.919  0.00  0.00    +0.128 C 
ATOM     12  C   UNL     1      -3.640  -2.000   0.515  0.00  0.00    +0.111 C 
ATOM     13  N   UNL     1      -2.599  -2.567  -0.352  0.00  0.00    -0.295 NA
ATOM     14  H   UNL     1      -2.797  -2.374  -1.322  0.00  0.00    +0.123 HD
ATOM     15  H   UNL     1      -5.239  -1.810   2.907  0.00  0.00    +0.160 HD
ENDROOT
BRANCH  12  16
ATOM     16  C   UNL     1      -5.002  -2.368  -0.015  0.00  0.00    -0.028 A 
ATOM     17  C   UNL     1      -5.222  -3.626  -0.542  0.00  0.00    +0.005 A 
ATOM     18  C   UNL     1      -6.471  -3.963  -1.029  0.00  0.00    +0.000 A 
ATOM     19  C   UNL     1      -7.501  -3.042  -0.988  0.00  0.00    +0.000 A 
ATOM     20  C   UNL     1      -7.281  -1.783  -0.460  0.00  0.00    +0.000 A 
ATOM     21  C   UNL     1      -6.033  -1.448   0.030  0.00  0.00    +0.005 A 
ENDBRANCH  12  16
BRANCH   1  22
ATOM     22  C   UNL     1      -1.185  -0.630   0.010  0.00  0.00    +0.324 C 
ATOM     23  O   UNL     1      -2.140   0.014  -0.356  0.00  0.00    -0.249 OA
BRANCH  22  25
ATOM     24  C   UNL     1      -0.087   1.425   0.404  0.00  0.00    +0.280 C 
ATOM     25  O   UNL     1      -0.072  -0.003   0.423  0.00  0.00    -0.467 OA
ENDBRANCH  22  25
ENDBRANCH   1  22
TORSDOF 3
