REMARK  Name = ZINC55398930
REMARK  8 active torsions:
REMARK  status: ('A' for Active; 'I' for Inactive)
REMARK    1  A    between atoms: C_1  and  C_2
REMARK    2  A    between atoms: C_2  and  C_21
REMARK    3  A    between atoms: C_4  and  N_10
REMARK    4  A    between atoms: C_6  and  C_8
REMARK    5  A    between atoms: C_6  and  C_9
REMARK    6  A    between atoms: N_10  and  C_11
REMARK    7  A    between atoms: C_11  and  C_12
REMARK    8  A    between atoms: C_16  and  N_18
REMARK                            x       y       z     vdW  Elec       q    Type
REMARK                         _______ _______ _______ _____ _____    ______ ____
ROOT
ATOM      1  C   UNL     1      -0.019   1.528   0.010  0.00  0.00    -0.010 C 
ATOM      2  C   UNL     1       0.002  -0.004   0.002  0.00  0.00    -0.072 C 
ATOM      3  C   UNL     1      -1.419  -0.538  -0.145  0.00  0.00    +0.006 C 
ATOM      4  C   UNL     1      -2.188  -0.373   1.166  0.00  0.00    +0.051 C 
ATOM      5  C   UNL     1      -1.451  -1.156   2.253  0.00  0.00    +0.006 C 
ATOM      6  C   UNL     1      -0.030  -0.627   2.418  0.00  0.00    -0.072 C 
ATOM      7  N   UNL     1       0.697  -0.529   1.164  0.00  0.00    +0.386 N 
ATOM      8  C   UNL     1       0.730  -1.621   3.326  0.00  0.00    -0.010 C 
ATOM      9  C   UNL     1      -0.059   0.718   3.151  0.00  0.00    -0.010 C 
ATOM     10  C   UNL     1       0.791  -0.440  -1.254  0.00  0.00    -0.010 C 
ATOM     11  H   UNL     1       1.056  -1.460   0.929  0.00  0.00    -0.084 HD
ATOM     12  H   UNL     1       1.534   0.040   1.322  0.00  0.00    -0.084 HD
ENDROOT
BRANCH   4  13
ATOM     13  N   UNL     1      -3.544  -0.923   1.006  0.00  0.00    -0.309 NA
ATOM     14  H   UNL     1      -3.866  -0.822   0.055  0.00  0.00    +0.123 HD
BRANCH  13  15
ATOM     15  C   UNL     1      -4.481  -0.297   1.949  0.00  0.00    +0.116 C 
BRANCH  15  16
ATOM     16  C   UNL     1      -5.855  -0.884   1.756  0.00  0.00    -0.031 A 
ATOM     17  C   UNL     1      -6.732  -0.310   0.854  0.00  0.00    +0.005 A 
ATOM     18  C   UNL     1      -7.992  -0.849   0.677  0.00  0.00    +0.003 A 
ATOM     19  C   UNL     1      -8.376  -1.962   1.402  0.00  0.00    +0.033 A 
ATOM     20  C   UNL     1      -7.500  -2.536   2.303  0.00  0.00    +0.126 A 
ATOM     21  C   UNL     1      -6.237  -2.000   2.477  0.00  0.00    +0.037 A 
BRANCH  20  22
ATOM     22  N   UNL     1      -7.911  -3.727   3.079  0.00  0.00    +0.056 N 
ATOM     23  O   UNL     1      -9.014  -4.198   2.925  0.00  0.00    -0.126 OA
ATOM     24  O   UNL     1      -7.144  -4.230   3.867  0.00  0.00    -0.126 OA
ENDBRANCH  20  22
ENDBRANCH  15  16
ENDBRANCH  13  15
ENDBRANCH   4  13
TORSDOF 4
