REMARK  Name = ZINC40634660
REMARK  5 active torsions:
REMARK  status: ('A' for Active; 'I' for Inactive)
REMARK    1  A    between atoms: C_1  and  O_2
REMARK    2  A    between atoms: O_2  and  C_3
REMARK    3  A    between atoms: C_6  and  C_10
REMARK    4  A    between atoms: N_15  and  C_18
REMARK    5  A    between atoms: C_18  and  C_19
REMARK                            x       y       z     vdW  Elec       q    Type
REMARK                         _______ _______ _______ _____ _____    ______ ____
ROOT
ATOM      1  C   UNL     1      -1.856  -4.306  -0.055  0.00  0.00    +0.202 C 
ATOM      2  O   UNL     1      -1.203  -4.849  -0.921  0.00  0.00    -0.277 OA
ATOM      3  N   UNL     1      -2.278  -5.011   1.013  0.00  0.00    -0.300 N 
ATOM      4  C   UNL     1      -3.076  -4.374   2.072  0.00  0.00    +0.123 C 
ATOM      5  C   UNL     1      -4.327  -5.225   2.318  0.00  0.00    +0.103 C 
ATOM      6  N   UNL     1      -3.925  -6.611   2.592  0.00  0.00    -0.297 NA
ATOM      7  C   UNL     1      -3.247  -7.208   1.434  0.00  0.00    +0.103 C 
ATOM      8  C   UNL     1      -1.957  -6.440   1.149  0.00  0.00    +0.123 C 
ENDROOT
BRANCH   1  11
ATOM      9  C   UNL     1      -1.295  -0.603   0.011  0.00  0.00    +0.100 C 
ATOM     10  C   UNL     1      -1.242  -1.987   0.698  0.00  0.00    +0.023 C 
ATOM     11  C   UNL     1      -2.196  -2.843  -0.174  0.00  0.00    +0.019 C 
ATOM     12  N   UNL     1      -1.933  -2.350  -1.550  0.00  0.00    +0.388 N 
ATOM     13  C   UNL     1      -1.765  -0.883  -1.428  0.00  0.00    -0.050 C 
ATOM     14  H   UNL     1      -1.091  -2.768  -1.914  0.00  0.00    -0.085 HD
ATOM     15  H   UNL     1      -2.716  -2.561  -2.151  0.00  0.00    -0.085 HD
BRANCH   9  17
ATOM     16  C   UNL     1      -0.017   1.425   0.010  0.00  0.00    +0.194 C 
ATOM     17  O   UNL     1       0.002  -0.004   0.002  0.00  0.00    -0.382 OA
ENDBRANCH   9  17
ENDBRANCH   1  11
BRANCH   6  18
ATOM     18  C   UNL     1      -5.080  -7.422   3.002  0.00  0.00    +0.116 C 
BRANCH  18  19
ATOM     19  C   UNL     1      -4.593  -8.778   3.516  0.00  0.00    +0.132 C 
ATOM     20  C   UNL     1      -5.804  -9.682   3.835  0.00  0.00    +0.035 C 
ATOM     21  C   UNL     1      -5.345 -10.401   5.133  0.00  0.00    +0.031 C 
ATOM     22  C   UNL     1      -4.510  -9.284   5.809  0.00  0.00    +0.160 C 
ATOM     23  O   UNL     1      -3.851  -8.601   4.728  0.00  0.00    -0.375 OA
ENDBRANCH  18  19
ENDBRANCH   6  18
TORSDOF 4
