REMARK  Name = ZINC02478981
REMARK  7 active torsions:
REMARK  status: ('A' for Active; 'I' for Inactive)
REMARK    1  A    between atoms: C_1  and  C_2
REMARK    2  A    between atoms: C_2  and  C_17
REMARK    3  A    between atoms: C_4  and  C_15
REMARK    4  A    between atoms: C_4  and  C_16
REMARK    5  A    between atoms: N_7  and  C_8
REMARK    6  A    between atoms: C_20  and  O_24
REMARK    7  A    between atoms: C_22  and  O_23
REMARK                            x       y       z     vdW  Elec       q    Type
REMARK                         _______ _______ _______ _____ _____    ______ ____
ROOT
ATOM      1  C   UNL     1       0.263   1.217  -0.648  0.00  0.00    +0.037 C 
ATOM      2  C   UNL     1       0.036  -0.268  -0.358  0.00  0.00    +0.069 C 
ATOM      3  C   UNL     1      -1.444  -0.588  -0.168  0.00  0.00    +0.058 C 
ATOM      4  C   UNL     1      -2.000  -0.117   1.169  0.00  0.00    +0.037 C 
ATOM      5  N   UNL     1      -1.058  -0.338   2.260  0.00  0.00    -0.362 N 
ATOM      6  C   UNL     1       0.250  -0.636   2.067  0.00  0.00    +0.147 C 
ATOM      7  N   UNL     1       0.807  -0.675   0.821  0.00  0.00    -0.271 N 
ATOM      8  S   UNL     1       1.204  -0.965   3.387  0.00  0.00    -0.016 SA
ATOM      9  C   UNL     1      -3.266  -0.943   1.474  0.00  0.00    +0.034 C 
ATOM     10  C   UNL     1      -2.407   1.354   1.116  0.00  0.00    +0.034 C 
ATOM     11  H   UNL     1      -1.386  -0.265   3.172  0.00  0.00    +0.162 HD
ENDROOT
BRANCH   7  12
ATOM     12  C   UNL     1       2.128  -1.109   0.669  0.00  0.00    +0.036 A 
ATOM     13  C   UNL     1       3.115  -0.212   0.279  0.00  0.00    +0.023 A 
ATOM     14  C   UNL     1       4.418  -0.644   0.131  0.00  0.00    +0.002 A 
ATOM     15  C   UNL     1       4.742  -1.967   0.369  0.00  0.00    +0.000 A 
ATOM     16  C   UNL     1       3.762  -2.862   0.758  0.00  0.00    +0.002 A 
ATOM     17  C   UNL     1       2.457  -2.436   0.913  0.00  0.00    +0.023 A 
ENDBRANCH   7  12
BRANCH   2  18
ATOM     18  C   UNL     1       0.543  -1.053  -1.540  0.00  0.00    +0.018 A 
ATOM     19  C   UNL     1       1.062  -0.391  -2.637  0.00  0.00    +0.013 A 
ATOM     20  C   UNL     1       1.528  -1.108  -3.722  0.00  0.00    +0.046 A 
ATOM     21  C   UNL     1       1.476  -2.495  -3.713  0.00  0.00    +0.120 A 
ATOM     22  C   UNL     1       0.956  -3.161  -2.615  0.00  0.00    +0.091 A 
ATOM     23  C   UNL     1       0.494  -2.439  -1.524  0.00  0.00    +0.126 A 
BRANCH  23  24
ATOM     24  O   UNL     1      -0.011  -3.090  -0.443  0.00  0.00    -0.506 OA
ATOM     25  H   UNL     1      -0.944  -3.329  -0.529  0.00  0.00    +0.292 HD
ENDBRANCH  23  24
BRANCH  21  26
ATOM     26  O   UNL     1       1.934  -3.200  -4.782  0.00  0.00    -0.507 OA
ATOM     27  H   UNL     1       2.871  -3.431  -4.727  0.00  0.00    +0.292 HD
ENDBRANCH  21  26
ENDBRANCH   2  18
TORSDOF 4
