REMARK  Name = ZINC08917770
REMARK  8 active torsions:
REMARK  status: ('A' for Active; 'I' for Inactive)
REMARK    1  A    between atoms: C_1  and  C_2
REMARK    2  A    between atoms: C_6  and  N_8
REMARK    3  A    between atoms: C_12  and  C_14
REMARK    4  A    between atoms: C_15  and  C_16
REMARK    5  A    between atoms: C_15  and  N_70
REMARK    6  A    between atoms: C_27  and  C_34
REMARK    7  A    between atoms: C_29  and  C_33
REMARK    8  A    between atoms: C_30  and  O_32
REMARK                            x       y       z     vdW  Elec       q    Type
REMARK                         _______ _______ _______ _____ _____    ______ ____
ROOT
ATOM      1  C   UNL     1      -8.986   0.814   2.818  0.00  0.00    +0.090 C 
ATOM      2  C   UNL     1     -10.506   1.022   2.785  0.00  0.00    +0.071 C 
ATOM      3  C   UNL     1     -11.038  -0.004   3.792  0.00  0.00    +0.187 C 
ATOM      4  C   UNL     1     -11.241  -1.377   3.143  0.00  0.00    +0.076 C 
ATOM      5  C   UNL     1     -12.054  -1.200   1.877  0.00  0.00    -0.061 C 
ATOM      6  C   UNL     1     -13.202  -1.801   1.794  0.00  0.00    -0.027 C 
ATOM      7  C   UNL     1     -14.103  -1.689   0.598  0.00  0.00    +0.027 C 
ATOM      8  C   UNL     1     -13.243  -1.383  -0.631  0.00  0.00    +0.008 C 
ATOM      9  C   UNL     1     -12.429  -0.120  -0.358  0.00  0.00    -0.001 C 
ATOM     10  C   UNL     1     -11.468  -0.318   0.810  0.00  0.00    +0.018 C 
ATOM     11  C   UNL     1     -11.126   1.036   1.422  0.00  0.00    +0.132 C 
ATOM     12  C   UNL     1     -10.197  -0.972   0.261  0.00  0.00    +0.018 C 
ATOM     13  C   UNL     1     -11.628   0.222  -1.617  0.00  0.00    +0.008 C 
ATOM     14  O   UNL     1      -9.897  -0.162   4.718  0.00  0.00    -0.460 OA
ATOM     15  C   UNL     1      -8.780  -0.172   3.958  0.00  0.00    +0.309 C 
ATOM     16  O   UNL     1      -7.795  -0.842   4.149  0.00  0.00    -0.251 OA
ENDROOT
BRANCH  11  17
ATOM     17  O   UNL     1     -10.246   1.743   0.536  0.00  0.00    -0.391 OA
ATOM     18  H   UNL     1     -10.080   2.660   0.796  0.00  0.00    +0.210 HD
ENDBRANCH  11  17
BRANCH   1  19
ATOM     19  C   UNL     1      -8.272   2.134   3.133  0.00  0.00    -0.064 C 
BRANCH  19  26
ATOM     20  N   UNL     1      -4.136   2.466   2.339  0.00  0.00    -0.331 N 
ATOM     21  C   UNL     1      -4.846   1.292   1.813  0.00  0.00    +0.087 C 
ATOM     22  C   UNL     1      -6.348   1.585   1.769  0.00  0.00    -0.060 C 
ATOM     23  C   UNL     1      -6.108   3.094   3.646  0.00  0.00    -0.056 C 
ATOM     24  C   UNL     1      -4.607   2.801   3.690  0.00  0.00    +0.054 C 
ATOM     25  C   UNL     1      -3.861   4.036   4.200  0.00  0.00    +0.026 C 
ATOM     26  N   UNL     1      -6.812   1.898   3.136  0.00  0.00    +0.382 N 
ATOM     27  H   UNL     1      -6.604   1.102   3.750  0.00  0.00    -0.082 HD
BRANCH  20  33
ATOM     28  C   UNL     1       0.279   3.523   0.456  0.00  0.00    +0.044 C 
ATOM     29  C   UNL     1      -0.589   2.761   1.424  0.00  0.00    -0.049 A 
ATOM     30  C   UNL     1      -0.017   1.859   2.303  0.00  0.00    +0.003 A 
ATOM     31  C   UNL     1      -0.809   1.158   3.192  0.00  0.00    +0.002 A 
ATOM     32  C   UNL     1      -2.176   1.357   3.207  0.00  0.00    +0.023 A 
ATOM     33  C   UNL     1      -2.754   2.263   2.327  0.00  0.00    +0.030 A 
ATOM     34  C   UNL     1      -1.954   2.969   1.437  0.00  0.00    +0.026 A 
ENDBRANCH  20  33
ENDBRANCH  19  26
ENDBRANCH   1  19
TORSDOF 4
