REMARK  Name = ZINC63693574
REMARK  7 active torsions:
REMARK  status: ('A' for Active; 'I' for Inactive)
REMARK    1  A    between atoms: C_1  and  C_2
REMARK    2  A    between atoms: C_2  and  C_3
REMARK    3  A    between atoms: C_3  and  C_4
REMARK    4  A    between atoms: C_4  and  C_5
REMARK    5  A    between atoms: C_4  and  N_25
REMARK    6  A    between atoms: N_7  and  C_8
REMARK    7  A    between atoms: C_8  and  C_9
REMARK                            x       y       z     vdW  Elec       q    Type
REMARK                         _______ _______ _______ _____ _____    ______ ____
ROOT
ATOM      1  C   UNL     1       0.113  -2.969  -6.022  0.00  0.00    -0.014 A 
ATOM      2  C   UNL     1      -0.732  -4.050  -6.240  0.00  0.00    +0.010 A 
ATOM      3  C   UNL     1      -1.677  -3.956  -7.245  0.00  0.00    +0.042 A 
ATOM      4  C   UNL     1      -1.750  -2.789  -8.000  0.00  0.00    +0.099 A 
ATOM      5  N   UNL     1      -0.926  -1.781  -7.761  0.00  0.00    -0.349 N 
ATOM      6  C   UNL     1      -0.018  -1.840  -6.805  0.00  0.00    +0.089 A 
ATOM      7  N   UNL     1      -2.695  -2.682  -9.013  0.00  0.00    -0.312 N 
ATOM      8  C   UNL     1      -3.540  -3.825  -9.396  0.00  0.00    +0.111 C 
ATOM      9  C   UNL     1      -4.990  -3.463  -9.080  0.00  0.00    +0.054 C 
ATOM     10  C   UNL     1      -5.325  -2.089  -9.598  0.00  0.00    -0.041 A 
ATOM     11  C   UNL     1      -6.668  -1.779  -9.781  0.00  0.00    +0.004 A 
ATOM     12  C   UNL     1      -7.043  -0.535 -10.243  0.00  0.00    +0.000 A 
ATOM     13  C   UNL     1      -6.078   0.414 -10.527  0.00  0.00    +0.000 A 
ATOM     14  C   UNL     1      -4.745   0.107 -10.350  0.00  0.00    +0.005 A 
ATOM     15  C   UNL     1      -4.365  -1.147  -9.890  0.00  0.00    -0.027 A 
ATOM     16  C   UNL     1      -2.894  -1.423  -9.740  0.00  0.00    +0.141 C 
ATOM     17  H   UNL     1      -0.994  -0.977  -8.300  0.00  0.00    +0.167 HD
ENDROOT
BRANCH   1  18
ATOM     18  C   UNL     1       1.159  -3.027  -4.939  0.00  0.00    +0.141 C 
BRANCH  18  21
ATOM     19  C   UNL     1       1.348  -2.483  -2.571  0.00  0.00    +0.234 C 
ATOM     20  O   UNL     1       2.500  -2.860  -2.606  0.00  0.00    -0.274 OA
ATOM     21  N   UNL     1       0.590  -2.525  -3.685  0.00  0.00    -0.310 N 
ATOM     22  H   UNL     1      -0.331  -2.223  -3.657  0.00  0.00    +0.149 HD
BRANCH  19  23
ATOM     23  C   UNL     1       0.763  -1.967  -1.281  0.00  0.00    +0.160 C 
BRANCH  23  24
ATOM     24  N   UNL     1       1.567  -2.447  -0.154  0.00  0.00    -0.288 N 
ATOM     25  C   UNL     1       2.873  -2.123  -0.072  0.00  0.00    +0.298 C 
ATOM     26  O   UNL     1       3.384  -1.434  -0.933  0.00  0.00    -0.253 OA
ATOM     27  N   UNL     1       3.612  -2.565   0.965  0.00  0.00    -0.313 N 
ATOM     28  H   UNL     1       1.159  -2.997   0.533  0.00  0.00    +0.151 HD
ATOM     29  H   UNL     1       3.204  -3.115   1.652  0.00  0.00    +0.146 HD
ATOM     30  H   UNL     1       4.552  -2.332   1.024  0.00  0.00    +0.146 HD
ENDBRANCH  23  24
BRANCH  23  31
ATOM     31  C   UNL     1       0.767  -0.437  -1.296  0.00  0.00    +0.031 C 
BRANCH  31  33
ATOM     32  C   UNL     1       0.065   1.616  -0.058  0.00  0.00    +0.004 C 
ATOM     33  C   UNL     1       0.061   0.086  -0.043  0.00  0.00    -0.001 C 
ENDBRANCH  31  33
ENDBRANCH  23  31
ENDBRANCH  19  23
ENDBRANCH  18  21
ENDBRANCH   1  18
TORSDOF 6
