REMARK  Name = ZINC07289479
REMARK  13 active torsions:
REMARK  status: ('A' for Active; 'I' for Inactive)
REMARK    1  A    between atoms: C_1  and  C_2
REMARK    2  A    between atoms: C_2  and  C_3
REMARK    3  A    between atoms: C_3  and  C_4
REMARK    4  A    between atoms: C_4  and  N_5
REMARK    5  A    between atoms: C_6  and  N_28
REMARK    6  A    between atoms: C_7  and  N_14
REMARK    7  A    between atoms: N_14  and  C_15
REMARK    8  A    between atoms: C_15  and  C_16
REMARK    9  A    between atoms: C_17  and  C_19
REMARK   10  A    between atoms: C_19  and  N_20
REMARK   11  A    between atoms: N_20  and  C_21
REMARK   12  A    between atoms: N_20  and  C_22
REMARK   13  A    between atoms: C_22  and  C_23
REMARK                            x       y       z     vdW  Elec       q    Type
REMARK                         _______ _______ _______ _____ _____    ______ ____
ROOT
ATOM      1  N   UNL     1      -4.548  -2.117  -0.831  0.00  0.00    -0.280 N 
ATOM      2  C   UNL     1      -5.196  -2.375   0.355  0.00  0.00    +0.127 A 
ATOM      3  C   UNL     1      -4.681  -3.327   1.211  0.00  0.00    +0.140 A 
ATOM      4  C   UNL     1      -3.505  -4.007   0.842  0.00  0.00    +0.277 A 
ATOM      5  O   UNL     1      -3.029  -4.854   1.579  0.00  0.00    -0.266 OA
ATOM      6  N   UNL     1      -2.910  -3.717  -0.331  0.00  0.00    -0.273 N 
ATOM      7  H   UNL     1      -2.099  -4.186  -0.587  0.00  0.00    +0.173 HD
ATOM      8  C   UNL     1      -3.429  -2.790  -1.155  0.00  0.00    +0.331 A 
ATOM      9  O   UNL     1      -2.874  -2.551  -2.210  0.00  0.00    -0.246 OA
ENDROOT
BRANCH   3  10
ATOM     10  N   UNL     1      -5.322  -3.614   2.434  0.00  0.00    -0.266 N 
ATOM     11  C   UNL     1      -4.714  -3.314   3.601  0.00  0.00    +0.203 C 
ATOM     12  O   UNL     1      -3.580  -2.883   3.601  0.00  0.00    -0.277 OA
BRANCH  10  13
ATOM     13  C   UNL     1      -6.648  -4.237   2.438  0.00  0.00    +0.110 C 
ATOM     14  C   UNL     1      -6.498  -5.754   2.575  0.00  0.00    +0.025 C 
ENDBRANCH  10  13
BRANCH  11  15
ATOM     15  C   UNL     1      -5.443  -3.515   4.904  0.00  0.00    +0.019 C 
BRANCH  15  16
ATOM     16  N   UNL     1      -4.572  -3.119   6.019  0.00  0.00    +0.387 N 
ATOM     17  C   UNL     1      -4.304  -1.676   5.942  0.00  0.00    -0.095 C 
ATOM     18  H   UNL     1      -3.702  -3.626   5.963  0.00  0.00    -0.081 HD
BRANCH  16  19
ATOM     19  C   UNL     1      -5.237  -3.426   7.293  0.00  0.00    -0.035 C 
BRANCH  19  20
ATOM     20  C   UNL     1      -4.296  -3.134   8.433  0.00  0.00    -0.027 A 
ATOM     21  C   UNL     1      -4.132  -1.983   9.131  0.00  0.00    +0.009 A 
ATOM     22  C   UNL     1      -3.199  -1.944  10.150  0.00  0.00    +0.008 A 
ATOM     23  C   UNL     1      -2.475  -3.058  10.421  0.00  0.00    +0.045 A 
ATOM     24  S   UNL     1      -3.115  -4.215   9.222  0.00  0.00    -0.103 S 
ENDBRANCH  19  20
ENDBRANCH  16  19
ENDBRANCH  15  16
ENDBRANCH  11  15
ENDBRANCH   3  10
BRANCH   2  25
ATOM     25  N   UNL     1      -6.342  -1.692   0.684  0.00  0.00    -0.343 N 
ATOM     26  H   UNL     1      -6.662  -0.977   0.111  0.00  0.00    +0.144 HD
ATOM     27  H   UNL     1      -6.831  -1.924   1.489  0.00  0.00    +0.144 HD
ENDBRANCH   2  25
BRANCH   1  28
ATOM     28  C   UNL     1      -5.084  -1.109  -1.749  0.00  0.00    +0.128 C 
BRANCH  28  29
ATOM     29  C   UNL     1      -6.066  -1.771  -2.717  0.00  0.00    +0.021 C 
BRANCH  29  31
ATOM     30  C   UNL     1      -7.609  -1.380  -4.643  0.00  0.00    +0.004 C 
ATOM     31  C   UNL     1      -6.626  -0.718  -3.675  0.00  0.00    -0.002 C 
ENDBRANCH  29  31
ENDBRANCH  28  29
ENDBRANCH   1  28
TORSDOF 10
