REMARK  Name = ZINC43895565
REMARK  14 active torsions:
REMARK  status: ('A' for Active; 'I' for Inactive)
REMARK    1  A    between atoms: C_1  and  C_2
REMARK    2  A    between atoms: C_2  and  N_3
REMARK    3  A    between atoms: N_3  and  C_4
REMARK    4  A    between atoms: C_4  and  C_6
REMARK    5  A    between atoms: C_4  and  C_15
REMARK    6  A    between atoms: C_6  and  N_7
REMARK    7  A    between atoms: N_7  and  C_8
REMARK    8  A    between atoms: N_7  and  C_9
REMARK    9  A    between atoms: C_9  and  C_11
REMARK   10  A    between atoms: C_9  and  C_12
REMARK   11  A    between atoms: C_12  and  C_13
REMARK   12  A    between atoms: C_12  and  C_14
REMARK   13  A    between atoms: C_17  and  C_22
REMARK   14  A    between atoms: C_20  and  C_21
REMARK                            x       y       z     vdW  Elec       q    Type
REMARK                         _______ _______ _______ _____ _____    ______ ____
ROOT
ATOM      1  C   UNL     1       0.852  -1.885   1.056  0.00  0.00    -0.058 C 
ENDROOT
BRANCH   1   2
ATOM      2  C   UNL     1       1.417  -2.556   2.281  0.00  0.00    -0.060 A 
ATOM      3  C   UNL     1       2.473  -1.977   2.962  0.00  0.00    +0.005 A 
ATOM      4  C   UNL     1       2.991  -2.592   4.086  0.00  0.00    -0.050 A 
ATOM      5  C   UNL     1       2.454  -3.787   4.529  0.00  0.00    +0.003 A 
ATOM      6  C   UNL     1       1.399  -4.365   3.850  0.00  0.00    +0.004 A 
ATOM      7  C   UNL     1       0.877  -3.747   2.728  0.00  0.00    -0.049 A 
ATOM      8  C   UNL     1      -0.277  -4.375   1.990  0.00  0.00    +0.044 C 
ATOM      9  C   UNL     1       4.141  -1.962   4.827  0.00  0.00    +0.044 C 
ENDBRANCH   1   2
BRANCH   1  10
ATOM     10  N   UNL     1       1.338  -0.500   0.988  0.00  0.00    +0.382 N 
ATOM     11  H   UNL     1       2.337  -0.500   0.852  0.00  0.00    -0.085 HD
ATOM     12  H   UNL     1       1.116  -0.023   1.849  0.00  0.00    -0.085 HD
BRANCH  10  14
ATOM     13  C   UNL     1       1.096   1.667  -0.128  0.00  0.00    -0.017 C 
ATOM     14  C   UNL     1       0.691   0.191  -0.135  0.00  0.00    -0.085 C 
ENDBRANCH  10  14
ENDBRANCH   1  10
BRANCH   1  15
ATOM     15  C   UNL     1       1.301  -2.644  -0.194  0.00  0.00    -0.090 C 
BRANCH  15  16
ATOM     16  N   UNL     1       2.758  -2.526  -0.343  0.00  0.00    +0.379 N 
ATOM     17  C   UNL     1       3.421  -3.434   0.602  0.00  0.00    -0.096 C 
ATOM     18  H   UNL     1       3.039  -1.576  -0.151  0.00  0.00    -0.082 HD
BRANCH  16  19
ATOM     19  C   UNL     1       3.141  -2.882  -1.715  0.00  0.00    -0.070 C 
ATOM     20  C   UNL     1       2.572  -4.259  -2.062  0.00  0.00    -0.013 C 
BRANCH  19  21
ATOM     21  C   UNL     1       2.583  -1.840  -2.687  0.00  0.00    -0.031 C 
ATOM     22  C   UNL     1       3.239  -0.486  -2.415  0.00  0.00    +0.005 C 
ATOM     23  C   UNL     1       2.881  -2.272  -4.124  0.00  0.00    +0.005 C 
ENDBRANCH  19  21
ENDBRANCH  16  19
ENDBRANCH  15  16
ENDBRANCH   1  15
TORSDOF 7
