REMARK  Name = ZINC48255120
REMARK  5 active torsions:
REMARK  status: ('A' for Active; 'I' for Inactive)
REMARK    1  A    between atoms: C_1  and  C_2
REMARK    2  A    between atoms: N_6  and  C_7
REMARK    3  A    between atoms: N_11  and  C_12
REMARK    4  A    between atoms: C_12  and  C_13
REMARK    5  A    between atoms: C_13  and  C_14
REMARK                            x       y       z     vdW  Elec       q    Type
REMARK                         _______ _______ _______ _____ _____    ______ ____
ROOT
ATOM      1  C   UNL     1      -0.018   1.503   0.010  0.00  0.00    +0.088 C 
ATOM      2  C   UNL     1       0.002  -0.004   0.002  0.00  0.00    +0.126 A 
ATOM      3  N   UNL     1       0.008  -0.765  -1.062  0.00  0.00    -0.199 NA
ATOM      4  C   UNL     1       0.027  -2.051  -0.698  0.00  0.00    +0.242 A 
ATOM      5  N   UNL     1       0.033  -2.119   0.612  0.00  0.00    -0.133 NA
ATOM      6  N   UNL     1       0.023  -0.798   1.086  0.00  0.00    -0.251 N 
ATOM      7  C   UNL     1       0.031  -0.369   2.487  0.00  0.00    +0.174 C 
ATOM      8  N   UNL     1       0.038  -3.144  -1.571  0.00  0.00    -0.237 N 
ATOM      9  C   UNL     1       0.057  -4.399  -1.079  0.00  0.00    +0.306 C 
ATOM     10  O   UNL     1       0.065  -4.581   0.123  0.00  0.00    -0.252 OA
ATOM     11  N   UNL     1       0.068  -5.452  -1.919  0.00  0.00    -0.299 N 
ATOM     12  H   UNL     1       0.032  -3.000  -2.530  0.00  0.00    +0.159 HD
ATOM     13  H   UNL     1       0.062  -5.308  -2.879  0.00  0.00    +0.150 HD
ENDROOT
BRANCH  11  14
ATOM     14  C   UNL     1       0.089  -6.816  -1.385  0.00  0.00    +0.106 C 
BRANCH  14  15
ATOM     15  C   UNL     1       0.098  -7.818  -2.542  0.00  0.00    +0.022 C 
BRANCH  15  16
ATOM     16  C   UNL     1       0.119  -9.242  -1.983  0.00  0.00    -0.010 C 
ATOM     17  C   UNL     1       1.415  -9.440  -1.171  0.00  0.00    +0.003 C 
ATOM     18  C   UNL     1       1.216 -10.596  -0.227  0.00  0.00    +0.000 C 
ATOM     19  C   UNL     1       1.719 -11.928  -0.814  0.00  0.00    +0.000 C 
ATOM     20  C   UNL     1       1.356 -12.102  -2.301  0.00  0.00    +0.000 C 
ATOM     21  C   UNL     1      -0.045 -11.648  -2.608  0.00  0.00    +0.000 C 
ATOM     22  C   UNL     1       0.008 -10.183  -3.088  0.00  0.00    +0.003 C 
ENDBRANCH  15  16
ENDBRANCH  14  15
ENDBRANCH  11  14
TORSDOF 3
