REMARK  Name = ZINC37321312
REMARK  5 active torsions:
REMARK  status: ('A' for Active; 'I' for Inactive)
REMARK    1  A    between atoms: C_3  and  C_6
REMARK    2  A    between atoms: C_6  and  C_8
REMARK    3  A    between atoms: C_6  and  N_14
REMARK    4  A    between atoms: N_14  and  C_15
REMARK    5  A    between atoms: C_20  and  O_23
REMARK                            x       y       z     vdW  Elec       q    Type
REMARK                         _______ _______ _______ _____ _____    ______ ____
ROOT
ATOM      1  C   UNL     1       3.679   0.672  -0.050  0.00  0.00    +0.034 C 
ENDROOT
BRANCH   1   2
ATOM      2  C   UNL     1       4.305   0.475   1.307  0.00  0.00    -0.016 A 
ATOM      3  C   UNL     1       4.863   1.394   2.130  0.00  0.00    +0.011 A 
ATOM      4  C   UNL     1       5.383   0.981   3.343  0.00  0.00    +0.028 A 
ATOM      5  C   UNL     1       5.319  -0.334   3.672  0.00  0.00    +0.078 A 
ATOM      6  S   UNL     1       4.497  -1.030   2.248  0.00  0.00    -0.083 S 
ATOM      7 CL   UNL     1       5.882  -1.131   5.107  0.00  0.00    -0.076 Cl
ENDBRANCH   1   2
BRANCH   1  10
ATOM      8  C   UNL     1       0.081   1.409   0.260  0.00  0.00    +0.041 A 
ATOM      9  C   UNL     1       1.423   1.828   0.113  0.00  0.00    +0.043 A 
ATOM     10  C   UNL     1       2.179   0.716   0.091  0.00  0.00    +0.096 A 
ATOM     11  O   UNL     1       1.370  -0.349   0.217  0.00  0.00    -0.469 OA
ATOM     12  C   UNL     1       0.097   0.065   0.319  0.00  0.00    +0.195 A 
ENDBRANCH   1  10
BRANCH   1  13
ATOM     13  N   UNL     1       4.055  -0.443  -0.930  0.00  0.00    +0.391 N 
ATOM     14  H   UNL     1       5.060  -0.530  -0.951  0.00  0.00    -0.084 HD
ATOM     15  H   UNL     1       3.650  -1.298  -0.581  0.00  0.00    -0.084 HD
BRANCH  13  16
ATOM     16  C   UNL     1       3.558  -0.184  -2.288  0.00  0.00    -0.068 C 
ATOM     17  C   UNL     1       3.816  -1.409  -3.167  0.00  0.00    -0.016 C 
ATOM     18  C   UNL     1       3.298  -1.139  -4.582  0.00  0.00    +0.001 C 
ATOM     19  C   UNL     1       4.024   0.073  -5.168  0.00  0.00    +0.031 C 
ATOM     20  C   UNL     1       3.766   1.298  -4.289  0.00  0.00    +0.113 C 
ATOM     21  C   UNL     1       4.284   1.028  -2.874  0.00  0.00    +0.015 C 
BRANCH  20  22
ATOM     22  O   UNL     1       4.445   2.429  -4.837  0.00  0.00    -0.392 OA
ATOM     23  H   UNL     1       4.166   2.659  -5.734  0.00  0.00    +0.210 HD
ENDBRANCH  20  22
ENDBRANCH  13  16
ENDBRANCH   1  13
TORSDOF 5
