REMARK  Name = ZINC64156482
REMARK  6 active torsions:
REMARK  status: ('A' for Active; 'I' for Inactive)
REMARK    1  A    between atoms: C_7  and  C_10
REMARK    2  A    between atoms: C_10  and  C_11
REMARK    3  A    between atoms: C_11  and  C_12
REMARK    4  A    between atoms: N_14  and  C_15
REMARK    5  A    between atoms: C_17  and  C_26
REMARK    6  A    between atoms: C_20  and  N_21
REMARK                            x       y       z     vdW  Elec       q    Type
REMARK                         _______ _______ _______ _____ _____    ______ ____
ROOT
ATOM      1  C   UNL     1      -0.931  -4.473  -1.662  0.00  0.00    +0.218 C 
ATOM      2  O   UNL     1      -1.779  -4.570  -0.800  0.00  0.00    -0.275 OA
ATOM      3  N   UNL     1      -0.837  -5.413  -2.623  0.00  0.00    -0.284 N 
ATOM      4  H   UNL     1      -0.213  -5.296  -3.357  0.00  0.00    +0.155 HD
ENDROOT
BRANCH   3   5
ATOM      5  C   UNL     1      -1.641  -6.560  -2.563  0.00  0.00    +0.055 A 
ATOM      6  C   UNL     1      -2.128  -7.000  -1.348  0.00  0.00    +0.038 A 
ATOM      7  C   UNL     1      -2.929  -8.144  -1.292  0.00  0.00    +0.038 A 
ATOM      8  C   UNL     1      -3.234  -8.839  -2.466  0.00  0.00    +0.015 A 
ATOM      9  C   UNL     1      -2.746  -8.397  -3.676  0.00  0.00    +0.026 A 
ATOM     10  C   UNL     1      -1.954  -7.256  -3.734  0.00  0.00    +0.051 A 
BRANCH  10  11
ATOM     11  N   UNL     1      -1.468  -6.809  -4.960  0.00  0.00    -0.328 N 
ATOM     12  C   UNL     1      -0.197  -7.214  -5.577  0.00  0.00    +0.105 C 
ATOM     13  C   UNL     1      -0.069  -6.447  -6.910  0.00  0.00    +0.020 C 
ATOM     14  C   UNL     1      -1.005  -5.228  -6.700  0.00  0.00    +0.020 C 
ATOM     15  C   UNL     1      -2.146  -5.856  -5.857  0.00  0.00    +0.105 C 
ENDBRANCH  10  11
BRANCH   7  16
ATOM     16  C   UNL     1      -3.451  -8.618   0.004  0.00  0.00    +0.242 C 
ATOM     17  O   UNL     1      -3.185  -8.014   1.024  0.00  0.00    -0.270 OA
ATOM     18  N   UNL     1      -4.224  -9.722   0.056  0.00  0.00    -0.325 N 
ATOM     19  H   UNL     1      -4.436 -10.204  -0.758  0.00  0.00    +0.145 HD
ATOM     20  H   UNL     1      -4.567 -10.033   0.908  0.00  0.00    +0.145 HD
ENDBRANCH   7  16
ENDBRANCH   3   5
BRANCH   1  21
ATOM     21  C   UNL     1       0.018  -3.303  -1.657  0.00  0.00    +0.100 C 
BRANCH  21  22
ATOM     22  C   UNL     1      -0.302  -2.392  -0.469  0.00  0.00    +0.042 C 
BRANCH  22  29
ATOM     23  C   UNL     1      -0.628   1.870  -2.138  0.00  0.00    +0.001 A 
ATOM     24  C   UNL     1       0.512   2.652  -1.909  0.00  0.00    +0.002 A 
ATOM     25  C   UNL     1       1.598   2.184  -1.258  0.00  0.00    +0.026 A 
ATOM     26  C   UNL     1       1.624   0.849  -0.769  0.00  0.00    +0.043 A 
ATOM     27  N   UNL     1       2.542   0.175  -0.120  0.00  0.00    -0.380 N 
ATOM     28  C   UNL     1       2.034  -1.178   0.137  0.00  0.00    +0.144 C 
ATOM     29  C   UNL     1       0.647  -1.222  -0.464  0.00  0.00    -0.041 C 
ATOM     30  C   UNL     1       0.431   0.003  -0.998  0.00  0.00    -0.001 A 
ATOM     31  C   UNL     1      -0.708   0.588  -1.714  0.00  0.00    +0.010 A 
ATOM     32  H   UNL     1       3.411   0.513   0.146  0.00  0.00    +0.160 HD
ENDBRANCH  22  29
ENDBRANCH  21  22
ENDBRANCH   1  21
TORSDOF 6
