REMARK  Name = ZINC13464831
REMARK  6 active torsions:
REMARK  status: ('A' for Active; 'I' for Inactive)
REMARK    1  A    between atoms: C_1  and  C_2
REMARK    2  A    between atoms: C_5  and  S_9
REMARK    3  A    between atoms: C_6  and  C_8
REMARK    4  A    between atoms: S_9  and  N_12
REMARK    5  A    between atoms: N_12  and  C_13
REMARK    6  A    between atoms: C_14  and  C_21
REMARK                            x       y       z     vdW  Elec       q    Type
REMARK                         _______ _______ _______ _____ _____    ______ ____
ROOT
ATOM      1  N   UNL     1       3.356   1.114  -1.544  0.00  0.00    -0.214 N 
ATOM      2  H   UNL     1       4.113   1.714  -1.629  0.00  0.00    +0.174 HD
ENDROOT
BRANCH   1   3
ATOM      3  C   UNL     1       2.991   0.302  -2.610  0.00  0.00    +0.076 A 
ATOM      4  C   UNL     1       2.494   0.871  -3.793  0.00  0.00    +0.088 A 
ATOM      5  C   UNL     1       2.135   0.042  -4.860  0.00  0.00    +0.032 A 
ATOM      6  C   UNL     1       2.260  -1.326  -4.740  0.00  0.00    +0.020 A 
ATOM      7  C   UNL     1       2.745  -1.885  -3.568  0.00  0.00    +0.032 A 
ATOM      8  C   UNL     1       3.109  -1.079  -2.508  0.00  0.00    +0.042 A 
ATOM      9 BR   UNL     1       3.769  -1.856  -0.915  0.00  0.00    -0.048 Br
ATOM     10 BR   UNL     1       1.767  -2.445  -6.183  0.00  0.00    -0.050 Br
BRANCH   4  11
ATOM     11  C   UNL     1       2.358   2.333  -3.912  0.00  0.00    +0.388 C 
ATOM     12  O   UNL     1       2.594   3.045  -2.956  0.00  0.00    -0.241 OA
ATOM     13  O   UNL     1       1.972   2.880  -5.082  0.00  0.00    -0.241 OA
ENDBRANCH   4  11
ENDBRANCH   1   3
BRANCH   1  14
ATOM     14  S   UNL     1       2.498   1.059  -0.128  0.00  0.00    +0.073 S 
ATOM     15  O   UNL     1       3.324   1.641   0.870  0.00  0.00    -0.150 OA
ATOM     16  O   UNL     1       1.983  -0.261  -0.017  0.00  0.00    -0.150 OA
BRANCH  14  21
ATOM     17  C   UNL     1      -2.257   4.715  -0.781  0.00  0.00    +0.044 C 
ATOM     18  C   UNL     1      -1.069   3.802  -0.618  0.00  0.00    -0.050 A 
ATOM     19  C   UNL     1      -1.257   2.436  -0.516  0.00  0.00    +0.005 A 
ATOM     20  C   UNL     1      -0.168   1.599  -0.361  0.00  0.00    +0.029 A 
ATOM     21  C   UNL     1       1.109   2.127  -0.319  0.00  0.00    +0.111 A 
ATOM     22  C   UNL     1       1.297   3.492  -0.426  0.00  0.00    -0.024 A 
ATOM     23  C   UNL     1       0.207   4.330  -0.576  0.00  0.00    +0.008 A 
ATOM     24  C   UNL     1       2.689   4.067  -0.381  0.00  0.00    +0.046 C 
ENDBRANCH  14  21
ENDBRANCH   1  14
TORSDOF 4
