REMARK  Name = ZINC39455873
REMARK  4 active torsions:
REMARK  status: ('A' for Active; 'I' for Inactive)
REMARK    1  A    between atoms: C_1  and  C_2
REMARK    2  A    between atoms: C_2  and  O_3
REMARK    3  A    between atoms: O_3  and  N_4
REMARK    4  A    between atoms: C_18  and  O_19
REMARK                            x       y       z     vdW  Elec       q    Type
REMARK                         _______ _______ _______ _____ _____    ______ ____
ROOT
ATOM      1  N   UNL     1       0.769  -1.889   1.248  0.00  0.00    -0.138 N 
ATOM      2  C   UNL     1      -0.246  -2.576   1.904  0.00  0.00    +0.149 A 
ATOM      3  C   UNL     1      -0.218  -3.952   2.011  0.00  0.00    +0.085 A 
ATOM      4  C   UNL     1       0.904  -4.711   1.432  0.00  0.00    +0.100 A 
ATOM      5  C   UNL     1       1.927  -3.983   0.769  0.00  0.00    +0.070 A 
ATOM      6  C   UNL     1       1.818  -2.518   0.691  0.00  0.00    +0.293 A 
ATOM      7  O   UNL     1       2.681  -1.875   0.123  0.00  0.00    -0.264 OA
ATOM      8  C   UNL     1       3.006  -4.650   0.203  0.00  0.00    +0.029 A 
ATOM      9  C   UNL     1       3.041  -6.046   0.313  0.00  0.00    +0.043 A 
ATOM     10  C   UNL     1       1.951  -6.731   1.013  0.00  0.00    +0.075 A 
ATOM     11  N   UNL     1       0.946  -6.027   1.532  0.00  0.00    -0.244 NA
ATOM     12  C   UNL     1       1.995  -8.133   1.120  0.00  0.00    +0.028 A 
ATOM     13  C   UNL     1       3.036  -8.821   0.576  0.00  0.00    +0.006 A 
ATOM     14  C   UNL     1       4.073  -8.180  -0.091  0.00  0.00    +0.046 A 
ATOM     15  C   UNL     1       4.095  -6.809  -0.231  0.00  0.00    +0.126 A 
ATOM     16  N   UNL     1      -1.245  -4.615   2.655  0.00  0.00    -0.328 N 
ATOM     17  C   UNL     1      -2.572  -3.980   2.689  0.00  0.00    +0.141 C 
ATOM     18  C   UNL     1      -2.409  -2.556   3.232  0.00  0.00    +0.114 C 
ATOM     19  C   UNL     1      -1.323  -1.850   2.464  0.00  0.00    +0.187 C 
ATOM     20  O   UNL     1      -1.372  -0.644   2.324  0.00  0.00    -0.290 OA
ATOM     21  I   UNL     1      -3.397  -3.909   0.691  0.00  0.00    -0.061 I 
ATOM     22  H   UNL     1      -1.095  -5.477   3.075  0.00  0.00    +0.147 HD
ENDROOT
BRANCH  15  23
ATOM     23  O   UNL     1       5.116  -6.201  -0.885  0.00  0.00    -0.506 OA
ATOM     24  H   UNL     1       5.857  -5.953  -0.315  0.00  0.00    +0.292 HD
ENDBRANCH  15  23
BRANCH   1  25
ATOM     25  O   UNL     1       0.693  -0.477   1.160  0.00  0.00    -0.408 OA
BRANCH  25  27
ATOM     26  C   UNL     1      -0.019   1.526   0.010  0.00  0.00    +0.051 C 
ATOM     27  C   UNL     1       0.002  -0.004   0.002  0.00  0.00    +0.257 C 
ENDBRANCH  25  27
ENDBRANCH   1  25
TORSDOF 3
