REMARK  Name = ZINC62125680
REMARK  6 active torsions:
REMARK  status: ('A' for Active; 'I' for Inactive)
REMARK    1  A    between atoms: C_1  and  C_2
REMARK    2  A    between atoms: C_4  and  C_19
REMARK    3  A    between atoms: C_5  and  N_9
REMARK    4  A    between atoms: N_9  and  S_10
REMARK    5  A    between atoms: S_10  and  N_13
REMARK    6  A    between atoms: N_13  and  C_14
REMARK                            x       y       z     vdW  Elec       q    Type
REMARK                         _______ _______ _______ _____ _____    ______ ____
ROOT
ATOM      1  N   UNL     1       0.804  -5.442   0.494  0.00  0.00    -0.205 N 
ATOM      2  H   UNL     1       0.836  -6.087  -0.230  0.00  0.00    +0.175 HD
ENDROOT
BRANCH   1   7
ATOM      3  C   UNL     1       3.188  -0.336  -0.152  0.00  0.00    +0.044 C 
ATOM      4  C   UNL     1       2.555  -1.693   0.019  0.00  0.00    -0.049 A 
ATOM      5  C   UNL     1       3.075  -2.586   0.937  0.00  0.00    +0.008 A 
ATOM      6  C   UNL     1       2.497  -3.830   1.097  0.00  0.00    -0.026 A 
ATOM      7  C   UNL     1       1.391  -4.184   0.335  0.00  0.00    +0.070 A 
ATOM      8  C   UNL     1       0.870  -3.284  -0.587  0.00  0.00    +0.064 A 
ATOM      9  C   UNL     1       1.451  -2.039  -0.739  0.00  0.00    +0.025 A 
ATOM     10 CL   UNL     1      -0.512  -3.721  -1.543  0.00  0.00    -0.082 Cl
ATOM     11  C   UNL     1       3.066  -4.803   2.098  0.00  0.00    +0.046 C 
ENDBRANCH   1   7
BRANCH   1  12
ATOM     12  S   UNL     1       0.055  -5.833   1.918  0.00  0.00    +0.110 S 
ATOM     13  O   UNL     1      -0.226  -7.224   1.861  0.00  0.00    -0.138 OA
ATOM     14  O   UNL     1       0.833  -5.255   2.958  0.00  0.00    -0.138 OA
BRANCH  12  15
ATOM     15  N   UNL     1      -1.406  -5.054   1.932  0.00  0.00    -0.174 NA
ATOM     16  H   UNL     1      -1.530  -4.264   2.482  0.00  0.00    +0.150 HD
BRANCH  15  17
ATOM     17  C   UNL     1      -2.512  -5.558   1.114  0.00  0.00    +0.078 C 
ATOM     18  C   UNL     1      -3.115  -4.411   0.276  0.00  0.00    +0.020 C 
ATOM     19  C   UNL     1      -4.635  -4.706   0.266  0.00  0.00    +0.002 C 
ATOM     20  C   UNL     1      -4.891  -5.234   1.700  0.00  0.00    +0.002 C 
ATOM     21  C   UNL     1      -3.641  -6.081   2.019  0.00  0.00    +0.020 C 
ENDBRANCH  15  17
ENDBRANCH  12  15
ENDBRANCH   1  12
TORSDOF 4
