REMARK  Name = ZINC39978387
REMARK  6 active torsions:
REMARK  status: ('A' for Active; 'I' for Inactive)
REMARK    1  A    between atoms: C_2  and  C_3
REMARK    2  A    between atoms: C_3  and  O_4
REMARK    3  A    between atoms: O_4  and  C_5
REMARK    4  A    between atoms: C_10  and  C_11
REMARK    5  A    between atoms: N_12  and  N_13
REMARK    6  A    between atoms: N_13  and  C_14
REMARK                            x       y       z     vdW  Elec       q    Type
REMARK                         _______ _______ _______ _____ _____    ______ ____
ROOT
ATOM      1  C   UNL     1       1.248  -3.937   2.792  0.00  0.00    +0.141 C 
ATOM      2  N   UNL     1       0.180  -3.207   2.691  0.00  0.00    -0.191 NA
ENDROOT
BRANCH   1   8
ATOM      3  C   UNL     1       2.392  -2.577   1.044  0.00  0.00    +0.130 A 
ATOM      4  C   UNL     1       3.503  -2.305   0.264  0.00  0.00    +0.047 A 
ATOM      5  C   UNL     1       4.638  -3.087   0.377  0.00  0.00    +0.019 A 
ATOM      6  C   UNL     1       4.673  -4.145   1.270  0.00  0.00    +0.019 A 
ATOM      7  C   UNL     1       3.574  -4.429   2.055  0.00  0.00    +0.028 A 
ATOM      8  C   UNL     1       2.424  -3.643   1.953  0.00  0.00    +0.037 A 
ATOM      9 BR   UNL     1       6.232  -5.205   1.414  0.00  0.00    -0.050 Br
BRANCH   3  10
ATOM     10  O   UNL     1       1.277  -1.809   0.933  0.00  0.00    -0.487 OA
BRANCH  10  11
ATOM     11  C   UNL     1       1.317  -0.740  -0.015  0.00  0.00    +0.256 C 
BRANCH  11  13
ATOM     12  C   UNL     1      -0.016   1.306   0.009  0.00  0.00    +0.007 C 
ATOM     13  C   UNL     1       0.002  -0.004   0.002  0.00  0.00    +0.006 C 
ENDBRANCH  11  13
ENDBRANCH  10  11
ENDBRANCH   3  10
ENDBRANCH   1   8
BRANCH   2  14
ATOM     14  N   UNL     1      -0.938  -3.486   3.488  0.00  0.00    -0.229 N 
ATOM     15  H   UNL     1      -0.912  -4.225   4.117  0.00  0.00    +0.172 HD
BRANCH  14  16
ATOM     16  C   UNL     1      -2.144  -2.663   3.373  0.00  0.00    +0.283 C 
ATOM     17  N   UNL     1      -3.075  -3.265   2.412  0.00  0.00    -0.347 N 
ATOM     18  C   UNL     1      -4.176  -3.536   3.051  0.00  0.00    +0.061 A 
ATOM     19  C   UNL     1      -5.451  -4.137   2.636  0.00  0.00    +0.027 A 
ATOM     20  C   UNL     1      -6.437  -4.298   3.541  0.00  0.00    +0.002 A 
ATOM     21  C   UNL     1      -6.301  -3.912   4.887  0.00  0.00    +0.002 A 
ATOM     22  C   UNL     1      -5.175  -3.352   5.372  0.00  0.00    +0.027 A 
ATOM     23  C   UNL     1      -4.032  -3.127   4.476  0.00  0.00    +0.061 A 
ATOM     24  N   UNL     1      -2.848  -2.619   4.661  0.00  0.00    -0.347 N 
ATOM     25  H   UNL     1      -2.903  -3.430   1.472  0.00  0.00    +0.163 HD
ATOM     26  H   UNL     1      -2.496  -2.275   5.497  0.00  0.00    +0.163 HD
ENDBRANCH  14  16
ENDBRANCH   2  14
TORSDOF 6
