REMARK  Name = ZINC33433898
REMARK  12 active torsions:
REMARK  status: ('A' for Active; 'I' for Inactive)
REMARK    1  A    between atoms: C_1  and  C_2
REMARK    2  A    between atoms: C_6  and  N_9
REMARK    3  A    between atoms: C_7  and  C_8
REMARK    4  A    between atoms: N_9  and  C_10
REMARK    5  A    between atoms: C_10  and  N_12
REMARK    6  A    between atoms: C_17  and  C_22
REMARK    7  A    between atoms: C_19  and  C_21
REMARK    8  A    between atoms: N_23  and  C_24
REMARK    9  A    between atoms: C_26  and  C_32
REMARK   10  A    between atoms: C_26  and  C_33
REMARK   11  A    between atoms: C_28  and  C_30
REMARK   12  A    between atoms: C_28  and  C_31
REMARK                            x       y       z     vdW  Elec       q    Type
REMARK                         _______ _______ _______ _____ _____    ______ ____
ROOT
ATOM      1  N   UNL     1      -0.556  -5.620   4.140  0.00  0.00    -0.159 NA
ATOM      2  C   UNL     1       0.426  -6.068   3.377  0.00  0.00    +0.196 C 
ATOM      3  N   UNL     1       0.143  -6.678   2.185  0.00  0.00    -0.297 N 
ATOM      4  C   UNL     1       0.214  -5.955   1.002  0.00  0.00    +0.231 A 
ATOM      5  N   UNL     1       0.455  -4.654   1.053  0.00  0.00    -0.217 NA
ATOM      6  C   UNL     1       0.529  -3.936  -0.056  0.00  0.00    +0.044 A 
ATOM      7  C   UNL     1       0.351  -4.561  -1.280  0.00  0.00    +0.046 A 
ATOM      8  C   UNL     1       0.101  -5.925  -1.296  0.00  0.00    +0.044 A 
ATOM      9  N   UNL     1       0.045  -6.584  -0.151  0.00  0.00    -0.217 NA
ATOM     10  C   UNL     1      -0.099  -6.647  -2.603  0.00  0.00    +0.066 C 
ATOM     11  C   UNL     1       0.803  -2.455   0.012  0.00  0.00    +0.066 C 
ATOM     12  N   UNL     1       1.722  -5.923   3.780  0.00  0.00    -0.355 N 
ATOM     13  H   UNL     1      -0.106  -7.615   2.167  0.00  0.00    +0.171 HD
ATOM     14  H   UNL     1       1.921  -5.550   4.653  0.00  0.00    +0.163 HD
ENDROOT
BRANCH  12  15
ATOM     15  C   UNL     1       2.817  -6.331   2.890  0.00  0.00    +0.079 C 
ATOM     16  C   UNL     1       3.073  -7.830   3.063  0.00  0.00    +0.011 C 
ATOM     17  C   UNL     1       4.219  -8.268   2.151  0.00  0.00    -0.071 C 
ATOM     18  N   UNL     1       5.418  -7.470   2.357  0.00  0.00    +0.386 N 
ATOM     19  C   UNL     1       5.266  -6.025   2.417  0.00  0.00    -0.071 C 
ATOM     20  C   UNL     1       4.090  -5.579   3.279  0.00  0.00    +0.011 C 
ATOM     21  C   UNL     1       6.550  -5.449   3.061  0.00  0.00    -0.010 C 
ATOM     22  C   UNL     1       5.153  -5.408   1.020  0.00  0.00    -0.010 C 
ATOM     23  C   UNL     1       3.766  -8.261   0.692  0.00  0.00    -0.010 C 
ATOM     24  C   UNL     1       4.562  -9.730   2.518  0.00  0.00    -0.010 C 
ATOM     25  H   UNL     1       5.868  -7.782   3.221  0.00  0.00    -0.084 HD
ATOM     26  H   UNL     1       6.084  -7.693   1.613  0.00  0.00    -0.084 HD
ENDBRANCH  12  15
BRANCH   1  27
ATOM     27  C   UNL     1      -1.831  -5.879   3.812  0.00  0.00    +0.161 C 
ATOM     28  S   UNL     1      -2.182  -6.910   2.491  0.00  0.00    -0.016 S 
BRANCH  27  29
ATOM     29  N   UNL     1      -2.834  -5.327   4.523  0.00  0.00    -0.295 N 
ATOM     30  H   UNL     1      -2.635  -4.726   5.258  0.00  0.00    +0.154 HD
BRANCH  29  36
ATOM     31  C   UNL     1      -7.385  -3.773   3.502  0.00  0.00    +0.044 C 
ATOM     32  C   UNL     1      -6.390  -4.888   3.700  0.00  0.00    -0.046 A 
ATOM     33  C   UNL     1      -6.792  -6.204   3.564  0.00  0.00    +0.004 A 
ATOM     34  C   UNL     1      -5.883  -7.230   3.745  0.00  0.00    +0.002 A 
ATOM     35  C   UNL     1      -4.569  -6.942   4.063  0.00  0.00    +0.023 A 
ATOM     36  C   UNL     1      -4.163  -5.622   4.201  0.00  0.00    +0.036 A 
ATOM     37  C   UNL     1      -5.078  -4.593   4.013  0.00  0.00    -0.026 A 
ATOM     38  C   UNL     1      -4.640  -3.158   4.155  0.00  0.00    +0.046 C 
ENDBRANCH  29  36
ENDBRANCH  27  29
ENDBRANCH   1  27
TORSDOF 4
