REMARK  Name = ZINC13131255
REMARK  3 active torsions:
REMARK  status: ('A' for Active; 'I' for Inactive)
REMARK    1  A    between atoms: C_1  and  C_2
REMARK    2  A    between atoms: C_5  and  C_8
REMARK    3  A    between atoms: C_11  and  C_20
REMARK                            x       y       z     vdW  Elec       q    Type
REMARK                         _______ _______ _______ _____ _____    ______ ____
ROOT
ATOM      1  C   UNL     1       0.059  -4.275  -0.021  0.00  0.00    +0.106 C 
ATOM      2  C   UNL     1      -1.353  -4.810   0.243  0.00  0.00    +0.059 C 
ATOM      3  C   UNL     1      -1.872  -4.262   1.578  0.00  0.00    +0.144 C 
ATOM      4  N   UNL     1      -0.849  -4.470   2.603  0.00  0.00    -0.224 N 
ATOM      5  C   UNL     1       0.459  -4.705   2.339  0.00  0.00    +0.216 A 
ATOM      6  N   UNL     1       1.085  -4.846   3.477  0.00  0.00    -0.180 NA
ATOM      7  C   UNL     1       0.213  -4.706   4.487  0.00  0.00    +0.233 A 
ATOM      8  N   UNL     1      -0.982  -4.474   3.992  0.00  0.00    -0.132 NA
ATOM      9  N   UNL     1       0.525  -4.792   5.845  0.00  0.00    -0.326 N 
ATOM     10  N   UNL     1       0.959  -4.765   1.041  0.00  0.00    -0.307 N 
ATOM     11  H   UNL     1       1.438  -4.967   6.122  0.00  0.00    +0.145 HD
ATOM     12  H   UNL     1      -0.171  -4.678   6.511  0.00  0.00    +0.145 HD
ATOM     13  H   UNL     1       1.844  -5.109   0.845  0.00  0.00    +0.149 HD
ENDROOT
BRANCH   1  18
ATOM     14  C   UNL     1      -0.018   1.503   0.010  0.00  0.00    +0.044 C 
ATOM     15  C   UNL     1       0.002  -0.004   0.002  0.00  0.00    -0.050 A 
ATOM     16  C   UNL     1       0.006  -0.689  -1.199  0.00  0.00    +0.004 A 
ATOM     17  C   UNL     1       0.025  -2.071  -1.206  0.00  0.00    +0.006 A 
ATOM     18  C   UNL     1       0.040  -2.768  -0.013  0.00  0.00    -0.027 A 
ATOM     19  C   UNL     1       0.037  -2.084   1.188  0.00  0.00    +0.006 A 
ATOM     20  C   UNL     1       0.023  -0.702   1.195  0.00  0.00    +0.004 A 
ENDBRANCH   1  18
BRANCH   3  21
ATOM     21  C   UNL     1      -3.134  -4.989   1.966  0.00  0.00    -0.005 A 
ATOM     22  C   UNL     1      -3.112  -6.358   2.159  0.00  0.00    +0.007 A 
ATOM     23  C   UNL     1      -4.269  -7.025   2.515  0.00  0.00    +0.000 A 
ATOM     24  C   UNL     1      -5.449  -6.323   2.677  0.00  0.00    +0.001 A 
ATOM     25  C   UNL     1      -5.473  -4.955   2.484  0.00  0.00    +0.020 A 
ATOM     26  C   UNL     1      -4.313  -4.286   2.134  0.00  0.00    +0.046 A 
ATOM     27 CL   UNL     1      -4.340  -2.567   1.897  0.00  0.00    -0.083 Cl
ENDBRANCH   3  21
TORSDOF 2
