REMARK  Name = ZINC43965420
REMARK  10 active torsions:
REMARK  status: ('A' for Active; 'I' for Inactive)
REMARK    1  A    between atoms: C_1  and  C_2
REMARK    2  A    between atoms: C_2  and  C_3
REMARK    3  A    between atoms: C_3  and  C_4
REMARK    4  A    between atoms: C_8  and  N_21
REMARK    5  A    between atoms: C_10  and  N_13
REMARK    6  A    between atoms: C_18  and  C_19
REMARK    7  A    between atoms: C_18  and  C_20
REMARK    8  A    between atoms: N_21  and  C_22
REMARK    9  A    between atoms: C_22  and  C_23
REMARK   10  A    between atoms: C_23  and  C_24
REMARK                            x       y       z     vdW  Elec       q    Type
REMARK                         _______ _______ _______ _____ _____    ______ ____
ROOT
ATOM      1  C   UNL     1       0.726  -2.968   1.262  0.00  0.00    -0.010 C 
ATOM      2  C   UNL     1       1.736  -4.095   1.038  0.00  0.00    +0.002 C 
ATOM      3  C   UNL     1       3.107  -3.496   0.718  0.00  0.00    -0.014 C 
ATOM      4  C   UNL     1       3.567  -2.622   1.887  0.00  0.00    -0.054 C 
ATOM      5  C   UNL     1       2.557  -1.495   2.110  0.00  0.00    +0.044 C 
ATOM      6  C   UNL     1       1.187  -2.094   2.430  0.00  0.00    +0.021 C 
ENDROOT
BRANCH   5   7
ATOM      7  N   UNL     1       2.999  -0.656   3.232  0.00  0.00    -0.291 NA
ATOM      8  C   UNL     1       4.413  -0.904   3.550  0.00  0.00    +0.113 C 
ATOM      9  C   UNL     1       4.815  -0.056   4.759  0.00  0.00    +0.175 C 
ATOM     10  O   UNL     1       4.557   1.322   4.476  0.00  0.00    -0.377 OA
ATOM     11  C   UNL     1       3.190   1.599   4.163  0.00  0.00    +0.181 C 
ATOM     12  C   UNL     1       2.771   0.768   2.947  0.00  0.00    +0.040 C 
ATOM     13  C   UNL     1       3.602   1.185   1.732  0.00  0.00    +0.030 C 
ATOM     14  C   UNL     1       1.287   0.999   2.656  0.00  0.00    +0.030 C 
ENDBRANCH   5   7
BRANCH   4  15
ATOM     15  N   UNL     1       4.883  -2.047   1.579  0.00  0.00    +0.382 N 
ATOM     16  H   UNL     1       4.763  -1.133   1.167  0.00  0.00    -0.085 HD
ATOM     17  H   UNL     1       5.422  -1.965   2.428  0.00  0.00    -0.085 HD
BRANCH  15  18
ATOM     18  C   UNL     1       5.591  -2.920   0.633  0.00  0.00    -0.082 C 
BRANCH  18  19
ATOM     19  C   UNL     1       6.962  -2.321   0.313  0.00  0.00    -0.022 C 
ATOM     20  C   UNL     1       7.699  -3.231  -0.672  0.00  0.00    +0.002 C 
ENDBRANCH  18  19
ENDBRANCH  15  18
ENDBRANCH   4  15
BRANCH   1  21
ATOM     21  C   UNL     1       0.626  -2.115  -0.004  0.00  0.00    +0.003 C 
BRANCH  21  23
ATOM     22  C   UNL     1      -0.052  -2.104  -2.409  0.00  0.00    +0.004 C 
ATOM     23  C   UNL     1       0.048  -2.957  -1.143  0.00  0.00    -0.003 C 
ENDBRANCH  21  23
ENDBRANCH   1  21
TORSDOF 6
