REMARK  Name = ZINC44259871
REMARK  3 active torsions:
REMARK  status: ('A' for Active; 'I' for Inactive)
REMARK    1  A    between atoms: C_6  and  C_7
REMARK    2  A    between atoms: C_10  and  C_16
REMARK    3  A    between atoms: C_17  and  C_18
REMARK                            x       y       z     vdW  Elec       q    Type
REMARK                         _______ _______ _______ _____ _____    ______ ____
ROOT
ATOM      1  C   UNL     1      -2.019  -1.013  -0.228  0.00  0.00    +0.175 A 
ATOM      2  C   UNL     1      -1.883  -2.373  -0.514  0.00  0.00    +0.050 A 
ATOM      3  C   UNL     1      -0.889  -3.332  -0.284  0.00  0.00    +0.021 A 
ATOM      4  C   UNL     1      -1.076  -4.637  -0.712  0.00  0.00    -0.024 A 
ATOM      5  C   UNL     1      -2.251  -5.039  -1.382  0.00  0.00    +0.010 A 
ATOM      6  C   UNL     1      -3.252  -4.167  -1.639  0.00  0.00    +0.032 A 
ATOM      7  C   UNL     1      -3.116  -2.777  -1.213  0.00  0.00    +0.114 A 
ATOM      8  N   UNL     1      -3.876  -1.709  -1.302  0.00  0.00    -0.078 NA
ATOM      9  O   UNL     1      -3.213  -0.617  -0.695  0.00  0.00    -0.353 OA
ENDROOT
BRANCH   1  15
ATOM     10  C   UNL     1      -0.700   1.090  -0.049  0.00  0.00    +0.013 A 
ATOM     11  C   UNL     1       0.224   1.876   0.606  0.00  0.00    +0.021 A 
ATOM     12  C   UNL     1       0.820   1.424   1.772  0.00  0.00    +0.041 A 
ATOM     13  C   UNL     1       0.495   0.180   2.288  0.00  0.00    +0.021 A 
ATOM     14  C   UNL     1      -0.427  -0.617   1.643  0.00  0.00    +0.013 A 
ATOM     15  C   UNL     1      -1.034  -0.167   0.466  0.00  0.00    +0.021 A 
ATOM     16 CL   UNL     1       1.982   2.421   2.591  0.00  0.00    -0.084 Cl
ENDBRANCH   1  15
BRANCH   4  17
ATOM     17  C   UNL     1      -0.023  -5.628  -0.461  0.00  0.00    +0.013 C 
ATOM     18  C   UNL     1      -0.347  -6.859  -0.005  0.00  0.00    +0.067 C 
BRANCH  18  19
ATOM     19  C   UNL     1      -1.659  -7.117   0.467  0.00  0.00    +0.234 C 
ATOM     20  O   UNL     1      -2.456  -6.203   0.580  0.00  0.00    -0.271 OA
ATOM     21  N   UNL     1      -2.024  -8.373   0.791  0.00  0.00    -0.326 N 
ATOM     22  H   UNL     1      -1.390  -9.101   0.701  0.00  0.00    +0.145 HD
ATOM     23  H   UNL     1      -2.922  -8.549   1.114  0.00  0.00    +0.145 HD
ENDBRANCH  18  19
ENDBRANCH   4  17
TORSDOF 3
