REMARK  Name = ZINC06320729
REMARK  15 active torsions:
REMARK  status: ('A' for Active; 'I' for Inactive)
REMARK    1  A    between atoms: C_1  and  C_2
REMARK    2  A    between atoms: C_6  and  C_15
REMARK    3  A    between atoms: C_13  and  C_14
REMARK    4  A    between atoms: C_15  and  N_75
REMARK    5  A    between atoms: C_16  and  C_17
REMARK    6  A    between atoms: C_16  and  N_75
REMARK    7  A    between atoms: C_17  and  C_18
REMARK    8  A    between atoms: C_21  and  O_26
REMARK    9  A    between atoms: C_22  and  O_24
REMARK   10  A    between atoms: O_24  and  C_25
REMARK   11  A    between atoms: O_26  and  C_27
REMARK   12  A    between atoms: C_28  and  C_29
REMARK   13  A    between atoms: C_28  and  N_75
REMARK   14  A    between atoms: N_33  and  C_34
REMARK   15  A    between atoms: C_34  and  C_35
REMARK                            x       y       z     vdW  Elec       q    Type
REMARK                         _______ _______ _______ _____ _____    ______ ____
ROOT
ATOM      1  N   UNL     1       0.035   1.284   0.686  0.00  0.00    +0.387 N 
ATOM      2  H   UNL     1      -0.558   1.570   1.474  0.00  0.00    -0.081 HD
ENDROOT
BRANCH   1   3
ATOM      3  C   UNL     1       1.448   1.555   1.026  0.00  0.00    -0.037 C 
BRANCH   3   9
ATOM      4  C   UNL     1       4.072  -4.006   5.247  0.00  0.00    +0.044 C 
ATOM      5  C   UNL     1       3.441  -2.644   5.111  0.00  0.00    -0.047 A 
ATOM      6  C   UNL     1       3.189  -2.135   3.868  0.00  0.00    +0.013 A 
ATOM      7  C   UNL     1       2.604  -0.871   3.742  0.00  0.00    -0.001 A 
ATOM      8  C   UNL     1       2.320  -0.296   2.426  0.00  0.00    +0.017 A 
ATOM      9  C   UNL     1       1.752   0.934   2.365  0.00  0.00    +0.001 A 
ATOM     10  C   UNL     1       1.451   1.637   3.551  0.00  0.00    +0.251 A 
ATOM     11  O   UNL     1       0.945   2.743   3.474  0.00  0.00    -0.268 OA
ATOM     12  N   UNL     1       1.702   1.115   4.764  0.00  0.00    -0.322 N 
ATOM     13  H   UNL     1       1.479   1.623   5.559  0.00  0.00    +0.169 HD
ATOM     14  C   UNL     1       2.278  -0.131   4.894  0.00  0.00    +0.049 A 
ATOM     15  C   UNL     1       2.544  -0.669   6.149  0.00  0.00    +0.030 A 
ATOM     16  C   UNL     1       3.121  -1.917   6.250  0.00  0.00    -0.046 A 
ATOM     17  C   UNL     1       3.408  -2.499   7.610  0.00  0.00    +0.044 C 
ENDBRANCH   3   9
ENDBRANCH   1   3
BRANCH   1  18
ATOM     18  C   UNL     1      -0.353   2.058  -0.512  0.00  0.00    -0.073 C 
BRANCH  18  19
ATOM     19  C   UNL     1      -0.273   3.551  -0.185  0.00  0.00    +0.017 C 
BRANCH  19  20
ATOM     20  C   UNL     1      -0.817   4.348  -1.342  0.00  0.00    -0.045 A 
ATOM     21  C   UNL     1       0.009   4.678  -2.401  0.00  0.00    +0.007 A 
ATOM     22  C   UNL     1      -0.485   5.405  -3.467  0.00  0.00    +0.049 A 
ATOM     23  C   UNL     1      -1.809   5.815  -3.472  0.00  0.00    +0.161 A 
ATOM     24  C   UNL     1      -2.639   5.488  -2.404  0.00  0.00    +0.162 A 
ATOM     25  C   UNL     1      -2.138   4.754  -1.340  0.00  0.00    +0.053 A 
BRANCH  24  26
ATOM     26  O   UNL     1      -3.939   5.887  -2.404  0.00  0.00    -0.491 OA
ATOM     27  C   UNL     1      -4.702   5.612  -1.228  0.00  0.00    +0.277 C 
ENDBRANCH  24  26
BRANCH  23  28
ATOM     28  O   UNL     1      -2.296   6.535  -4.518  0.00  0.00    -0.491 OA
ATOM     29  C   UNL     1      -1.387   6.834  -5.579  0.00  0.00    +0.277 C 
ENDBRANCH  23  28
ENDBRANCH  19  20
ENDBRANCH  18  19
ENDBRANCH   1  18
BRANCH   1  30
ATOM     30  C   UNL     1      -0.158  -0.160   0.439  0.00  0.00    +0.001 C 
BRANCH  30  31
ATOM     31  C   UNL     1      -1.635  -0.458   0.436  0.00  0.00    +0.135 A 
ATOM     32  N   UNL     1      -2.395  -0.660   1.485  0.00  0.00    -0.115 NA
ATOM     33  N   UNL     1      -3.594  -0.881   1.070  0.00  0.00    -0.023 NA
ATOM     34  N   UNL     1      -3.618  -0.833  -0.216  0.00  0.00    -0.044 NA
ATOM     35  N   UNL     1      -2.429  -0.575  -0.645  0.00  0.00    -0.229 N 
BRANCH  35  36
ATOM     36  C   UNL     1      -2.020  -0.435  -2.044  0.00  0.00    +0.178 C 
BRANCH  36  37
ATOM     37  C   UNL     1      -1.484  -1.774  -2.555  0.00  0.00    +0.140 C 
ATOM     38  C   UNL     1      -0.998  -1.621  -4.013  0.00  0.00    +0.035 C 
ATOM     39  C   UNL     1      -1.463  -2.956  -4.656  0.00  0.00    +0.031 C 
ATOM     40  C   UNL     1      -2.783  -3.210  -3.885  0.00  0.00    +0.160 C 
ATOM     41  O   UNL     1      -2.530  -2.751  -2.548  0.00  0.00    -0.375 OA
ENDBRANCH  36  37
ENDBRANCH  35  36
ENDBRANCH  30  31
ENDBRANCH   1  30
TORSDOF 11
