REMARK  Name = ZINC37308739
REMARK  3 active torsions:
REMARK  status: ('A' for Active; 'I' for Inactive)
REMARK    1  A    between atoms: C_4  and  C_8
REMARK    2  A    between atoms: C_8  and  C_10
REMARK    3  A    between atoms: C_8  and  N_21
REMARK                            x       y       z     vdW  Elec       q    Type
REMARK                         _______ _______ _______ _____ _____    ______ ____
ROOT
ATOM      1  C   UNL     1       3.713  -0.710  -0.038  0.00  0.00    -0.009 C 
ENDROOT
BRANCH   1   2
ATOM      2  C   UNL     1       3.845  -1.292  -1.421  0.00  0.00    -0.054 A 
ATOM      3  C   UNL     1       3.100  -2.405  -1.773  0.00  0.00    +0.004 A 
ATOM      4  C   UNL     1       3.216  -2.945  -3.039  0.00  0.00    +0.030 A 
ATOM      5  C   UNL     1       4.079  -2.370  -3.958  0.00  0.00    +0.087 A 
ATOM      6  C   UNL     1       4.829  -1.248  -3.605  0.00  0.00    +0.157 A 
ATOM      7  C   UNL     1       4.703  -0.711  -2.333  0.00  0.00    +0.050 A 
ATOM      8  O   UNL     1       5.575  -0.906  -4.684  0.00  0.00    -0.408 OA
ATOM      9  C   UNL     1       5.320  -1.762  -5.685  0.00  0.00    +0.419 A 
ATOM     10  O   UNL     1       5.831  -1.725  -6.788  0.00  0.00    -0.223 OA
ATOM     11  N   UNL     1       4.411  -2.671  -5.279  0.00  0.00    -0.288 N 
ATOM     12  H   UNL     1       4.053  -3.400  -5.809  0.00  0.00    +0.172 HD
ENDBRANCH   1   2
BRANCH   1  16
ATOM     13  C   UNL     1       0.352   1.929   0.084  0.00  0.00    +0.004 A 
ATOM     14  C   UNL     1       0.155   0.561   0.055  0.00  0.00    +0.038 A 
ATOM     15  C   UNL     1       1.243  -0.295   0.016  0.00  0.00    +0.127 A 
ATOM     16  C   UNL     1       2.528   0.221   0.005  0.00  0.00    -0.004 A 
ATOM     17  C   UNL     1       2.723   1.589   0.034  0.00  0.00    +0.046 A 
ATOM     18  C   UNL     1       1.635   2.443   0.073  0.00  0.00    +0.020 A 
ATOM     19 CL   UNL     1       4.334   2.236   0.020  0.00  0.00    -0.083 Cl
ATOM     20  F   UNL     1       1.050  -1.632  -0.012  0.00  0.00    -0.205 F 
ENDBRANCH   1  16
BRANCH   1  21
ATOM     21  N   UNL     1       3.519  -1.794   0.934  0.00  0.00    +0.385 N 
ATOM     22  H   UNL     1       3.324  -1.401   1.843  0.00  0.00    -0.089 HD
ATOM     23  H   UNL     1       2.744  -2.371   0.644  0.00  0.00    -0.089 HD
ATOM     24  H   UNL     1       4.356  -2.355   0.984  0.00  0.00    -0.089 HD
ENDBRANCH   1  21
TORSDOF 3
