REMARK  Name = ZINC44465457
REMARK  12 active torsions:
REMARK  status: ('A' for Active; 'I' for Inactive)
REMARK    1  A    between atoms: C_1  and  C_2
REMARK    2  A    between atoms: C_5  and  S_8
REMARK    3  A    between atoms: S_8  and  C_9
REMARK    4  A    between atoms: C_9  and  C_10
REMARK    5  A    between atoms: C_11  and  C_24
REMARK    6  A    between atoms: C_12  and  S_16
REMARK    7  A    between atoms: N_13  and  C_15
REMARK    8  A    between atoms: S_16  and  C_17
REMARK    9  A    between atoms: C_24  and  CA_25
REMARK   10  A    between atoms: CA_25  and  C_27
REMARK   11  A    between atoms: CA_25  and  N_29
REMARK   12  A    between atoms: C_27  and  O_28
REMARK                            x       y       z     vdW  Elec       q    Type
REMARK                         _______ _______ _______ _____ _____    ______ ____
ROOT
ATOM      1  C   UNL     1       0.033  -6.273   1.781  0.00  0.00    +0.077 A 
ATOM      2  C   UNL     1      -1.005  -7.182   1.999  0.00  0.00    +0.007 A 
ATOM      3  C   UNL     1      -0.459  -8.428   2.080  0.00  0.00    +0.103 A 
ATOM      4  N   UNL     1       0.883  -8.295   1.916  0.00  0.00    -0.260 N 
ATOM      5  N   UNL     1       1.159  -6.935   1.726  0.00  0.00    -0.174 NA
ATOM      6  C   UNL     1       1.866  -9.381   1.931  0.00  0.00    +0.173 C 
ENDROOT
BRANCH   1   7
ATOM      7  C   UNL     1      -0.121  -4.781   1.628  0.00  0.00    +0.132 C 
BRANCH   7   8
ATOM      8  S   UNL     1      -0.231  -4.362  -0.133  0.00  0.00    -0.119 S 
BRANCH   8  13
ATOM      9  C   UNL     1      -0.829   1.645  -0.169  0.00  0.00    +0.044 C 
ATOM     10  C   UNL     1      -0.679   0.145  -0.160  0.00  0.00    -0.050 A 
ATOM     11  C   UNL     1      -0.655  -0.553  -1.354  0.00  0.00    +0.004 A 
ATOM     12  C   UNL     1      -0.519  -1.927  -1.350  0.00  0.00    +0.015 A 
ATOM     13  C   UNL     1      -0.405  -2.608  -0.144  0.00  0.00    +0.008 A 
ATOM     14  C   UNL     1      -0.428  -1.903   1.054  0.00  0.00    +0.015 A 
ATOM     15  C   UNL     1      -0.560  -0.529   1.041  0.00  0.00    +0.004 A 
ENDBRANCH   8  13
ENDBRANCH   7   8
ENDBRANCH   1   7
BRANCH   3  16
ATOM     16  S   UNL     1      -1.333  -9.934   2.348  0.00  0.00    -0.070 S 
BRANCH  16  17
ATOM     17  C   UNL     1      -0.971 -10.898   0.918  0.00  0.00    +0.014 A 
ATOM     18  C   UNL     1      -0.147 -10.385  -0.077  0.00  0.00    +0.016 A 
ATOM     19  C   UNL     1       0.135 -11.143  -1.196  0.00  0.00    +0.016 A 
ATOM     20  C   UNL     1      -0.402 -12.411  -1.328  0.00  0.00    +0.018 A 
ATOM     21  C   UNL     1      -1.223 -12.924  -0.340  0.00  0.00    +0.016 A 
ATOM     22  C   UNL     1      -1.504 -12.174   0.785  0.00  0.00    +0.016 A 
ATOM     23 BR   UNL     1      -0.013 -13.445  -2.863  0.00  0.00    -0.050 Br
ENDBRANCH  16  17
ENDBRANCH   3  16
BRANCH   2  24
ATOM     24  C   UNL     1      -2.469  -6.845   2.124  0.00  0.00    +0.026 C 
BRANCH  24  25
ATOM     25  CA  UNL     1      -2.777  -6.437   3.566  0.00  0.00    -0.045 C 
BRANCH  25  26
ATOM     26  N   UNL     1      -2.581  -7.591   4.454  0.00  0.00    +0.382 N 
ATOM     27  H1  UNL     1      -3.248  -8.311   4.222  0.00  0.00    -0.090 HD
ATOM     28  H2  UNL     1      -1.645  -7.950   4.337  0.00  0.00    -0.090 HD
ATOM     29  H3  UNL     1      -2.713  -7.304   5.412  0.00  0.00    -0.090 HD
ENDBRANCH  25  26
BRANCH  25  30
ATOM     30  C   UNL     1      -4.228  -5.961   3.662  0.00  0.00    +0.140 C 
BRANCH  30  31
ATOM     31  O   UNL     1      -4.482  -5.471   4.980  0.00  0.00    -0.397 OA
ATOM     32  H   UNL     1      -5.385  -5.152   5.113  0.00  0.00    +0.209 HD
ENDBRANCH  30  31
ENDBRANCH  25  30
ENDBRANCH  24  25
ENDBRANCH   2  24
TORSDOF 10
