REMARK  Name = ZINC63086325
REMARK  9 active torsions:
REMARK  status: ('A' for Active; 'I' for Inactive)
REMARK    1  A    between atoms: C_1  and  C_2
REMARK    2  A    between atoms: C_2  and  C_4
REMARK    3  A    between atoms: C_2  and  N_7
REMARK    4  A    between atoms: C_4  and  C_5
REMARK    5  A    between atoms: C_5  and  N_6
REMARK    6  A    between atoms: N_7  and  C_8
REMARK    7  A    between atoms: N_7  and  C_9
REMARK    8  A    between atoms: C_12  and  S_15
REMARK    9  A    between atoms: S_15  and  N_18
REMARK                            x       y       z     vdW  Elec       q    Type
REMARK                         _______ _______ _______ _____ _____    ______ ____
ROOT
ATOM      1  C   UNL     1       0.047  -1.367  -2.067  0.00  0.00    +0.030 A 
ATOM      2  C   UNL     1       0.733  -1.902  -3.151  0.00  0.00    +0.025 A 
ATOM      3  C   UNL     1       0.097  -2.783  -4.003  0.00  0.00    +0.030 A 
ATOM      4  C   UNL     1      -1.222  -3.133  -3.779  0.00  0.00    +0.105 A 
ATOM      5  C   UNL     1      -1.908  -2.603  -2.701  0.00  0.00    +0.030 A 
ATOM      6  C   UNL     1      -1.276  -1.726  -1.842  0.00  0.00    +0.025 A 
ENDROOT
BRANCH   4   7
ATOM      7  S   UNL     1      -2.030  -4.256  -4.869  0.00  0.00    +0.056 S 
ATOM      8  O   UNL     1      -3.423  -4.000  -4.757  0.00  0.00    -0.153 OA
ATOM      9  O   UNL     1      -1.340  -4.186  -6.109  0.00  0.00    -0.153 OA
BRANCH   7  10
ATOM     10  N   UNL     1      -1.780  -5.782  -4.274  0.00  0.00    -0.204 NA
ATOM     11  H   UNL     1      -1.264  -5.907  -3.462  0.00  0.00    +0.144 HD
ATOM     12  H   UNL     1      -2.150  -6.549  -4.738  0.00  0.00    +0.144 HD
ENDBRANCH   7  10
ENDBRANCH   4   7
BRANCH   1  13
ATOM     13  N   UNL     1       0.688  -0.476  -1.203  0.00  0.00    -0.330 N 
ATOM     14  C   UNL     1       2.038   0.000  -1.512  0.00  0.00    +0.129 C 
BRANCH  13  16
ATOM     15  C   UNL     1      -0.035   1.511   0.025  0.00  0.00    +0.028 C 
ATOM     16  C   UNL     1       0.009  -0.019   0.012  0.00  0.00    +0.068 C 
BRANCH  16  17
ATOM     17  C   UNL     1       0.772  -0.518   1.241  0.00  0.00    +0.002 C 
BRANCH  17  18
ATOM     18  C   UNL     1       0.710  -2.045   1.294  0.00  0.00    -0.085 C 
BRANCH  18  19
ATOM     19  N   UNL     1       1.442  -2.524   2.474  0.00  0.00    +0.378 N 
ATOM     20  H   UNL     1       2.405  -2.229   2.415  0.00  0.00    -0.090 HD
ATOM     21  H   UNL     1       1.023  -2.142   3.308  0.00  0.00    -0.090 HD
ATOM     22  H   UNL     1       1.402  -3.532   2.509  0.00  0.00    -0.090 HD
ENDBRANCH  18  19
ENDBRANCH  17  18
ENDBRANCH  16  17
ENDBRANCH  13  16
ENDBRANCH   1  13
TORSDOF 7
