REMARK  Name = ZINC06427605
REMARK  6 active torsions:
REMARK  status: ('A' for Active; 'I' for Inactive)
REMARK    1  A    between atoms: C_1  and  C_2
REMARK    2  A    between atoms: C_5  and  N_8
REMARK    3  A    between atoms: C_11  and  C_12
REMARK    4  A    between atoms: N_13  and  C_14
REMARK    5  A    between atoms: C_20  and  N_47
REMARK    6  A    between atoms: C_25  and  S_26
REMARK                            x       y       z     vdW  Elec       q    Type
REMARK                         _______ _______ _______ _____ _____    ______ ____
ROOT
ATOM      1  N   UNL     1       3.935   6.774  -0.069  0.00  0.00    -0.220 N 
ATOM      2  C   UNL     1       3.006   6.015   0.549  0.00  0.00    +0.243 C 
ATOM      3  O   UNL     1       2.527   6.354   1.616  0.00  0.00    -0.274 OA
ATOM      4  C   UNL     1       2.593   4.763  -0.105  0.00  0.00    +0.204 C 
ATOM      5  C   UNL     1       3.227   4.441  -1.401  0.00  0.00    +0.255 C 
ATOM      6  O   UNL     1       2.932   3.423  -2.004  0.00  0.00    -0.272 OA
ATOM      7  N   UNL     1       4.134   5.295  -1.897  0.00  0.00    -0.158 NA
ATOM      8  C   UNL     1       4.469   6.398  -1.267  0.00  0.00    +0.157 C 
ENDROOT
BRANCH   1  13
ATOM      9  C   UNL     1       5.638  11.618   2.347  0.00  0.00    +0.044 C 
ATOM     10  C   UNL     1       5.186  10.331   1.705  0.00  0.00    -0.050 A 
ATOM     11  C   UNL     1       4.184  10.351   0.753  0.00  0.00    +0.005 A 
ATOM     12  C   UNL     1       3.767   9.173   0.163  0.00  0.00    +0.024 A 
ATOM     13  C   UNL     1       4.356   7.970   0.527  0.00  0.00    +0.043 A 
ATOM     14  C   UNL     1       5.359   7.953   1.487  0.00  0.00    +0.024 A 
ATOM     15  C   UNL     1       5.775   9.134   2.070  0.00  0.00    +0.005 A 
ENDBRANCH   1  13
BRANCH   4  16
ATOM     16  C   UNL     1       1.650   3.927   0.464  0.00  0.00    +0.100 C 
ATOM     17  N   UNL     1       1.184   2.867  -0.227  0.00  0.00    -0.293 NA
BRANCH  17  18
ATOM     18  C   UNL     1       0.289   1.906   0.423  0.00  0.00    +0.090 C 
ATOM     19  C   UNL     1      -1.153   2.411   0.335  0.00  0.00    +0.025 C 
ATOM     20  C   UNL     1      -1.550   2.566  -1.134  0.00  0.00    +0.002 C 
ATOM     21  C   UNL     1      -1.441   1.212  -1.837  0.00  0.00    -0.001 C 
ATOM     22  C   UNL     1       0.001   0.707  -1.750  0.00  0.00    -0.014 C 
ATOM     23  C   UNL     1       0.398   0.552  -0.281  0.00  0.00    -0.050 C 
BRANCH  23  26
ATOM     24  H   UNL     1       1.881  -0.827  -0.654  0.00  0.00    -0.090 HD
ATOM     25  H   UNL     1       2.426   0.742  -0.580  0.00  0.00    -0.090 HD
ATOM     26  N   UNL     1       1.785   0.065  -0.171  0.00  0.00    +0.381 N 
ATOM     27  H   UNL     1       2.020  -0.064   0.820  0.00  0.00    -0.090 HD
ENDBRANCH  23  26
ENDBRANCH  17  18
ENDBRANCH   4  16
BRANCH   8  28
ATOM     28  S   UNL     1       5.672   7.449  -2.010  0.00  0.00    -0.110 S 
ATOM     29  H   UNL     1       5.946   6.717  -3.183  0.00  0.00    +0.110 HD
ENDBRANCH   8  28
TORSDOF 5
