REMARK  Name = ZINC15988686
REMARK  9 active torsions:
REMARK  status: ('A' for Active; 'I' for Inactive)
REMARK    1  A    between atoms: C_1  and  N_2
REMARK    2  A    between atoms: N_2  and  C_3
REMARK    3  A    between atoms: N_2  and  S_20
REMARK    4  A    between atoms: C_3  and  C_4
REMARK    5  A    between atoms: N_6  and  C_7
REMARK    6  A    between atoms: C_7  and  C_8
REMARK    7  A    between atoms: C_8  and  C_10
REMARK    8  A    between atoms: C_8  and  N_55
REMARK    9  A    between atoms: S_20  and  C_23
REMARK                            x       y       z     vdW  Elec       q    Type
REMARK                         _______ _______ _______ _____ _____    ______ ____
ROOT
ATOM      1  C   UNL     1      -0.250   2.437   3.464  0.00  0.00    +0.229 C 
ATOM      2  O   UNL     1      -1.155   3.243   3.415  0.00  0.00    -0.274 OA
ATOM      3  N   UNL     1       0.103   1.753   2.358  0.00  0.00    -0.315 N 
ATOM      4  H   UNL     1       0.827   1.108   2.397  0.00  0.00    +0.149 HD
ENDROOT
BRANCH   1   5
ATOM      5  C   UNL     1       0.479   2.201   4.762  0.00  0.00    +0.204 C 
BRANCH   5   7
ATOM      6  C   UNL     1      -1.270   2.620   6.551  0.00  0.00    +0.132 C 
ATOM      7  N   UNL     1      -0.089   3.059   5.804  0.00  0.00    -0.171 NA
BRANCH   7   8
ATOM      8  S   UNL     1       0.605   4.525   6.139  0.00  0.00    +0.061 S 
ATOM      9  O   UNL     1       0.242   4.851   7.473  0.00  0.00    -0.153 OA
ATOM     10  O   UNL     1       1.959   4.440   5.717  0.00  0.00    -0.153 OA
BRANCH   8  11
ATOM     11  C   UNL     1      -0.172   5.718   5.100  0.00  0.00    +0.106 A 
ATOM     12  C   UNL     1       0.352   5.992   3.850  0.00  0.00    +0.031 A 
ATOM     13  C   UNL     1      -0.259   6.923   3.033  0.00  0.00    +0.040 A 
ATOM     14  C   UNL     1      -1.391   7.590   3.470  0.00  0.00    +0.124 A 
ATOM     15  C   UNL     1      -1.912   7.319   4.724  0.00  0.00    +0.040 A 
ATOM     16  C   UNL     1      -1.302   6.383   5.537  0.00  0.00    +0.031 A 
ATOM     17  F   UNL     1      -1.986   8.505   2.674  0.00  0.00    -0.205 F 
ENDBRANCH   8  11
ENDBRANCH   7   8
ENDBRANCH   5   7
ENDBRANCH   1   5
BRANCH   3  18
ATOM     18  C   UNL     1      -0.606   1.982   1.097  0.00  0.00    +0.096 C 
BRANCH  18  19
ATOM     19  C   UNL     1      -0.013   1.086   0.008  0.00  0.00    +0.016 C 
BRANCH  19  25
ATOM     20  C   UNL     1       1.725   2.735  -0.341  0.00  0.00    -0.078 C 
ATOM     21  C   UNL     1       3.237   2.966  -0.285  0.00  0.00    -0.019 C 
ATOM     22  C   UNL     1       3.921   2.086  -1.335  0.00  0.00    -0.004 C 
ATOM     23  C   UNL     1       3.564   0.621  -1.072  0.00  0.00    -0.019 C 
ATOM     24  C   UNL     1       2.043   0.458  -1.105  0.00  0.00    -0.078 C 
ATOM     25  N   UNL     1       1.446   1.311  -0.056  0.00  0.00    +0.387 N 
ATOM     26  H   UNL     1       1.862   1.065   0.850  0.00  0.00    -0.081 HD
ENDBRANCH  19  25
BRANCH  19  27
ATOM     27  C   UNL     1      -0.658   1.409  -1.315  0.00  0.00    +0.093 A 
ATOM     28  C   UNL     1      -1.542   0.634  -1.969  0.00  0.00    +0.043 A 
ATOM     29  C   UNL     1      -1.886   1.319  -3.157  0.00  0.00    +0.041 A 
ATOM     30  C   UNL     1      -1.186   2.467  -3.162  0.00  0.00    +0.195 A 
ATOM     31  O   UNL     1      -0.444   2.517  -2.044  0.00  0.00    -0.469 OA
ENDBRANCH  19  27
ENDBRANCH  18  19
ENDBRANCH   3  18
TORSDOF 8
