REMARK  Name = ZINC49896845
REMARK  10 active torsions:
REMARK  status: ('A' for Active; 'I' for Inactive)
REMARK    1  A    between atoms: C_1  and  C_2
REMARK    2  A    between atoms: C_2  and  C_3
REMARK    3  A    between atoms: C_2  and  C_4
REMARK    4  A    between atoms: C_4  and  C_5
REMARK    5  A    between atoms: C_5  and  C_7
REMARK    6  A    between atoms: C_5  and  N_22
REMARK    7  A    between atoms: N_9  and  N_10
REMARK    8  A    between atoms: C_11  and  C_13
REMARK    9  A    between atoms: C_13  and  C_14
REMARK   10  A    between atoms: C_14  and  C_15
REMARK                            x       y       z     vdW  Elec       q    Type
REMARK                         _______ _______ _______ _____ _____    ______ ____
ROOT
ATOM      1  C   UNL     1      -3.583  -0.545  -1.223  0.00  0.00    +0.215 C 
ATOM      2  O   UNL     1      -3.948  -1.559  -1.781  0.00  0.00    -0.276 OA
ATOM      3  N   UNL     1      -4.471   0.210  -0.548  0.00  0.00    -0.236 N 
ATOM      4  H   UNL     1      -4.179   1.021  -0.103  0.00  0.00    +0.173 HD
ENDROOT
BRANCH   3   5
ATOM      5  N   UNL     1      -5.817  -0.175  -0.490  0.00  0.00    -0.234 N 
ATOM      6  C   UNL     1      -6.706   0.581   0.185  0.00  0.00    +0.229 C 
ATOM      7  O   UNL     1      -6.341   1.594   0.742  0.00  0.00    -0.274 OA
ATOM      8  H   UNL     1      -6.110  -0.985  -0.936  0.00  0.00    +0.173 HD
BRANCH   6   9
ATOM      9  C   UNL     1      -8.154   0.167   0.247  0.00  0.00    +0.102 C 
BRANCH   9  10
ATOM     10  C   UNL     1      -8.942   1.190   1.068  0.00  0.00    +0.047 C 
BRANCH  10  11
ATOM     11  C   UNL     1     -10.389   0.775   1.130  0.00  0.00    -0.012 A 
ATOM     12  C   UNL     1     -11.295   1.290   0.222  0.00  0.00    +0.006 A 
ATOM     13  C   UNL     1     -12.623   0.910   0.279  0.00  0.00    +0.000 A 
ATOM     14  C   UNL     1     -13.047   0.016   1.244  0.00  0.00    +0.003 A 
ATOM     15  C   UNL     1     -12.143  -0.500   2.153  0.00  0.00    +0.038 A 
ATOM     16  C   UNL     1     -10.811  -0.125   2.093  0.00  0.00    +0.127 A 
ATOM     17  F   UNL     1      -9.926  -0.632   2.978  0.00  0.00    -0.205 F 
ENDBRANCH  10  11
ENDBRANCH   9  10
ENDBRANCH   6   9
ENDBRANCH   3   5
BRANCH   1  18
ATOM     18  C   UNL     1      -2.135  -0.131  -1.286  0.00  0.00    +0.014 C 
BRANCH  18  19
ATOM     19  N   UNL     1      -1.484  -0.797  -2.421  0.00  0.00    +0.386 N 
ATOM     20  H   UNL     1      -1.947  -0.532  -3.278  0.00  0.00    -0.089 HD
ATOM     21  H   UNL     1      -0.514  -0.520  -2.463  0.00  0.00    -0.089 HD
ATOM     22  H   UNL     1      -1.543  -1.798  -2.303  0.00  0.00    -0.089 HD
ENDBRANCH  18  19
BRANCH  18  23
ATOM     23  C   UNL     1      -1.433  -0.534   0.013  0.00  0.00    -0.004 C 
BRANCH  23  25
ATOM     24  C   UNL     1      -0.019   1.526   0.010  0.00  0.00    +0.007 C 
ATOM     25  C   UNL     1       0.002  -0.004   0.002  0.00  0.00    -0.018 C 
ATOM     26  C   UNL     1       0.742  -0.511   1.242  0.00  0.00    +0.007 C 
ENDBRANCH  23  25
ENDBRANCH  18  23
ENDBRANCH   1  18
TORSDOF 8
