REMARK  Name = ZINC51168564
REMARK  8 active torsions:
REMARK  status: ('A' for Active; 'I' for Inactive)
REMARK    1  A    between atoms: C_1  and  C_2
REMARK    2  A    between atoms: C_2  and  C_3
REMARK    3  A    between atoms: C_4  and  C_20
REMARK    4  A    between atoms: C_6  and  C_11
REMARK    5  A    between atoms: C_8  and  N_9
REMARK    6  A    between atoms: N_9  and  N_10
REMARK    7  A    between atoms: C_14  and  O_18
REMARK    8  A    between atoms: O_18  and  C_19
REMARK                            x       y       z     vdW  Elec       q    Type
REMARK                         _______ _______ _______ _____ _____    ______ ____
ROOT
ATOM      1  C   UNL     1       0.707  -0.490  -1.238  0.00  0.00    +0.014 A 
ATOM      2  C   UNL     1       0.005  -0.723  -2.405  0.00  0.00    +0.047 A 
ATOM      3  N   UNL     1       0.653  -1.149  -3.478  0.00  0.00    -0.232 NA
ATOM      4  C   UNL     1       1.963  -1.354  -3.445  0.00  0.00    +0.162 A 
ATOM      5  N   UNL     1       2.673  -1.143  -2.346  0.00  0.00    -0.211 NA
ATOM      6  C   UNL     1       2.087  -0.710  -1.235  0.00  0.00    +0.139 A 
ATOM      7  C   UNL     1      -1.484  -0.495  -2.456  0.00  0.00    +0.066 C 
ENDROOT
BRANCH   4   8
ATOM      8  C   UNL     1       2.651  -1.832  -4.669  0.00  0.00    +0.020 A 
ATOM      9  C   UNL     1       1.923  -2.055  -5.837  0.00  0.00    +0.015 A 
ATOM     10  C   UNL     1       2.564  -2.499  -6.973  0.00  0.00    +0.047 A 
ATOM     11  C   UNL     1       3.934  -2.725  -6.956  0.00  0.00    +0.134 A 
ATOM     12  C   UNL     1       4.663  -2.504  -5.794  0.00  0.00    +0.060 A 
ATOM     13  C   UNL     1       4.027  -2.053  -4.655  0.00  0.00    +0.030 A 
ATOM     14 BR   UNL     1       6.528  -2.814  -5.774  0.00  0.00    -0.046 Br
BRANCH  11  15
ATOM     15  O   UNL     1       4.563  -3.163  -8.077  0.00  0.00    -0.494 OA
ATOM     16  C   UNL     1       3.754  -3.370  -9.236  0.00  0.00    +0.277 C 
ENDBRANCH  11  15
ENDBRANCH   4   8
BRANCH   1  18
ATOM     17  C   UNL     1      -0.019   1.526   0.010  0.00  0.00    +0.009 C 
ATOM     18  C   UNL     1       0.002  -0.004   0.002  0.00  0.00    +0.037 C 
ENDBRANCH   1  18
BRANCH   6  19
ATOM     19  N   UNL     1       2.832  -0.484  -0.089  0.00  0.00    -0.267 N 
ATOM     20  H   UNL     1       2.397  -0.171   0.719  0.00  0.00    +0.167 HD
BRANCH  19  21
ATOM     21  N   UNL     1       4.181  -0.702  -0.097  0.00  0.00    -0.255 NA
ATOM     22  H   UNL     1       4.586  -0.495   0.804  0.00  0.00    +0.140 HD
ATOM     23  H   UNL     1       4.393  -1.646  -0.381  0.00  0.00    +0.140 HD
ENDBRANCH  19  21
ENDBRANCH   6  19
TORSDOF 5
