REMARK  Name = ZINC11970613
REMARK  8 active torsions:
REMARK  status: ('A' for Active; 'I' for Inactive)
REMARK    1  A    between atoms: C_1  and  C_2
REMARK    2  A    between atoms: C_14  and  C_15
REMARK    3  A    between atoms: C_14  and  N_45
REMARK    4  A    between atoms: N_17  and  C_18
REMARK    5  A    between atoms: C_18  and  C_19
REMARK    6  A    between atoms: C_18  and  C_20
REMARK    7  A    between atoms: C_18  and  C_21
REMARK    8  A    between atoms: C_21  and  O_22
REMARK                            x       y       z     vdW  Elec       q    Type
REMARK                         _______ _______ _______ _____ _____    ______ ____
ROOT
ATOM      1  C   UNL     1      -0.716   1.573   1.276  0.00  0.00    +0.050 C 
ATOM      2  C   UNL     1      -0.013   1.086   0.008  0.00  0.00    +0.154 C 
ATOM      3  C   UNL     1      -0.773   1.580  -1.204  0.00  0.00    -0.033 C 
ATOM      4  C   UNL     1       1.067   1.603  -2.798  0.00  0.00    -0.038 C 
ATOM      5  C   UNL     1       2.122   0.773  -2.093  0.00  0.00    -0.021 A 
ATOM      6  C   UNL     1       2.993  -0.009  -2.825  0.00  0.00    +0.025 A 
ATOM      7  C   UNL     1       3.985  -0.723  -2.174  0.00  0.00    +0.041 A 
ATOM      8  C   UNL     1       4.100  -0.653  -0.797  0.00  0.00    +0.023 A 
ATOM      9  C   UNL     1       3.220   0.120  -0.064  0.00  0.00    +0.047 A 
ATOM     10  C   UNL     1       2.220   0.829  -0.716  0.00  0.00    +0.122 A 
ATOM     11  O   UNL     1       1.334   1.576  -0.002  0.00  0.00    -0.491 OA
ATOM     12 CL   UNL     1       5.085  -1.707  -3.087  0.00  0.00    -0.084 Cl
ATOM     13  N   UNL     1      -0.259   1.025  -2.473  0.00  0.00    +0.391 N 
ATOM     14  H   UNL     1      -0.158   0.008  -2.371  0.00  0.00    -0.081 HD
ENDROOT
BRANCH  13  15
ATOM     15  C   UNL     1      -1.209   1.302  -3.562  0.00  0.00    +0.019 C 
BRANCH  15  16
ATOM     16  C   UNL     1      -0.791   0.510  -4.774  0.00  0.00    +0.197 C 
ATOM     17  O   UNL     1       0.202  -0.185  -4.731  0.00  0.00    -0.278 OA
ATOM     18  N   UNL     1      -1.521   0.573  -5.905  0.00  0.00    -0.310 N 
ATOM     19  H   UNL     1      -2.315   1.128  -5.939  0.00  0.00    +0.149 HD
BRANCH  18  20
ATOM     20  C   UNL     1      -1.115  -0.198  -7.083  0.00  0.00    +0.052 C 
ATOM     21  C   UNL     1       0.285   0.240  -7.521  0.00  0.00    +0.033 C 
ATOM     22  C   UNL     1      -1.097  -1.688  -6.736  0.00  0.00    +0.033 C 
BRANCH  20  23
ATOM     23  C   UNL     1      -2.106   0.050  -8.221  0.00  0.00    +0.181 C 
BRANCH  23  24
ATOM     24  O   UNL     1      -1.710  -0.702  -9.370  0.00  0.00    -0.393 OA
ATOM     25  H   UNL     1      -2.295  -0.592 -10.132  0.00  0.00    +0.209 HD
ENDBRANCH  23  24
ENDBRANCH  20  23
ENDBRANCH  18  20
ENDBRANCH  15  16
ENDBRANCH  13  15
TORSDOF 5
