REMARK  Name = ZINC20465110
REMARK  7 active torsions:
REMARK  status: ('A' for Active; 'I' for Inactive)
REMARK    1  A    between atoms: C_1  and  N_2
REMARK    2  A    between atoms: N_5  and  C_8
REMARK    3  A    between atoms: C_10  and  C_20
REMARK    4  A    between atoms: C_13  and  C_18
REMARK    5  A    between atoms: C_15  and  O_17
REMARK    6  A    between atoms: C_18  and  O_19
REMARK    7  A    between atoms: C_20  and  N_21
REMARK                            x       y       z     vdW  Elec       q    Type
REMARK                         _______ _______ _______ _____ _____    ______ ____
ROOT
ATOM      1  C   UNL     1       1.025   2.818   0.228  0.00  0.00    +0.118 C 
ATOM      2  C   UNL     1       1.466   3.708   1.406  0.00  0.00    +0.155 C 
ATOM      3  O   UNL     1       1.828   2.835   2.489  0.00  0.00    -0.365 OA
ATOM      4  C   UNL     1       2.241   1.583   1.901  0.00  0.00    +0.174 C 
ATOM      5  C   UNL     1       1.228   1.373   0.747  0.00  0.00    +0.165 C 
ENDROOT
BRANCH   1  10
ATOM      6  C   UNL     1      -4.034   3.589  -2.163  0.00  0.00    -0.096 C 
ATOM      7  N   UNL     1      -2.621   3.353  -1.837  0.00  0.00    +0.379 N 
ATOM      8  C   UNL     1      -2.034   4.519  -1.163  0.00  0.00    -0.064 C 
ATOM      9  C   UNL     1      -0.545   4.265  -0.913  0.00  0.00    +0.066 C 
ATOM     10  N   UNL     1      -0.388   3.054  -0.097  0.00  0.00    -0.298 NA
ATOM     11  C   UNL     1      -0.975   1.887  -0.772  0.00  0.00    +0.066 C 
ATOM     12  C   UNL     1      -2.463   2.142  -1.021  0.00  0.00    -0.064 C 
ATOM     13  H   UNL     1      -2.079   3.199  -2.782  0.00  0.00    -0.082 HD
ENDBRANCH   1  10
BRANCH   5  14
ATOM     14  O   UNL     1       0.001   0.831   1.238  0.00  0.00    -0.388 OA
ATOM     15  H   UNL     1      -0.026  -0.191   1.644  0.00  0.00    +0.210 HD
ENDBRANCH   5  14
BRANCH   4  16
ATOM     16  C   UNL     1       2.136   0.448   2.922  0.00  0.00    +0.190 C 
BRANCH  16  17
ATOM     17  O   UNL     1       3.156   0.601   3.912  0.00  0.00    -0.392 OA
ATOM     18  H   UNL     1       3.239  -0.125   4.733  0.00  0.00    +0.210 HD
ENDBRANCH  16  17
ENDBRANCH   4  16
BRANCH   2  19
ATOM     19  C   UNL     1       0.312   4.616   1.833  0.00  0.00    +0.139 C 
BRANCH  19  20
ATOM     20  N   UNL     1       0.691   5.354   3.040  0.00  0.00    -0.297 N 
ATOM     21  C   UNL     1      -0.175   6.221   3.601  0.00  0.00    +0.302 C 
ATOM     22  O   UNL     1      -1.304   6.324   3.159  0.00  0.00    -0.253 OA
ATOM     23  N   UNL     1       0.208   6.973   4.651  0.00  0.00    -0.281 N 
ATOM     24  C   UNL     1      -0.678   8.009   5.205  0.00  0.00    +0.137 C 
ATOM     25  C   UNL     1      -0.769   7.800   6.725  0.00  0.00    +0.179 C 
ATOM     26  O   UNL     1       0.551   7.737   7.270  0.00  0.00    -0.377 OA
ATOM     27  C   UNL     1       1.331   6.640   6.788  0.00  0.00    +0.179 C 
ATOM     28  C   UNL     1       1.528   6.786   5.275  0.00  0.00    +0.137 C 
ATOM     29  H   UNL     1       1.684   5.201   3.489  0.00  0.00    +0.150 HD
ENDBRANCH  19  20
ENDBRANCH   2  19
TORSDOF 6
