REMARK  Name = ZINC05957224
REMARK  4 active torsions:
REMARK  status: ('A' for Active; 'I' for Inactive)
REMARK    1  A    between atoms: C_11  and  C_21
REMARK    2  A    between atoms: C_23  and  O_29
REMARK    3  A    between atoms: C_24  and  O_28
REMARK    4  A    between atoms: C_25  and  O_27
REMARK                            x       y       z     vdW  Elec       q    Type
REMARK                         _______ _______ _______ _____ _____    ______ ____
ROOT
ATOM      1  C   UNL     1      -0.255   1.188   0.439  0.00  0.00    +0.001 A 
ATOM      2  C   UNL     1       1.066   0.779   0.519  0.00  0.00    +0.002 A 
ATOM      3  C   UNL     1       2.121   1.674   0.467  0.00  0.00    +0.026 A 
ATOM      4  C   UNL     1       1.798   3.023   0.336  0.00  0.00    +0.047 A 
ATOM      5  C   UNL     1       0.443   3.436   0.260  0.00  0.00    +0.003 A 
ATOM      6  C   UNL     1      -0.603   2.510   0.315  0.00  0.00    +0.010 A 
ATOM      7  C   UNL     1       0.469   4.881   0.128  0.00  0.00    -0.015 A 
ATOM      8  C   UNL     1       1.767   5.249   0.130  0.00  0.00    +0.046 A 
ATOM      9  N   UNL     1       2.569   4.146   0.257  0.00  0.00    -0.356 N 
ATOM     10  H   UNL     1       3.539   4.161   0.287  0.00  0.00    +0.166 HD
ATOM     11  C   UNL     1       2.234   6.685   0.004  0.00  0.00    +0.157 C 
ATOM     12  N   UNL     1       1.026   7.523   0.085  0.00  0.00    -0.248 N 
ATOM     13  C   UNL     1      -0.247   7.151  -0.570  0.00  0.00    +0.122 C 
ATOM     14  C   UNL     1      -0.711   5.813   0.018  0.00  0.00    +0.063 C 
ATOM     15  C   UNL     1      -1.226   8.263  -0.150  0.00  0.00    +0.256 C 
ATOM     16  O   UNL     1      -0.415   9.167   0.656  0.00  0.00    -0.448 OA
ATOM     17  C   UNL     1       0.835   8.693   0.739  0.00  0.00    +0.404 C 
ATOM     18  O   UNL     1       1.723   9.264   1.340  0.00  0.00    -0.226 OA
ENDROOT
BRANCH  11  19
ATOM     19  C   UNL     1       2.919   6.892  -1.323  0.00  0.00    -0.014 A 
ATOM     20  C   UNL     1       2.204   6.748  -2.497  0.00  0.00    +0.055 A 
ATOM     21  C   UNL     1       2.829   6.943  -3.720  0.00  0.00    +0.162 A 
ATOM     22  C   UNL     1       4.179   7.272  -3.763  0.00  0.00    +0.201 A 
ATOM     23  C   UNL     1       4.895   7.410  -2.580  0.00  0.00    +0.162 A 
ATOM     24  C   UNL     1       4.261   7.219  -1.362  0.00  0.00    +0.055 A 
BRANCH  23  25
ATOM     25  O   UNL     1       6.216   7.732  -2.618  0.00  0.00    -0.503 OA
ATOM     26  H   UNL     1       6.806   6.967  -2.655  0.00  0.00    +0.292 HD
ENDBRANCH  23  25
BRANCH  22  27
ATOM     27  O   UNL     1       4.797   7.460  -4.961  0.00  0.00    -0.501 OA
ATOM     28  H   UNL     1       5.184   6.656  -5.334  0.00  0.00    +0.292 HD
ENDBRANCH  22  27
BRANCH  21  29
ATOM     29  O   UNL     1       2.124   6.806  -4.874  0.00  0.00    -0.503 OA
ATOM     30  H   UNL     1       2.128   5.909  -5.234  0.00  0.00    +0.292 HD
ENDBRANCH  21  29
ENDBRANCH  11  19
TORSDOF 4
