REMARK  Name = ZINC21379961
REMARK  5 active torsions:
REMARK  status: ('A' for Active; 'I' for Inactive)
REMARK    1  A    between atoms: C_1  and  C_2
REMARK    2  A    between atoms: C_2  and  C_4
REMARK    3  A    between atoms: C_2  and  N_15
REMARK    4  A    between atoms: N_6  and  C_7
REMARK    5  A    between atoms: C_8  and  C_12
REMARK                            x       y       z     vdW  Elec       q    Type
REMARK                         _______ _______ _______ _____ _____    ______ ____
ROOT
ATOM      1  C   UNL     1      -0.729   1.579   1.267  0.00  0.00    -0.004 C 
ATOM      2  C   UNL     1      -0.013   1.086   0.008  0.00  0.00    +0.017 C 
ENDROOT
BRANCH   2   3
ATOM      3  N   UNL     1      -0.723   1.572  -1.182  0.00  0.00    +0.389 N 
ATOM      4  C   UNL     1      -0.788   3.041  -1.193  0.00  0.00    -0.059 C 
ATOM      5  C   UNL     1      -1.463   3.509  -2.484  0.00  0.00    +0.088 C 
ATOM      6  N   UNL     1      -2.809   2.925  -2.570  0.00  0.00    -0.313 N 
ATOM      7  C   UNL     1      -2.744   1.457  -2.559  0.00  0.00    +0.088 C 
ATOM      8  C   UNL     1      -2.069   0.988  -1.268  0.00  0.00    -0.059 C 
ATOM      9  C   UNL     1      -3.479   3.384  -3.693  0.00  0.00    +0.160 A 
ATOM     10  N   UNL     1      -4.018   2.691  -4.678  0.00  0.00    -0.233 NA
ATOM     11  C   UNL     1      -4.630   3.292  -5.681  0.00  0.00    +0.120 A 
ATOM     12  C   UNL     1      -4.686   4.646  -5.685  0.00  0.00    +0.068 A 
ATOM     13  S   UNL     1      -3.820   5.019  -4.168  0.00  0.00    -0.061 S 
ATOM     14  H   UNL     1      -0.156   1.250  -2.068  0.00  0.00    -0.081 HD
ENDBRANCH   2   3
BRANCH   2  15
ATOM     15  C   UNL     1       1.401   1.607  -0.003  0.00  0.00    +0.204 C 
ATOM     16  O   UNL     1       1.780   2.315  -0.912  0.00  0.00    -0.277 OA
ATOM     17  N   UNL     1       2.245   1.288   0.998  0.00  0.00    -0.281 N 
ATOM     18  H   UNL     1       1.902   0.646   1.823  0.00  0.00    +0.155 HD
BRANCH  17  19
ATOM     19  C   UNL     1       3.546   1.768   0.989  0.00  0.00    +0.084 A 
ATOM     20  C   UNL     1       4.552   1.555   1.924  0.00  0.00    +0.065 A 
ATOM     21  C   UNL     1       5.826   2.179   1.660  0.00  0.00    +0.022 A 
ATOM     22  C   UNL     1       5.928   2.917   0.540  0.00  0.00    +0.048 A 
ATOM     23  S   UNL     1       4.309   2.783  -0.188  0.00  0.00    -0.081 S 
BRANCH  20  24
ATOM     24  C   UNL     1       4.330   0.735   3.119  0.00  0.00    +0.244 C 
ATOM     25  O   UNL     1       3.244   0.220   3.311  0.00  0.00    -0.270 OA
ATOM     26  N   UNL     1       5.329   0.550   4.005  0.00  0.00    -0.325 N 
ATOM     27  H   UNL     1       5.162  -0.065   4.901  0.00  0.00    +0.145 HD
ATOM     28  H   UNL     1       6.310   1.016   3.831  0.00  0.00    +0.145 HD
ENDBRANCH  20  24
ENDBRANCH  17  19
ENDBRANCH   2  15
TORSDOF 4
