REMARK  Name = ZINC46171217
REMARK  5 active torsions:
REMARK  status: ('A' for Active; 'I' for Inactive)
REMARK    1  A    between atoms: C_4  and  N_7
REMARK    2  A    between atoms: N_7  and  C_8
REMARK    3  A    between atoms: C_14  and  C_16
REMARK    4  A    between atoms: C_16  and  N_17
REMARK    5  A    between atoms: C_21  and  C_23
REMARK                            x       y       z     vdW  Elec       q    Type
REMARK                         _______ _______ _______ _____ _____    ______ ____
ROOT
ATOM      1  N   UNL     1       3.021  -0.176  -2.530  0.00  0.00    -0.297 N 
ATOM      2  C   UNL     1       2.451   0.031  -3.734  0.00  0.00    +0.200 C 
ATOM      3  O   UNL     1       3.023  -0.321  -4.744  0.00  0.00    -0.278 OA
ENDROOT
BRANCH   1   7
ATOM      4  C   UNL     1       2.076   0.161   1.617  0.00  0.00    +0.000 C 
ATOM      5  C   UNL     1       1.248  -0.800   0.762  0.00  0.00    +0.002 C 
ATOM      6  C   UNL     1       2.018  -1.137  -0.517  0.00  0.00    +0.022 C 
ATOM      7  C   UNL     1       2.284   0.146  -1.306  0.00  0.00    +0.076 C 
ATOM      8  C   UNL     1       3.111   1.108  -0.451  0.00  0.00    +0.022 C 
ATOM      9  C   UNL     1       2.341   1.445   0.828  0.00  0.00    +0.002 C 
ENDBRANCH   1   7
BRANCH   1  10
ATOM     10  C   UNL     1       4.377  -0.724  -2.446  0.00  0.00    +0.076 C 
ATOM     11  C   UNL     1       5.351   0.216  -3.159  0.00  0.00    +0.022 C 
ATOM     12  C   UNL     1       6.768  -0.356  -3.071  0.00  0.00    +0.002 C 
ATOM     13  C   UNL     1       6.805  -1.732  -3.739  0.00  0.00    +0.000 C 
ATOM     14  C   UNL     1       5.830  -2.671  -3.026  0.00  0.00    +0.002 C 
ATOM     15  C   UNL     1       4.414  -2.100  -3.114  0.00  0.00    +0.022 C 
ENDBRANCH   1  10
BRANCH   2  16
ATOM     16  C   UNL     1       1.103   0.699  -3.825  0.00  0.00    +0.020 C 
BRANCH  16  17
ATOM     17  N   UNL     1       0.646   0.691  -5.221  0.00  0.00    +0.393 N 
ATOM     18  C   UNL     1       0.349  -0.696  -5.639  0.00  0.00    -0.077 C 
ATOM     19  C   UNL     1      -0.878  -0.572  -6.577  0.00  0.00    -0.020 C 
ATOM     20  C   UNL     1      -1.687   0.558  -5.888  0.00  0.00    -0.008 C 
ATOM     21  C   UNL     1      -0.586   1.492  -5.344  0.00  0.00    +0.020 C 
ATOM     22  H   UNL     1       1.363   1.076  -5.816  0.00  0.00    -0.080 HD
BRANCH  21  23
ATOM     23  C   UNL     1      -0.987   2.026  -3.993  0.00  0.00    +0.197 C 
ATOM     24  O   UNL     1      -1.171   1.263  -3.069  0.00  0.00    -0.278 OA
ATOM     25  N   UNL     1      -1.142   3.353  -3.812  0.00  0.00    -0.331 N 
ATOM     26  H   UNL     1      -0.995   3.964  -4.551  0.00  0.00    +0.145 HD
ATOM     27  H   UNL     1      -1.401   3.697  -2.943  0.00  0.00    +0.145 HD
ENDBRANCH  21  23
ENDBRANCH  16  17
ENDBRANCH   2  16
TORSDOF 5
