REMARK  Name = ZINC13040788
REMARK  5 active torsions:
REMARK  status: ('A' for Active; 'I' for Inactive)
REMARK    1  A    between atoms: C_4  and  S_8
REMARK    2  A    between atoms: S_8  and  N_11
REMARK    3  A    between atoms: N_11  and  C_12
REMARK    4  A    between atoms: C_15  and  S_18
REMARK    5  A    between atoms: S_18  and  N_21
REMARK                            x       y       z     vdW  Elec       q    Type
REMARK                         _______ _______ _______ _____ _____    ______ ____
ROOT
ATOM      1  C   UNL     1       5.573  -1.745   1.828  0.00  0.00    +0.074 A 
ATOM      2  C   UNL     1       6.391  -2.196   0.800  0.00  0.00    +0.028 A 
ATOM      3  C   UNL     1       7.569  -2.853   1.093  0.00  0.00    +0.031 A 
ATOM      4  C   UNL     1       7.935  -3.064   2.410  0.00  0.00    +0.113 A 
ATOM      5  C   UNL     1       7.124  -2.617   3.437  0.00  0.00    +0.031 A 
ATOM      6  C   UNL     1       5.947  -1.953   3.150  0.00  0.00    +0.028 A 
ENDROOT
BRANCH   4   7
ATOM      7  S   UNL     1       9.439  -3.905   2.781  0.00  0.00    +0.100 S 
ATOM      8  O   UNL     1       9.286  -4.456   4.081  0.00  0.00    -0.146 OA
ATOM      9  O   UNL     1       9.748  -4.702   1.646  0.00  0.00    -0.146 OA
BRANCH   7  10
ATOM     10  N   UNL     1      10.627  -2.757   2.890  0.00  0.00    -0.118 NA
ATOM     11  C   UNL     1      11.843  -3.108   3.157  0.00  0.00    +0.117 C 
ATOM     12  C   UNL     1      12.186  -4.581   3.364  0.00  0.00    +0.073 C 
ATOM     13  C   UNL     1      13.024  -5.018   2.183  0.00  0.00    +0.008 C 
ATOM     14  C   UNL     1      14.524  -4.787   2.381  0.00  0.00    +0.002 C 
ATOM     15  C   UNL     1      14.843  -3.432   3.012  0.00  0.00    +0.019 C 
ATOM     16  C   UNL     1      14.024  -2.297   2.436  0.00  0.00    +0.102 C 
ATOM     17  N   UNL     1      12.790  -2.196   3.244  0.00  0.00    -0.331 N 
ATOM     18  H   UNL     1      12.679  -1.446   3.849  0.00  0.00    +0.147 HD
ENDBRANCH   7  10
ENDBRANCH   4   7
BRANCH   1  19
ATOM     19  N   UNL     1       4.381  -1.079   1.535  0.00  0.00    -0.098 NA
BRANCH  19  20
ATOM     20  S   UNL     1       3.937  -0.832  -0.042  0.00  0.00    +0.097 S 
ATOM     21  O   UNL     1       3.679  -2.114  -0.597  0.00  0.00    -0.148 OA
ATOM     22  O   UNL     1       4.894   0.060  -0.597  0.00  0.00    -0.148 OA
BRANCH  20  26
ATOM     23  C   UNL     1      -0.017   1.378   0.010  0.00  0.00    +0.006 A 
ATOM     24  C   UNL     1       1.170   2.086   0.002  0.00  0.00    +0.040 A 
ATOM     25  C   UNL     1       2.379   1.412  -0.013  0.00  0.00    +0.153 A 
ATOM     26  C   UNL     1       2.399   0.028  -0.021  0.00  0.00    +0.180 A 
ATOM     27  C   UNL     1       1.210  -0.681  -0.013  0.00  0.00    +0.153 A 
ATOM     28  C   UNL     1       0.002  -0.004   0.002  0.00  0.00    +0.040 A 
ATOM     29  F   UNL     1       1.228  -2.031  -0.020  0.00  0.00    -0.203 F 
ATOM     30  F   UNL     1       3.539   2.104  -0.022  0.00  0.00    -0.203 F 
ENDBRANCH  20  26
ENDBRANCH  19  20
ENDBRANCH   1  19
TORSDOF 5
