REMARK  Name = ZINC13045418
REMARK  9 active torsions:
REMARK  status: ('A' for Active; 'I' for Inactive)
REMARK    1  A    between atoms: C_1  and  C_2
REMARK    2  A    between atoms: C_5  and  N_9
REMARK    3  A    between atoms: C_10  and  C_12
REMARK    4  A    between atoms: C_12  and  S_13
REMARK    5  A    between atoms: S_13  and  C_14
REMARK    6  A    between atoms: C_18  and  C_28
REMARK    7  A    between atoms: N_24  and  C_25
REMARK    8  A    between atoms: C_25  and  C_26
REMARK    9  A    between atoms: C_26  and  O_27
REMARK                            x       y       z     vdW  Elec       q    Type
REMARK                         _______ _______ _______ _____ _____    ______ ____
ROOT
ATOM      1  C   UNL     1      -0.364   2.768   1.750  0.00  0.00    +0.173 A 
ATOM      2  N   UNL     1      -0.938   3.256   2.822  0.00  0.00    -0.223 NA
ATOM      3  C   UNL     1      -1.936   2.594   3.454  0.00  0.00    +0.080 A 
ATOM      4  C   UNL     1      -2.544   3.114   4.601  0.00  0.00    +0.043 A 
ATOM      5  C   UNL     1      -3.564   2.400   5.216  0.00  0.00    +0.065 A 
ATOM      6  C   UNL     1      -3.985   1.169   4.694  0.00  0.00    +0.016 A 
ATOM      7  C   UNL     1      -3.398   0.652   3.575  0.00  0.00    +0.016 A 
ATOM      8  C   UNL     1      -2.372   1.352   2.942  0.00  0.00    +0.065 A 
ATOM      9  C   UNL     1      -1.713   0.831   1.734  0.00  0.00    +0.262 A 
ATOM     10  O   UNL     1      -2.042  -0.233   1.244  0.00  0.00    -0.267 OA
ATOM     11  N   UNL     1      -0.727   1.579   1.186  0.00  0.00    -0.285 N 
ENDROOT
BRANCH   5  12
ATOM     12  C   UNL     1      -4.213   2.943   6.430  0.00  0.00    +0.387 C 
ATOM     13  O   UNL     1      -3.852   4.009   6.885  0.00  0.00    -0.241 OA
ATOM     14  O   UNL     1      -5.203   2.255   7.030  0.00  0.00    -0.241 OA
ENDBRANCH   5  12
BRANCH   1  15
ATOM     15  S   UNL     1       0.932   3.694   0.997  0.00  0.00    -0.078 S 
BRANCH  15  16
ATOM     16  C   UNL     1       0.991   5.118   2.113  0.00  0.00    +0.173 C 
BRANCH  16  18
ATOM     17  N   UNL     1       2.286   7.214   2.335  0.00  0.00    -0.284 N 
ATOM     18  C   UNL     1       2.061   6.074   1.651  0.00  0.00    +0.228 C 
ATOM     19  O   UNL     1       2.718   5.818   0.665  0.00  0.00    -0.275 OA
ATOM     20  H   UNL     1       1.718   7.450   3.084  0.00  0.00    +0.155 HD
BRANCH  17  25
ATOM     21  C   UNL     1       6.559  10.628   0.825  0.00  0.00    +0.044 C 
ATOM     22  C   UNL     1       5.425   9.721   1.227  0.00  0.00    -0.049 A 
ATOM     23  C   UNL     1       4.725   9.022   0.260  0.00  0.00    +0.005 A 
ATOM     24  C   UNL     1       3.685   8.190   0.624  0.00  0.00    +0.024 A 
ATOM     25  C   UNL     1       3.340   8.056   1.963  0.00  0.00    +0.047 A 
ATOM     26  C   UNL     1       4.041   8.764   2.931  0.00  0.00    +0.039 A 
ATOM     27  C   UNL     1       5.085   9.591   2.561  0.00  0.00    +0.020 A 
ATOM     28 BR   UNL     1       3.572   8.591   4.755  0.00  0.00    -0.048 Br
ENDBRANCH  17  25
ENDBRANCH  16  18
ENDBRANCH  15  16
ENDBRANCH   1  15
BRANCH  11  29
ATOM     29  C   UNL     1      -0.038   1.105  -0.017  0.00  0.00    +0.155 C 
BRANCH  29  30
ATOM     30  C   UNL     1      -0.770   1.619  -1.259  0.00  0.00    +0.177 C 
BRANCH  30  31
ATOM     31  O   UNL     1      -0.680   3.045  -1.308  0.00  0.00    -0.393 OA
ATOM     32  H   UNL     1      -1.123   3.440  -2.071  0.00  0.00    +0.209 HD
ENDBRANCH  30  31
ENDBRANCH  29  30
ENDBRANCH  11  29
TORSDOF 8
