REMARK  Name = ZINC08027493
REMARK  6 active torsions:
REMARK  status: ('A' for Active; 'I' for Inactive)
REMARK    1  A    between atoms: C_1  and  C_2
REMARK    2  A    between atoms: C_5  and  S_8
REMARK    3  A    between atoms: S_8  and  C_9
REMARK    4  A    between atoms: C_9  and  C_10
REMARK    5  A    between atoms: N_12  and  N_13
REMARK    6  A    between atoms: C_14  and  C_16
REMARK                            x       y       z     vdW  Elec       q    Type
REMARK                         _______ _______ _______ _____ _____    ______ ____
ROOT
ATOM      1  N   UNL     1       0.129  -8.443   3.219  0.00  0.00    -0.229 N 
ATOM      2  C   UNL     1       0.142  -9.009   4.442  0.00  0.00    +0.276 C 
ATOM      3  O   UNL     1       0.139  -8.309   5.437  0.00  0.00    -0.267 OA
ATOM      4  H   UNL     1       0.132  -9.002   2.426  0.00  0.00    +0.173 HD
ENDROOT
BRANCH   2   5
ATOM      5  C   UNL     1       0.162 -10.474   4.574  0.00  0.00    +0.104 A 
ATOM      6  C   UNL     1       0.171 -11.159   5.748  0.00  0.00    +0.041 A 
ATOM      7  C   UNL     1       0.189 -12.541   5.440  0.00  0.00    +0.000 A 
ATOM      8  C   UNL     1       0.205 -13.701   6.225  0.00  0.00    +0.010 A 
ATOM      9  C   UNL     1       0.221 -14.926   5.625  0.00  0.00    +0.001 A 
ATOM     10  C   UNL     1       0.223 -15.036   4.240  0.00  0.00    +0.002 A 
ATOM     11  C   UNL     1       0.208 -13.911   3.447  0.00  0.00    +0.026 A 
ATOM     12  C   UNL     1       0.191 -12.649   4.036  0.00  0.00    +0.047 A 
ATOM     13  N   UNL     1       0.168 -11.373   3.525  0.00  0.00    -0.351 N 
ATOM     14  H   UNL     1       0.161 -11.141   2.583  0.00  0.00    +0.166 HD
ENDBRANCH   2   5
BRANCH   1  17
ATOM     15  C   UNL     1       0.097  -6.482   1.870  0.00  0.00    +0.239 C 
ATOM     16  O   UNL     1       0.101  -7.180   0.879  0.00  0.00    -0.273 OA
ATOM     17  N   UNL     1       0.110  -7.048   3.093  0.00  0.00    -0.233 N 
ATOM     18  H   UNL     1       0.107  -6.489   3.886  0.00  0.00    +0.173 HD
BRANCH  15  19
ATOM     19  C   UNL     1       0.077  -4.981   1.735  0.00  0.00    +0.171 C 
BRANCH  19  20
ATOM     20  S   UNL     1       0.062  -4.533  -0.023  0.00  0.00    -0.116 S 
BRANCH  20  25
ATOM     21  C   UNL     1      -0.018   1.503   0.010  0.00  0.00    +0.044 C 
ATOM     22  C   UNL     1       0.002  -0.004   0.002  0.00  0.00    -0.050 A 
ATOM     23  C   UNL     1       0.006  -0.687  -1.200  0.00  0.00    +0.004 A 
ATOM     24  C   UNL     1       0.024  -2.068  -1.212  0.00  0.00    +0.015 A 
ATOM     25  C   UNL     1       0.039  -2.771  -0.013  0.00  0.00    +0.008 A 
ATOM     26  C   UNL     1       0.036  -2.081   1.193  0.00  0.00    +0.015 A 
ATOM     27  C   UNL     1       0.023  -0.700   1.197  0.00  0.00    +0.004 A 
ENDBRANCH  20  25
ENDBRANCH  19  20
ENDBRANCH  15  19
ENDBRANCH   1  17
TORSDOF 5
