REMARK  Name = ZINC06850654
REMARK  4 active torsions:
REMARK  status: ('A' for Active; 'I' for Inactive)
REMARK    1  A    between atoms: C_3  and  O_10
REMARK    2  A    between atoms: C_6  and  N_7
REMARK    3  A    between atoms: O_10  and  C_11
REMARK    4  A    between atoms: C_16  and  N_17
REMARK                            x       y       z     vdW  Elec       q    Type
REMARK                         _______ _______ _______ _____ _____    ______ ____
ROOT
ATOM      1  O   UNL     1       2.321   3.880   0.001  0.00  0.00    -0.454 OA
ENDROOT
BRANCH   1   2
ATOM      2  C   UNL     1       1.156   3.178  -0.006  0.00  0.00    +0.149 A 
ATOM      3  C   UNL     1       0.601   2.745   1.187  0.00  0.00    +0.049 A 
ATOM      4  C   UNL     1      -0.583   2.031   1.179  0.00  0.00    +0.024 A 
ATOM      5  C   UNL     1      -1.220   1.751  -0.017  0.00  0.00    +0.043 A 
ATOM      6  C   UNL     1      -0.668   2.176  -1.212  0.00  0.00    +0.046 A 
ATOM      7  C   UNL     1       0.519   2.893  -1.212  0.00  0.00    +0.069 A 
ATOM      8 CL   UNL     1      -2.709   0.861  -0.019  0.00  0.00    -0.083 Cl
BRANCH   7   9
ATOM      9  N   UNL     1       1.077   3.329  -2.419  0.00  0.00    -0.355 N 
ATOM     10  H   UNL     1       0.633   3.129  -3.258  0.00  0.00    +0.142 HD
ATOM     11  H   UNL     1       1.907   3.830  -2.417  0.00  0.00    +0.142 HD
ENDBRANCH   7   9
ENDBRANCH   1   2
BRANCH   1  14
ATOM     12  C   UNL     1       3.338   7.360  -0.310  0.00  0.00    +0.036 A 
ATOM     13  C   UNL     1       3.412   5.984  -0.212  0.00  0.00    +0.048 A 
ATOM     14  C   UNL     1       2.251   5.234  -0.096  0.00  0.00    +0.129 A 
ATOM     15  C   UNL     1       1.016   5.868  -0.086  0.00  0.00    +0.048 A 
ATOM     16  C   UNL     1       0.948   7.245  -0.179  0.00  0.00    +0.036 A 
ATOM     17  C   UNL     1       2.107   7.989  -0.294  0.00  0.00    +0.126 A 
BRANCH  17  18
ATOM     18  N   UNL     1       2.030   9.464  -0.399  0.00  0.00    +0.056 N 
ATOM     19  O   UNL     1       3.051  10.121  -0.500  0.00  0.00    -0.126 OA
ATOM     20  O   UNL     1       0.947  10.020  -0.385  0.00  0.00    -0.126 OA
ENDBRANCH  17  18
ENDBRANCH   1  14
TORSDOF 4
