REMARK  Name = ZINC48918345
REMARK  6 active torsions:
REMARK  status: ('A' for Active; 'I' for Inactive)
REMARK    1  A    between atoms: C_1  and  C_2
REMARK    2  A    between atoms: C_7  and  N_8
REMARK    3  A    between atoms: C_9  and  C_11
REMARK    4  A    between atoms: N_13  and  C_14
REMARK    5  A    between atoms: C_14  and  C_15
REMARK    6  A    between atoms: C_15  and  N_16
REMARK                            x       y       z     vdW  Elec       q    Type
REMARK                         _______ _______ _______ _____ _____    ______ ____
ROOT
ATOM      1  N   UNL     1       0.025  -0.016   2.416  0.00  0.00    -0.278 N 
ATOM      2  C   UNL     1      -0.057  -0.695   3.577  0.00  0.00    +0.303 C 
ATOM      3  O   UNL     1      -0.040  -1.909   3.572  0.00  0.00    -0.265 OA
ATOM      4  H   UNL     1       0.077   0.953   2.424  0.00  0.00    +0.155 HD
ENDROOT
BRANCH   1  11
ATOM      5  C   UNL     1      -1.266   1.183   0.181  0.00  0.00    +0.046 C 
ATOM      6  C   UNL     1      -0.585  -0.158   0.084  0.00  0.00    -0.028 A 
ATOM      7  C   UNL     1      -0.570  -0.841  -1.116  0.00  0.00    +0.020 A 
ATOM      8  C   UNL     1       0.055  -2.072  -1.206  0.00  0.00    +0.018 A 
ATOM      9  C   UNL     1       0.667  -2.623  -0.094  0.00  0.00    +0.017 A 
ATOM     10  C   UNL     1       0.656  -1.945   1.109  0.00  0.00    +0.024 A 
ATOM     11  C   UNL     1       0.033  -0.706   1.201  0.00  0.00    +0.037 A 
ATOM     12 BR   UNL     1       0.073  -3.003  -2.852  0.00  0.00    -0.050 Br
ENDBRANCH   1  11
BRANCH   2  13
ATOM     13  C   UNL     1      -0.168   0.045   4.869  0.00  0.00    +0.299 C 
ATOM     14  O   UNL     1      -0.184   1.258   4.874  0.00  0.00    -0.265 OA
ATOM     15  N   UNL     1      -0.249  -0.635   6.030  0.00  0.00    -0.306 N 
ATOM     16  H   UNL     1      -0.236  -1.605   6.027  0.00  0.00    +0.149 HD
BRANCH  15  17
ATOM     17  C   UNL     1      -0.358   0.091   7.298  0.00  0.00    +0.126 C 
BRANCH  17  18
ATOM     18  C   UNL     1      -0.435  -0.909   8.454  0.00  0.00    +0.141 C 
BRANCH  18  19
ATOM     19  N   UNL     1      -0.543  -0.182   9.721  0.00  0.00    -0.337 N 
ATOM     20  C   UNL     1       0.495   0.240  10.507  0.00  0.00    +0.104 A 
ATOM     21  C   UNL     1      -0.049   0.862  11.571  0.00  0.00    +0.101 A 
ATOM     22  N   UNL     1      -1.383   0.819  11.438  0.00  0.00    -0.352 N 
ATOM     23  C   UNL     1      -1.687   0.200  10.330  0.00  0.00    +0.173 A 
ATOM     24  H   UNL     1      -2.022   1.194  12.065  0.00  0.00    +0.166 HD
ENDBRANCH  18  19
ENDBRANCH  17  18
ENDBRANCH  15  17
ENDBRANCH   2  13
TORSDOF 5
