REMARK  Name = ZINC55297289
REMARK  8 active torsions:
REMARK  status: ('A' for Active; 'I' for Inactive)
REMARK    1  A    between atoms: C_1  and  C_2
REMARK    2  A    between atoms: C_2  and  C_3
REMARK    3  A    between atoms: C_3  and  C_5
REMARK    4  A    between atoms: C_3  and  N_10
REMARK    5  A    between atoms: N_10  and  S_11
REMARK    6  A    between atoms: S_11  and  C_14
REMARK    7  A    between atoms: N_16  and  C_23
REMARK    8  A    between atoms: N_19  and  C_22
REMARK                            x       y       z     vdW  Elec       q    Type
REMARK                         _______ _______ _______ _____ _____    ______ ____
ROOT
ATOM      1  S   UNL     1       0.213   1.244  -3.337  0.00  0.00    +0.066 S 
ATOM      2  O   UNL     1      -0.718   1.336  -4.407  0.00  0.00    -0.153 OA
ATOM      3  O   UNL     1       0.427   2.309  -2.420  0.00  0.00    -0.153 OA
ENDROOT
BRANCH   1   4
ATOM      4  C   UNL     1       1.778   0.881  -4.061  0.00  0.00    +0.186 A 
ATOM      5  C   UNL     1       2.904   1.444  -3.574  0.00  0.00    +0.124 A 
ATOM      6  N   UNL     1       4.111   1.151  -4.148  0.00  0.00    -0.301 N 
ATOM      7  C   UNL     1       4.186   0.306  -5.193  0.00  0.00    +0.332 A 
ATOM      8  O   UNL     1       5.269   0.060  -5.688  0.00  0.00    -0.246 OA
ATOM      9  N   UNL     1       3.079  -0.270  -5.697  0.00  0.00    -0.262 N 
ATOM     10  C   UNL     1       1.872  -0.011  -5.156  0.00  0.00    +0.283 A 
ATOM     11  O   UNL     1       0.870  -0.536  -5.609  0.00  0.00    -0.265 OA
ATOM     12  C   UNL     1       3.188  -1.186  -6.835  0.00  0.00    +0.157 C 
ATOM     13  C   UNL     1       5.333   1.762  -3.620  0.00  0.00    +0.153 C 
ENDBRANCH   1   4
BRANCH   1  14
ATOM     14  N   UNL     1      -0.229  -0.074  -2.438  0.00  0.00    -0.182 NA
ATOM     15  H   UNL     1      -1.008  -0.594  -2.690  0.00  0.00    +0.149 HD
BRANCH  14  16
ATOM     16  C   UNL     1       0.556  -0.454  -1.261  0.00  0.00    +0.113 C 
BRANCH  16  17
ATOM     17  C   UNL     1       1.209  -1.791  -1.503  0.00  0.00    +0.008 A 
ATOM     18  C   UNL     1       2.454  -2.207  -1.163  0.00  0.00    +0.013 A 
ATOM     19  C   UNL     1       2.843  -3.492  -1.490  0.00  0.00    +0.008 A 
ATOM     20  C   UNL     1       1.970  -4.298  -2.141  0.00  0.00    +0.045 A 
ATOM     21  S   UNL     1       0.542  -3.239  -2.305  0.00  0.00    -0.100 S 
ENDBRANCH  16  17
BRANCH  16  23
ATOM     22  C   UNL     1      -0.922   0.837   0.285  0.00  0.00    +0.006 C 
ATOM     23  C   UNL     1      -0.364  -0.550  -0.042  0.00  0.00    +0.022 C 
ENDBRANCH  16  23
ENDBRANCH  14  16
ENDBRANCH   1  14
TORSDOF 5
