REMARK  Name = ZINC39675680
REMARK  11 active torsions:
REMARK  status: ('A' for Active; 'I' for Inactive)
REMARK    1  A    between atoms: C_1  and  C_2
REMARK    2  A    between atoms: C_2  and  C_3
REMARK    3  A    between atoms: C_3  and  C_5
REMARK    4  A    between atoms: C_3  and  C_6
REMARK    5  A    between atoms: C_10  and  C_19
REMARK    6  A    between atoms: N_21  and  C_22
REMARK    7  A    between atoms: C_22  and  C_23
REMARK    8  A    between atoms: C_23  and  C_25
REMARK    9  A    between atoms: C_23  and  N_31
REMARK   10  A    between atoms: N_31  and  C_32
REMARK   11  A    between atoms: N_31  and  C_33
REMARK                            x       y       z     vdW  Elec       q    Type
REMARK                         _______ _______ _______ _____ _____    ______ ____
ROOT
ATOM      1  C   UNL     1       1.027  -2.270   1.741  0.00  0.00    +0.218 C 
ATOM      2  O   UNL     1       0.797  -2.978   0.784  0.00  0.00    -0.275 OA
ATOM      3  N   UNL     1       1.599  -2.791   2.844  0.00  0.00    -0.300 N 
ATOM      4  C   UNL     1       1.867  -2.114   4.135  0.00  0.00    +0.121 C 
ATOM      5  C   UNL     1       1.545  -3.178   5.208  0.00  0.00    +0.100 C 
ATOM      6  C   UNL     1       1.703  -4.526   4.484  0.00  0.00    -0.004 C 
ATOM      7  C   UNL     1       2.097  -4.174   3.042  0.00  0.00    +0.115 C 
ATOM      8  C   UNL     1       2.799  -5.355   5.145  0.00  0.00    -0.010 C 
ATOM      9  C   UNL     1       2.898  -6.713   4.445  0.00  0.00    -0.082 C 
ATOM     10  N   UNL     1       1.608  -7.408   4.537  0.00  0.00    +0.379 N 
ATOM     11  C   UNL     1       0.578  -6.649   3.819  0.00  0.00    -0.082 C 
ATOM     12  C   UNL     1       0.381  -5.288   4.493  0.00  0.00    -0.010 C 
ATOM     13  H   UNL     1       1.693  -8.327   4.129  0.00  0.00    -0.086 HD
ATOM     14  H   UNL     1       1.344  -7.497   5.507  0.00  0.00    -0.086 HD
ENDROOT
BRANCH   5  15
ATOM     15  C   UNL     1       0.133  -3.009   5.706  0.00  0.00    +0.218 C 
ATOM     16  O   UNL     1      -0.704  -2.496   4.994  0.00  0.00    -0.275 OA
ATOM     17  N   UNL     1      -0.200  -3.429   6.943  0.00  0.00    -0.316 N 
ATOM     18  H   UNL     1       0.469  -3.840   7.512  0.00  0.00    +0.149 HD
BRANCH  17  19
ATOM     19  C   UNL     1      -1.573  -3.265   7.427  0.00  0.00    +0.093 C 
BRANCH  19  20
ATOM     20  C   UNL     1      -1.653  -3.700   8.892  0.00  0.00    -0.021 C 
BRANCH  20  21
ATOM     21  C   UNL     1      -0.794  -2.792   9.733  0.00  0.00    -0.059 A 
ATOM     22  C   UNL     1      -1.269  -1.551  10.117  0.00  0.00    +0.002 A 
ATOM     23  C   UNL     1      -0.481  -0.718  10.888  0.00  0.00    +0.000 A 
ATOM     24  C   UNL     1       0.782  -1.125  11.276  0.00  0.00    +0.000 A 
ATOM     25  C   UNL     1       1.257  -2.365  10.893  0.00  0.00    +0.000 A 
ATOM     26  C   UNL     1       0.467  -3.201  10.125  0.00  0.00    +0.002 A 
ENDBRANCH  20  21
BRANCH  20  27
ATOM     27  N   UNL     1      -3.046  -3.621   9.351  0.00  0.00    +0.382 N 
ATOM     28  C   UNL     1      -3.869  -4.566   8.585  0.00  0.00    -0.096 C 
ATOM     29  C   UNL     1      -3.111  -3.960  10.779  0.00  0.00    -0.096 C 
ATOM     30  H   UNL     1      -3.393  -2.683   9.212  0.00  0.00    -0.082 HD
ENDBRANCH  20  27
ENDBRANCH  19  20
ENDBRANCH  17  19
ENDBRANCH   5  15
BRANCH   1  31
ATOM     31  C   UNL     1       0.672  -0.806   1.697  0.00  0.00    +0.072 C 
ATOM     32  C   UNL     1      -0.605  -0.615   0.876  0.00  0.00    +0.017 C 
BRANCH  31  34
ATOM     33  C   UNL     1       1.511   1.475   1.116  0.00  0.00    +0.004 C 
ATOM     34  C   UNL     1       1.816  -0.023   1.049  0.00  0.00    +0.009 C 
ENDBRANCH  31  34
ENDBRANCH   1  31
TORSDOF 7
