REMARK  Name = ZINC55028574
REMARK  9 active torsions:
REMARK  status: ('A' for Active; 'I' for Inactive)
REMARK    1  A    between atoms: C_1  and  C_2
REMARK    2  A    between atoms: C_2  and  C_4
REMARK    3  A    between atoms: C_2  and  N_14
REMARK    4  A    between atoms: N_9  and  C_10
REMARK    5  A    between atoms: C_10  and  C_11
REMARK    6  A    between atoms: C_10  and  C_12
REMARK    7  A    between atoms: C_10  and  C_13
REMARK    8  A    between atoms: C_17  and  N_20
REMARK    9  A    between atoms: N_23  and  C_24
REMARK                            x       y       z     vdW  Elec       q    Type
REMARK                         _______ _______ _______ _____ _____    ______ ____
ROOT
ATOM      1  N   UNL     1       0.009  -0.918  -1.148  0.00  0.00    +0.387 N 
ATOM      2  C   UNL     1      -0.619  -2.189  -0.764  0.00  0.00    -0.076 C 
ATOM      3  C   UNL     1      -0.542  -3.173  -1.933  0.00  0.00    +0.004 C 
ATOM      4  C   UNL     1      -1.278  -2.583  -3.140  0.00  0.00    +0.071 C 
ATOM      5  C   UNL     1      -0.663  -1.223  -3.485  0.00  0.00    +0.004 C 
ATOM      6  C   UNL     1      -0.735  -0.311  -2.258  0.00  0.00    -0.076 C 
ATOM      7  H   UNL     1       0.961  -1.089  -1.435  0.00  0.00    -0.081 HD
ENDROOT
BRANCH   4   8
ATOM      8  N   UNL     1      -1.143  -3.486  -4.285  0.00  0.00    -0.297 N 
ATOM      9  C   UNL     1      -2.067  -3.471  -5.267  0.00  0.00    +0.300 C 
ATOM     10  O   UNL     1      -3.012  -2.709  -5.201  0.00  0.00    -0.253 OA
ATOM     11  N   UNL     1      -1.944  -4.302  -6.321  0.00  0.00    -0.297 N 
ATOM     12  H   UNL     1      -0.390  -4.094  -4.338  0.00  0.00    +0.151 HD
ATOM     13  H   UNL     1      -1.190  -4.910  -6.373  0.00  0.00    +0.151 HD
BRANCH  11  14
ATOM     14  C   UNL     1      -2.948  -4.287  -7.387  0.00  0.00    +0.074 C 
ATOM     15  C   UNL     1      -2.602  -3.191  -8.397  0.00  0.00    +0.022 C 
ATOM     16  C   UNL     1      -3.651  -3.175  -9.511  0.00  0.00    +0.002 C 
ATOM     17  C   UNL     1      -3.667  -4.532 -10.217  0.00  0.00    +0.000 C 
ATOM     18  C   UNL     1      -4.013  -5.628  -9.207  0.00  0.00    +0.002 C 
ATOM     19  C   UNL     1      -2.964  -5.644  -8.093  0.00  0.00    +0.022 C 
ENDBRANCH  11  14
ENDBRANCH   4   8
BRANCH   1  21
ATOM     20  C   UNL     1       0.630   1.331  -0.404  0.00  0.00    -0.004 C 
ATOM     21  C   UNL     1       0.002  -0.004   0.002  0.00  0.00    +0.017 C 
BRANCH  21  22
ATOM     22  C   UNL     1       0.796  -0.610   1.130  0.00  0.00    +0.207 C 
ATOM     23  O   UNL     1       1.696  -1.387   0.889  0.00  0.00    -0.277 OA
ATOM     24  N   UNL     1       0.507  -0.289   2.407  0.00  0.00    -0.242 N 
ATOM     25  C   UNL     1       1.218  -0.831   3.416  0.00  0.00    +0.306 C 
ATOM     26  O   UNL     1       2.119  -1.609   3.174  0.00  0.00    -0.252 OA
ATOM     27  N   UNL     1       0.928  -0.510   4.692  0.00  0.00    -0.294 N 
ATOM     28  H   UNL     1      -0.212   0.332   2.599  0.00  0.00    +0.159 HD
ATOM     29  H   UNL     1       0.209   0.112   4.885  0.00  0.00    +0.151 HD
BRANCH  27  30
ATOM     30  C   UNL     1       1.700  -1.099   5.789  0.00  0.00    +0.028 C 
ATOM     31  C   UNL     1       3.175  -0.718   5.637  0.00  0.00    +0.031 C 
ATOM     32  C   UNL     1       1.173  -0.572   7.125  0.00  0.00    +0.031 C 
ATOM     33  C   UNL     1       1.561  -2.622   5.750  0.00  0.00    +0.031 C 
ENDBRANCH  27  30
ENDBRANCH  21  22
ENDBRANCH   1  21
TORSDOF 5
