REMARK  Name = ZINC50199029
REMARK  8 active torsions:
REMARK  status: ('A' for Active; 'I' for Inactive)
REMARK    1  A    between atoms: C_1  and  C_2
REMARK    2  A    between atoms: C_2  and  C_3
REMARK    3  A    between atoms: C_6  and  C_9
REMARK    4  A    between atoms: C_6  and  N_11
REMARK    5  A    between atoms: C_9  and  N_10
REMARK    6  A    between atoms: N_11  and  C_12
REMARK    7  A    between atoms: N_11  and  S_13
REMARK    8  A    between atoms: S_13  and  C_16
REMARK                            x       y       z     vdW  Elec       q    Type
REMARK                         _______ _______ _______ _____ _____    ______ ____
ROOT
ATOM      1  C   UNL     1       0.898  -1.940  -0.387  0.00  0.00    -0.011 C 
ATOM      2  C   UNL     1      -0.114  -1.328  -1.357  0.00  0.00    +0.005 C 
ATOM      3  C   UNL     1       0.482  -1.300  -2.766  0.00  0.00    +0.022 C 
ATOM      4  C   UNL     1       0.813  -2.728  -3.208  0.00  0.00    +0.027 C 
ATOM      5  C   UNL     1       1.825  -3.340  -2.237  0.00  0.00    +0.022 C 
ATOM      6  C   UNL     1       1.229  -3.367  -0.828  0.00  0.00    +0.005 C 
ENDROOT
BRANCH   1   8
ATOM      7  C   UNL     1       0.087  -0.534   1.512  0.00  0.00    +0.004 C 
ATOM      8  C   UNL     1       0.302  -1.967   1.022  0.00  0.00    -0.000 C 
ENDBRANCH   1   8
BRANCH   4   9
ATOM      9  N   UNL     1       1.384  -2.702  -4.556  0.00  0.00    -0.180 NA
ATOM     10  C   UNL     1       1.776  -3.953  -5.210  0.00  0.00    +0.131 C 
BRANCH   9  11
ATOM     11  S   UNL     1       1.587  -1.258  -5.342  0.00  0.00    +0.035 S 
ATOM     12  O   UNL     1       1.376  -1.560  -6.715  0.00  0.00    -0.158 OA
ATOM     13  O   UNL     1       0.732  -0.351  -4.660  0.00  0.00    -0.158 OA
BRANCH  11  14
ATOM     14  C   UNL     1       3.323  -0.814  -5.059  0.00  0.00    +0.152 C 
ATOM     15  C   UNL     1       3.574  -0.659  -3.556  0.00  0.00    +0.056 C 
ATOM     16  C   UNL     1       5.020  -0.208  -3.332  0.00  0.00    +0.161 C 
ATOM     17  O   UNL     1       5.249   1.017  -4.032  0.00  0.00    -0.380 OA
ATOM     18  C   UNL     1       5.075   0.921  -5.448  0.00  0.00    +0.161 C 
ATOM     19  C   UNL     1       3.632   0.515  -5.757  0.00  0.00    +0.056 C 
ENDBRANCH  11  14
ENDBRANCH   9  11
ENDBRANCH   4   9
BRANCH   4  20
ATOM     20  C   UNL     1      -0.464  -3.570  -3.211  0.00  0.00    -0.062 C 
BRANCH  20  21
ATOM     21  N   UNL     1      -0.135  -4.957  -3.562  0.00  0.00    +0.379 N 
ATOM     22  H   UNL     1      -0.933  -5.548  -3.382  0.00  0.00    -0.090 HD
ATOM     23  H   UNL     1       0.107  -5.008  -4.540  0.00  0.00    -0.090 HD
ATOM     24  H   UNL     1       0.647  -5.269  -3.005  0.00  0.00    -0.090 HD
ENDBRANCH  20  21
ENDBRANCH   4  20
TORSDOF 6
