REMARK  Name = ZINC15947058
REMARK  9 active torsions:
REMARK  status: ('A' for Active; 'I' for Inactive)
REMARK    1  A    between atoms: C_1  and  C_2
REMARK    2  A    between atoms: C_2  and  C_3
REMARK    3  A    between atoms: C_2  and  N_4
REMARK    4  A    between atoms: C_12  and  O_28
REMARK    5  A    between atoms: C_14  and  C_17
REMARK    6  A    between atoms: C_19  and  O_26
REMARK    7  A    between atoms: C_20  and  O_24
REMARK    8  A    between atoms: O_24  and  C_25
REMARK    9  A    between atoms: O_26  and  C_27
REMARK                            x       y       z     vdW  Elec       q    Type
REMARK                         _______ _______ _______ _____ _____    ______ ____
ROOT
ATOM      1  N   UNL     1      -1.442  -0.249   0.106  0.00  0.00    +0.384 N 
ATOM      2  C   UNL     1      -1.680  -1.680   0.337  0.00  0.00    -0.073 C 
ATOM      3  C   UNL     1      -3.135  -1.914   0.758  0.00  0.00    +0.018 C 
ATOM      4  C   UNL     1      -4.034  -1.237  -0.268  0.00  0.00    -0.027 A 
ATOM      5  C   UNL     1      -3.522  -0.305  -1.107  0.00  0.00    -0.021 A 
ATOM      6  S   UNL     1      -4.892   0.201  -2.107  0.00  0.00    -0.080 S 
ATOM      7  C   UNL     1      -6.077  -0.757  -1.454  0.00  0.00    +0.080 A 
ATOM      8  C   UNL     1      -5.446  -1.502  -0.449  0.00  0.00    +0.067 A 
ATOM      9  C   UNL     1      -6.279  -2.473   0.307  0.00  0.00    +0.220 C 
ATOM     10  N   UNL     1      -7.575  -2.398   0.169  0.00  0.00    -0.223 NA
ATOM     11  C   UNL     1      -8.264  -1.388  -0.625  0.00  0.00    +0.224 C 
ATOM     12  N   UNL     1      -7.419  -0.895  -1.728  0.00  0.00    -0.313 N 
ATOM     13  C   UNL     1      -2.103   0.167  -1.145  0.00  0.00    -0.035 C 
ATOM     14  H   UNL     1      -7.788  -0.679  -2.599  0.00  0.00    +0.149 HD
ATOM     15  H   UNL     1      -1.819   0.281   0.878  0.00  0.00    -0.081 HD
ENDROOT
BRANCH  11  16
ATOM     16  C   UNL     1      -8.633  -0.230   0.265  0.00  0.00    -0.001 A 
ATOM     17  C   UNL     1      -8.891  -0.446   1.607  0.00  0.00    +0.056 A 
ATOM     18  C   UNL     1      -9.230   0.617   2.427  0.00  0.00    +0.163 A 
ATOM     19  C   UNL     1      -9.312   1.902   1.898  0.00  0.00    +0.175 A 
ATOM     20  C   UNL     1      -9.053   2.112   0.553  0.00  0.00    +0.059 A 
ATOM     21  C   UNL     1      -8.709   1.046  -0.259  0.00  0.00    +0.025 A 
ATOM     22  I   UNL     1      -9.174   4.044  -0.248  0.00  0.00    -0.040 I 
BRANCH  19  23
ATOM     23  O   UNL     1      -9.645   2.949   2.699  0.00  0.00    -0.490 OA
ATOM     24  C   UNL     1      -8.573   3.636   3.349  0.00  0.00    +0.277 C 
ENDBRANCH  19  23
BRANCH  18  25
ATOM     25  O   UNL     1      -9.484   0.406   3.746  0.00  0.00    -0.491 OA
ATOM     26  C   UNL     1      -9.383  -0.939   4.219  0.00  0.00    +0.277 C 
ENDBRANCH  18  25
ENDBRANCH  11  16
BRANCH   1  28
ATOM     27  C   UNL     1       0.246   1.468  -0.337  0.00  0.00    -0.014 C 
ATOM     28  C   UNL     1       0.002  -0.004   0.002  0.00  0.00    -0.074 C 
ATOM     29  C   UNL     1       0.674  -0.339   1.335  0.00  0.00    -0.014 C 
ENDBRANCH   1  28
BRANCH   9  30
ATOM     30  O   UNL     1      -5.713  -3.403   1.111  0.00  0.00    -0.492 OA
ATOM     31  H   UNL     1      -6.351  -3.981   1.553  0.00  0.00    +0.294 HD
ENDBRANCH   9  30
TORSDOF 5
