REMARK  Name = ZINC40684342
REMARK  8 active torsions:
REMARK  status: ('A' for Active; 'I' for Inactive)
REMARK    1  A    between atoms: C_1  and  C_2
REMARK    2  A    between atoms: C_5  and  N_8
REMARK    3  A    between atoms: C_10  and  N_25
REMARK    4  A    between atoms: C_11  and  N_15
REMARK    5  A    between atoms: N_15  and  C_16
REMARK    6  A    between atoms: C_18  and  C_24
REMARK    7  A    between atoms: C_21  and  O_22
REMARK    8  A    between atoms: O_22  and  C_23
REMARK                            x       y       z     vdW  Elec       q    Type
REMARK                         _______ _______ _______ _____ _____    ______ ____
ROOT
ATOM      1  N   UNL     1       1.206  -4.205  -0.046  0.00  0.00    -0.298 N 
ATOM      2  C   UNL     1       1.078  -4.895   1.154  0.00  0.00    +0.149 A 
ATOM      3  C   UNL     1       0.878  -6.277   1.159  0.00  0.00    +0.106 A 
ATOM      4  C   UNL     1       0.755  -6.921   2.392  0.00  0.00    +0.149 A 
ATOM      5  N   UNL     1       0.834  -6.198   3.507  0.00  0.00    -0.219 NA
ATOM      6  C   UNL     1       1.023  -4.896   3.458  0.00  0.00    +0.225 A 
ATOM      7  N   UNL     1       1.149  -4.250   2.316  0.00  0.00    -0.219 NA
ATOM      8  H   UNL     1       1.083  -4.669  -0.888  0.00  0.00    +0.154 HD
ENDROOT
BRANCH   1  13
ATOM      9  C   UNL     1       2.453   1.328  -0.016  0.00  0.00    +0.044 C 
ATOM     10  C   UNL     1       2.121  -0.142  -0.023  0.00  0.00    -0.050 A 
ATOM     11  C   UNL     1       2.689  -0.982   0.917  0.00  0.00    +0.005 A 
ATOM     12  C   UNL     1       2.388  -2.330   0.912  0.00  0.00    +0.023 A 
ATOM     13  C   UNL     1       1.513  -2.841  -0.038  0.00  0.00    +0.032 A 
ATOM     14  C   UNL     1       0.944  -1.994  -0.981  0.00  0.00    +0.023 A 
ATOM     15  C   UNL     1       1.245  -0.647  -0.967  0.00  0.00    +0.005 A 
ENDBRANCH   1  13
BRANCH   3  16
ATOM     16  N   UNL     1       0.802  -6.999  -0.042  0.00  0.00    -0.353 N 
ATOM     17  H   UNL     1       0.888  -6.538  -0.891  0.00  0.00    +0.143 HD
ATOM     18  H   UNL     1       0.662  -7.959  -0.023  0.00  0.00    +0.143 HD
ENDBRANCH   3  16
BRANCH   4  19
ATOM     19  N   UNL     1       0.555  -8.295   2.454  0.00  0.00    -0.295 N 
ATOM     20  H   UNL     1       0.407  -8.801   1.639  0.00  0.00    +0.154 HD
BRANCH  19  21
ATOM     21  C   UNL     1       0.566  -8.949   3.691  0.00  0.00    +0.075 A 
ATOM     22  C   UNL     1       1.155  -8.344   4.793  0.00  0.00    +0.030 A 
ATOM     23  C   UNL     1       1.165  -8.992   6.013  0.00  0.00    -0.048 A 
ATOM     24  C   UNL     1       0.590 -10.243   6.141  0.00  0.00    +0.007 A 
ATOM     25  C   UNL     1       0.002 -10.852   5.048  0.00  0.00    +0.048 A 
ATOM     26  C   UNL     1      -0.018 -10.207   3.822  0.00  0.00    +0.141 A 
ATOM     27  C   UNL     1       1.804  -8.333   7.209  0.00  0.00    +0.044 C 
BRANCH  26  28
ATOM     28  O   UNL     1      -0.601 -10.803   2.748  0.00  0.00    -0.493 OA
ATOM     29  C   UNL     1      -1.180 -12.093   2.956  0.00  0.00    +0.277 C 
ENDBRANCH  26  28
ENDBRANCH  19  21
ENDBRANCH   4  19
TORSDOF 5
