REMARK  Name = ZINC51001681
REMARK  10 active torsions:
REMARK  status: ('A' for Active; 'I' for Inactive)
REMARK    1  A    between atoms: C_1  and  C_2
REMARK    2  A    between atoms: C_7  and  C_8
REMARK    3  A    between atoms: N_12  and  C_19
REMARK    4  A    between atoms: C_13  and  C_15
REMARK    5  A    between atoms: C_15  and  C_16
REMARK    6  A    between atoms: C_15  and  C_17
REMARK    7  A    between atoms: C_15  and  C_18
REMARK    8  A    between atoms: C_19  and  C_20
REMARK    9  A    between atoms: C_19  and  C_21
REMARK   10  A    between atoms: C_19  and  C_22
REMARK                            x       y       z     vdW  Elec       q    Type
REMARK                         _______ _______ _______ _____ _____    ______ ____
ROOT
ATOM      1  C   UNL     1       2.525  -0.884   3.888  0.00  0.00    +0.172 C 
ATOM      2  C   UNL     1       2.879   0.381   4.645  0.00  0.00    +0.101 C 
ATOM      3  N   UNL     1       3.349   1.485   4.165  0.00  0.00    -0.388 N 
ATOM      4  N   UNL     1       2.586   0.090   5.960  0.00  0.00    -0.273 N 
ATOM      5  C   UNL     1       2.106  -1.185   6.063  0.00  0.00    +0.082 C 
ATOM      6  N   UNL     1       2.040  -1.800   4.932  0.00  0.00    -0.363 N 
ATOM      7  H   UNL     1       3.484   1.580   3.209  0.00  0.00    +0.157 HD
ATOM      8  H   UNL     1       3.568   2.219   4.761  0.00  0.00    +0.157 HD
ATOM      9  H   UNL     1       1.727  -2.708   4.793  0.00  0.00    +0.162 HD
ENDROOT
BRANCH   1  16
ATOM     10  C   UNL     1       3.132  -0.155   1.159  0.00  0.00    +0.044 C 
ATOM     11  C   UNL     1       4.035  -1.105   1.904  0.00  0.00    -0.045 A 
ATOM     12  C   UNL     1       5.157  -1.622   1.284  0.00  0.00    +0.004 A 
ATOM     13  C   UNL     1       5.984  -2.493   1.967  0.00  0.00    +0.000 A 
ATOM     14  C   UNL     1       5.691  -2.846   3.271  0.00  0.00    +0.000 A 
ATOM     15  C   UNL     1       4.570  -2.328   3.892  0.00  0.00    +0.006 A 
ATOM     16  C   UNL     1       3.744  -1.454   3.209  0.00  0.00    -0.015 A 
ENDBRANCH   1  16
BRANCH   5  17
ATOM     17  C   UNL     1       1.692  -1.811   7.370  0.00  0.00    +0.016 C 
ATOM     18  C   UNL     1       0.912  -0.790   8.201  0.00  0.00    +0.018 C 
ATOM     19  C   UNL     1       0.807  -3.028   7.095  0.00  0.00    +0.018 C 
ATOM     20  C   UNL     1       2.938  -2.251   8.142  0.00  0.00    +0.018 C 
ENDBRANCH   5  17
BRANCH   4  21
ATOM     21  C   UNL     1       2.763   1.013   7.084  0.00  0.00    +0.033 C 
ATOM     22  C   UNL     1       1.413   1.631   7.455  0.00  0.00    +0.031 C 
ATOM     23  C   UNL     1       3.323   0.251   8.287  0.00  0.00    +0.031 C 
ATOM     24  C   UNL     1       3.739   2.122   6.684  0.00  0.00    +0.031 C 
ENDBRANCH   4  21
TORSDOF 3
