REMARK  Name = ZINC62810776
REMARK  3 active torsions:
REMARK  status: ('A' for Active; 'I' for Inactive)
REMARK    1  A    between atoms: C_3  and  N_8
REMARK    2  A    between atoms: C_9  and  C_11
REMARK    3  A    between atoms: C_12  and  N_17
REMARK                            x       y       z     vdW  Elec       q    Type
REMARK                         _______ _______ _______ _____ _____    ______ ____
ROOT
ATOM      1  N   UNL     1       3.596   2.001  -0.022  0.00  0.00    -0.265 N 
ATOM      2  C   UNL     1       3.628   3.345  -0.117  0.00  0.00    +0.271 C 
ATOM      3  O   UNL     1       2.592   3.981  -0.104  0.00  0.00    -0.268 OA
ATOM      4  H   UNL     1       4.424   1.500   0.042  0.00  0.00    +0.157 HD
ENDROOT
BRANCH   1   7
ATOM      5  C   UNL     1       1.130  -0.710  -0.017  0.00  0.00    +0.020 A 
ATOM      6  C   UNL     1       2.350  -0.058  -0.024  0.00  0.00    +0.045 A 
ATOM      7  C   UNL     1       2.374   1.332  -0.015  0.00  0.00    +0.125 A 
ATOM      8  N   UNL     1       1.247   2.026  -0.001  0.00  0.00    -0.239 NA
ATOM      9  C   UNL     1       0.069   1.433   0.007  0.00  0.00    +0.128 A 
ATOM     10  C   UNL     1      -0.030   0.054  -0.001  0.00  0.00    +0.036 A 
ATOM     11 BR   UNL     1      -1.726  -0.783   0.009  0.00  0.00    -0.049 Br
ENDBRANCH   1   7
BRANCH   2  12
ATOM     12  C   UNL     1       4.920   4.045  -0.237  0.00  0.00    +0.168 A 
ATOM     13  C   UNL     1       5.114   5.447  -0.340  0.00  0.00    +0.075 A 
ATOM     14  C   UNL     1       6.459   5.621  -0.429  0.00  0.00    +0.128 A 
ATOM     15  N   UNL     1       7.025   4.387  -0.381  0.00  0.00    -0.282 N 
ATOM     16  H   UNL     1       7.978   4.211  -0.424  0.00  0.00    +0.188 HD
ATOM     17  N   UNL     1       6.116   3.487  -0.264  0.00  0.00    -0.167 NA
BRANCH  13  18
ATOM     18  N   UNL     1       4.126   6.443  -0.348  0.00  0.00    -0.355 N 
ATOM     19  H   UNL     1       3.190   6.198  -0.279  0.00  0.00    +0.142 HD
ATOM     20  H   UNL     1       4.378   7.376  -0.423  0.00  0.00    +0.142 HD
ENDBRANCH  13  18
ENDBRANCH   2  12
TORSDOF 3
