REMARK  Name = ZINC24751132
REMARK  11 active torsions:
REMARK  status: ('A' for Active; 'I' for Inactive)
REMARK    1  A    between atoms: C_1  and  C_2
REMARK    2  A    between atoms: C_4  and  S_9
REMARK    3  A    between atoms: S_9  and  N_12
REMARK    4  A    between atoms: N_12  and  C_13
REMARK    5  A    between atoms: C_16  and  C_19
REMARK    6  A    between atoms: N_21  and  C_22
REMARK    7  A    between atoms: C_22  and  C_23
REMARK    8  A    between atoms: C_23  and  C_25
REMARK    9  A    between atoms: C_23  and  N_30
REMARK   10  A    between atoms: N_30  and  C_31
REMARK   11  A    between atoms: N_30  and  C_32
REMARK                            x       y       z     vdW  Elec       q    Type
REMARK                         _______ _______ _______ _____ _____    ______ ____
ROOT
ATOM      1  C   UNL     1       2.788  -3.696  -2.193  0.00  0.00    +0.048 A 
ATOM      2  C   UNL     1       2.506  -3.752  -0.831  0.00  0.00    +0.025 A 
ATOM      3  C   UNL     1       3.144  -4.673  -0.032  0.00  0.00    +0.015 A 
ATOM      4  C   UNL     1       4.076  -5.553  -0.590  0.00  0.00    +0.037 A 
ATOM      5  C   UNL     1       4.357  -5.495  -1.958  0.00  0.00    +0.015 A 
ATOM      6  C   UNL     1       3.712  -4.575  -2.753  0.00  0.00    +0.025 A 
ENDROOT
BRANCH   4   7
ATOM      7  C   UNL     1       4.762  -6.542   0.263  0.00  0.00    +0.244 C 
ATOM      8  O   UNL     1       4.517  -6.592   1.453  0.00  0.00    -0.270 OA
ATOM      9  N   UNL     1       5.660  -7.390  -0.276  0.00  0.00    -0.312 N 
ATOM     10  H   UNL     1       5.856  -7.350  -1.225  0.00  0.00    +0.149 HD
BRANCH   9  11
ATOM     11  C   UNL     1       6.341  -8.372   0.572  0.00  0.00    +0.097 C 
BRANCH  11  12
ATOM     12  C   UNL     1       7.205  -9.286  -0.299  0.00  0.00    +0.016 C 
BRANCH  12  13
ATOM     13  C   UNL     1       8.312  -8.480  -0.929  0.00  0.00    +0.093 A 
ATOM     14  C   UNL     1       9.587  -8.427  -0.504  0.00  0.00    +0.043 A 
ATOM     15  C   UNL     1      10.276  -7.557  -1.381  0.00  0.00    +0.041 A 
ATOM     16  C   UNL     1       9.380  -7.131  -2.289  0.00  0.00    +0.195 A 
ATOM     17  O   UNL     1       8.194  -7.697  -2.015  0.00  0.00    -0.469 OA
ENDBRANCH  12  13
BRANCH  12  18
ATOM     18  N   UNL     1       6.376  -9.886  -1.353  0.00  0.00    +0.384 N 
ATOM     19  C   UNL     1       7.180 -10.841  -2.125  0.00  0.00    -0.096 C 
ATOM     20  C   UNL     1       5.238 -10.585  -0.741  0.00  0.00    -0.096 C 
ATOM     21  H   UNL     1       6.035  -9.160  -1.966  0.00  0.00    -0.082 HD
ENDBRANCH  12  18
ENDBRANCH  11  12
ENDBRANCH   9  11
ENDBRANCH   4   7
BRANCH   1  22
ATOM     22  N   UNL     1       2.142  -2.764  -2.998  0.00  0.00    -0.216 N 
ATOM     23  H   UNL     1       2.650  -2.240  -3.637  0.00  0.00    +0.174 HD
BRANCH  22  24
ATOM     24  S   UNL     1       0.506  -2.549  -2.865  0.00  0.00    +0.072 S 
ATOM     25  O   UNL     1       0.136  -1.616  -3.872  0.00  0.00    -0.150 OA
ATOM     26  O   UNL     1       0.235  -2.330  -1.488  0.00  0.00    -0.150 OA
BRANCH  24  30
ATOM     27  C   UNL     1      -1.198  -7.330  -1.619  0.00  0.00    +0.047 C 
ATOM     28  C   UNL     1      -1.020  -6.260  -2.665  0.00  0.00    -0.013 A 
ATOM     29  C   UNL     1      -0.421  -5.060  -2.332  0.00  0.00    +0.035 A 
ATOM     30  C   UNL     1      -0.257  -4.079  -3.292  0.00  0.00    +0.109 A 
ATOM     31  C   UNL     1      -0.692  -4.297  -4.586  0.00  0.00    +0.031 A 
ATOM     32  C   UNL     1      -1.290  -5.496  -4.922  0.00  0.00    +0.040 A 
ATOM     33  C   UNL     1      -1.450  -6.482  -3.962  0.00  0.00    +0.126 A 
ATOM     34  F   UNL     1      -2.030  -7.657  -4.290  0.00  0.00    -0.205 F 
ENDBRANCH  24  30
ENDBRANCH  22  24
ENDBRANCH   1  22
TORSDOF 8
