REMARK  Name = ZINC11786419
REMARK  11 active torsions:
REMARK  status: ('A' for Active; 'I' for Inactive)
REMARK    1  A    between atoms: C_1  and  O_2
REMARK    2  A    between atoms: O_2  and  C_3
REMARK    3  A    between atoms: C_7  and  O_33
REMARK    4  A    between atoms: C_8  and  C_9
REMARK    5  A    between atoms: C_9  and  N_70
REMARK    6  A    between atoms: C_10  and  N_70
REMARK    7  A    between atoms: N_13  and  C_16
REMARK    8  A    between atoms: C_19  and  C_22
REMARK    9  A    between atoms: C_28  and  C_31
REMARK   10  A    between atoms: C_31  and  O_32
REMARK   11  A    between atoms: O_33  and  C_34
REMARK                            x       y       z     vdW  Elec       q    Type
REMARK                         _______ _______ _______ _____ _____    ______ ____
ROOT
ATOM      1  C   UNL     1      -0.611   1.440  -0.600  0.00  0.00    -0.068 C 
ATOM      2  C   UNL     1      -0.342   1.869  -2.045  0.00  0.00    +0.003 C 
ATOM      3  C   UNL     1      -0.381   3.396  -2.135  0.00  0.00    +0.103 C 
ATOM      4  N   UNL     1       0.633   3.967  -1.239  0.00  0.00    -0.330 N 
ATOM      5  C   UNL     1       0.368   3.608   0.160  0.00  0.00    +0.103 C 
ATOM      6  C   UNL     1       0.429   2.087   0.319  0.00  0.00    +0.003 C 
ENDROOT
BRANCH   4   7
ATOM      7  C   UNL     1       0.714   5.346  -1.392  0.00  0.00    +0.030 A 
ATOM      8  C   UNL     1       0.542   6.179  -0.290  0.00  0.00    +0.024 A 
ATOM      9  C   UNL     1       0.628   7.545  -0.438  0.00  0.00    +0.015 A 
ATOM     10  C   UNL     1       0.876   8.096  -1.698  0.00  0.00    +0.037 A 
ATOM     11  C   UNL     1       1.042   7.257  -2.804  0.00  0.00    +0.015 A 
ATOM     12  C   UNL     1       0.961   5.892  -2.649  0.00  0.00    +0.024 A 
BRANCH  10  13
ATOM     13  C   UNL     1       0.962   9.559  -1.861  0.00  0.00    +0.247 C 
ATOM     14  O   UNL     1       0.515  10.087  -2.862  0.00  0.00    -0.270 OA
ATOM     15  N   UNL     1       1.536  10.312  -0.902  0.00  0.00    -0.297 N 
ATOM     16  C   UNL     1       2.189   9.681   0.253  0.00  0.00    +0.108 C 
ATOM     17  C   UNL     1       3.618  10.221   0.367  0.00  0.00    +0.019 C 
ATOM     18  C   UNL     1       3.578  11.750   0.425  0.00  0.00    +0.009 C 
ATOM     19  C   UNL     1       2.957  12.295  -0.863  0.00  0.00    +0.032 C 
ATOM     20  C   UNL     1       1.526  11.778  -0.994  0.00  0.00    +0.113 C 
BRANCH  19  21
ATOM     21  C   UNL     1       2.949  13.824  -0.819  0.00  0.00    +0.160 C 
BRANCH  21  22
ATOM     22  O   UNL     1       2.477  14.334  -2.068  0.00  0.00    -0.395 OA
ATOM     23  H   UNL     1       2.445  15.300  -2.111  0.00  0.00    +0.209 HD
ENDBRANCH  21  22
ENDBRANCH  19  21
ENDBRANCH  10  13
ENDBRANCH   4   7
BRANCH   1  24
ATOM     24  N   UNL     1      -0.508  -0.027  -0.493  0.00  0.00    +0.384 N 
ATOM     25  H   UNL     1       0.222  -0.363  -1.132  0.00  0.00    -0.085 HD
ATOM     26  H   UNL     1      -0.261  -0.280   0.471  0.00  0.00    -0.085 HD
BRANCH  24  27
ATOM     27  C   UNL     1      -1.793  -0.658  -0.848  0.00  0.00    -0.039 C 
BRANCH  27  33
ATOM     28  C   UNL     1      -1.255  -2.904  -1.824  0.00  0.00    +0.125 A 
ATOM     29  C   UNL     1      -1.125  -4.281  -1.711  0.00  0.00    +0.046 A 
ATOM     30  C   UNL     1      -1.409  -4.907  -0.512  0.00  0.00    +0.007 A 
ATOM     31  C   UNL     1      -1.817  -4.163   0.578  0.00  0.00    +0.046 A 
ATOM     32  C   UNL     1      -1.942  -2.785   0.472  0.00  0.00    +0.125 A 
ATOM     33  C   UNL     1      -1.658  -2.155  -0.730  0.00  0.00    +0.019 A 
BRANCH  28  35
ATOM     34  C   UNL     1      -0.571  -3.124  -4.091  0.00  0.00    +0.277 C 
ATOM     35  O   UNL     1      -0.981  -2.290  -3.005  0.00  0.00    -0.495 OA
ENDBRANCH  28  35
BRANCH  32  36
ATOM     36  O   UNL     1      -2.342  -2.053   1.545  0.00  0.00    -0.495 OA
ATOM     37  C   UNL     1      -2.618  -2.769   2.751  0.00  0.00    +0.277 C 
ENDBRANCH  32  36
ENDBRANCH  27  33
ENDBRANCH  24  27
ENDBRANCH   1  24
TORSDOF 9
