REMARK  Name = ZINC01224956
REMARK  7 active torsions:
REMARK  status: ('A' for Active; 'I' for Inactive)
REMARK    1  A    between atoms: C_1  and  C_2
REMARK    2  A    between atoms: C_4  and  C_33
REMARK    3  A    between atoms: C_7  and  C_14
REMARK    4  A    between atoms: C_14  and  C_16
REMARK    5  A    between atoms: C_14  and  N_63
REMARK    6  A    between atoms: N_20  and  C_21
REMARK    7  A    between atoms: C_30  and  C_32
REMARK                            x       y       z     vdW  Elec       q    Type
REMARK                         _______ _______ _______ _____ _____    ______ ____
ROOT
ATOM      1  C   UNL     1      -4.986   3.843   0.045  0.00  0.00    +0.039 C 
ENDROOT
BRANCH   1   8
ATOM      2  C   UNL     1       1.259  -0.922   1.428  0.00  0.00    +0.044 C 
ATOM      3  C   UNL     1      -0.002  -0.098   1.373  0.00  0.00    -0.048 A 
ATOM      4  C   UNL     1      -0.903  -0.149   2.428  0.00  0.00    +0.007 A 
ATOM      5  C   UNL     1      -2.051   0.591   2.397  0.00  0.00    -0.041 A 
ATOM      6  C   UNL     1      -2.321   1.407   1.294  0.00  0.00    +0.002 A 
ATOM      7  C   UNL     1      -3.542   2.212   1.229  0.00  0.00    +0.018 A 
ATOM      8  C   UNL     1      -3.743   2.997   0.141  0.00  0.00    +0.011 A 
ATOM      9  C   UNL     1      -2.797   3.016  -0.906  0.00  0.00    +0.251 A 
ATOM     10  O   UNL     1      -3.002   3.721  -1.879  0.00  0.00    -0.268 OA
ATOM     11  N   UNL     1      -1.676   2.276  -0.858  0.00  0.00    -0.322 N 
ATOM     12  H   UNL     1      -1.027   2.313  -1.618  0.00  0.00    +0.169 HD
ATOM     13  C   UNL     1      -1.407   1.465   0.225  0.00  0.00    +0.050 A 
ATOM     14  C   UNL     1      -0.247   0.699   0.276  0.00  0.00    +0.029 A 
ATOM     15  C   UNL     1      -3.022   0.527   3.547  0.00  0.00    +0.044 C 
ENDBRANCH   1   8
BRANCH   1  22
ATOM     16  C   UNL     1      -5.990   2.015  -1.184  0.00  0.00    -0.077 C 
ATOM     17  C   UNL     1      -6.653   1.636  -2.510  0.00  0.00    -0.019 C 
ATOM     18  C   UNL     1      -7.974   2.397  -2.650  0.00  0.00    -0.003 C 
ATOM     19  C   UNL     1      -7.698   3.901  -2.566  0.00  0.00    -0.016 C 
ATOM     20  C   UNL     1      -7.005   4.215  -1.238  0.00  0.00    -0.070 C 
ATOM     21  C   UNL     1      -6.709   5.714  -1.159  0.00  0.00    -0.013 C 
ATOM     22  N   UNL     1      -5.729   3.470  -1.176  0.00  0.00    +0.391 N 
ATOM     23  H   UNL     1      -5.162   3.711  -1.998  0.00  0.00    -0.080 HD
ENDBRANCH   1  22
BRANCH   1  24
ATOM     24  C   UNL     1      -5.837   3.626   1.270  0.00  0.00    +0.143 A 
ATOM     25  N   UNL     1      -6.576   2.577   1.533  0.00  0.00    -0.115 NA
ATOM     26  N   UNL     1      -7.149   2.768   2.672  0.00  0.00    -0.023 NA
ATOM     27  N   UNL     1      -6.793   3.913   3.142  0.00  0.00    -0.044 NA
ATOM     28  N   UNL     1      -5.981   4.470   2.309  0.00  0.00    -0.227 N 
BRANCH  28  29
ATOM     29  C   UNL     1      -5.338   5.778   2.462  0.00  0.00    +0.111 C 
ATOM     30  C   UNL     1      -4.522   5.815   3.771  0.00  0.00    +0.027 C 
ATOM     31  C   UNL     1      -4.721   7.256   4.302  0.00  0.00    +0.002 C 
ATOM     32  C   UNL     1      -6.202   7.548   3.954  0.00  0.00    +0.002 C 
ATOM     33  C   UNL     1      -6.406   6.880   2.579  0.00  0.00    +0.027 C 
ENDBRANCH  28  29
ENDBRANCH   1  24
TORSDOF 4
