REMARK  Name = ZINC37647566
REMARK  7 active torsions:
REMARK  status: ('A' for Active; 'I' for Inactive)
REMARK    1  A    between atoms: C_1  and  N_2
REMARK    2  A    between atoms: C_5  and  C_8
REMARK    3  A    between atoms: C_8  and  N_9
REMARK    4  A    between atoms: N_9  and  S_10
REMARK    5  A    between atoms: S_10  and  C_13
REMARK    6  A    between atoms: C_14  and  N_21
REMARK    7  A    between atoms: N_21  and  N_22
REMARK                            x       y       z     vdW  Elec       q    Type
REMARK                         _______ _______ _______ _____ _____    ______ ____
ROOT
ATOM      1  S   UNL     1      -0.154  -4.979   3.725  0.00  0.00    +0.078 S 
ATOM      2  O   UNL     1      -1.264  -5.485   4.453  0.00  0.00    -0.151 OA
ATOM      3  O   UNL     1       0.336  -5.606   2.548  0.00  0.00    -0.151 OA
ENDROOT
BRANCH   1   4
ATOM      4  C   UNL     1       1.197  -4.903   4.854  0.00  0.00    +0.222 A 
ATOM      5  C   UNL     1       2.506  -4.916   4.532  0.00  0.00    +0.179 A 
ATOM      6  N   UNL     1       3.221  -4.843   5.668  0.00  0.00    -0.203 NA
ATOM      7  C   UNL     1       2.403  -4.785   6.681  0.00  0.00    +0.181 A 
ATOM      8  N   UNL     1       1.105  -4.812   6.246  0.00  0.00    -0.276 N 
ATOM      9  C   UNL     1       0.122  -4.751   7.209  0.00  0.00    +0.102 A 
ATOM     10  C   UNL     1       0.437  -4.666   8.501  0.00  0.00    +0.067 A 
ATOM     11  S   UNL     1       2.223  -4.678   8.446  0.00  0.00    -0.058 S 
BRANCH   5  12
ATOM     12  N   UNL     1       3.033  -4.993   3.233  0.00  0.00    -0.265 N 
ATOM     13  H   UNL     1       2.436  -5.043   2.470  0.00  0.00    +0.168 HD
BRANCH  12  14
ATOM     14  N   UNL     1       4.386  -4.998   3.043  0.00  0.00    -0.255 NA
ATOM     15  H   UNL     1       4.821  -5.747   3.561  0.00  0.00    +0.140 HD
ATOM     16  H   UNL     1       4.613  -5.057   2.062  0.00  0.00    +0.140 HD
ENDBRANCH  12  14
ENDBRANCH   5  12
ENDBRANCH   1   4
BRANCH   1  17
ATOM     17  N   UNL     1      -0.531  -3.421   3.308  0.00  0.00    -0.188 NA
ATOM     18  H   UNL     1      -1.391  -3.047   3.558  0.00  0.00    +0.148 HD
BRANCH  17  19
ATOM     19  C   UNL     1       0.432  -2.608   2.562  0.00  0.00    +0.107 C 
BRANCH  19  24
ATOM     20  C   UNL     1      -0.018   1.465   0.010  0.00  0.00    -0.096 C 
ATOM     21  N   UNL     1       0.002  -0.004   0.002  0.00  0.00    +0.378 N 
ATOM     22  C   UNL     1      -1.383  -0.521   0.034  0.00  0.00    -0.079 C 
ATOM     23  C   UNL     1      -1.309  -1.797   0.908  0.00  0.00    -0.016 C 
ATOM     24  C   UNL     1      -0.274  -1.379   1.986  0.00  0.00    -0.014 C 
ATOM     25  C   UNL     1       0.714  -0.497   1.195  0.00  0.00    -0.075 C 
ATOM     26  H   UNL     1       0.466  -0.334  -0.831  0.00  0.00    -0.082 HD
ENDBRANCH  19  24
ENDBRANCH  17  19
ENDBRANCH   1  17
TORSDOF 6
