REMARK  Name = ZINC67501584
REMARK  5 active torsions:
REMARK  status: ('A' for Active; 'I' for Inactive)
REMARK    1  A    between atoms: C_1  and  N_2
REMARK    2  A    between atoms: C_4  and  C_11
REMARK    3  A    between atoms: N_7  and  C_10
REMARK    4  A    between atoms: C_11  and  N_12
REMARK    5  A    between atoms: N_12  and  C_13
REMARK                            x       y       z     vdW  Elec       q    Type
REMARK                         _______ _______ _______ _____ _____    ______ ____
ROOT
ATOM      1  N   UNL     1      -2.811  -3.178  -1.381  0.00  0.00    +0.386 N 
ATOM      2  H   UNL     1      -2.930  -2.334  -1.922  0.00  0.00    -0.085 HD
ATOM      3  H   UNL     1      -2.079  -3.739  -1.791  0.00  0.00    -0.085 HD
ENDROOT
BRANCH   1   4
ATOM      4  C   UNL     1      -4.067  -3.940  -1.379  0.00  0.00    -0.040 C 
ATOM      5  C   UNL     1      -4.420  -4.395  -2.811  0.00  0.00    -0.007 C 
ATOM      6  C   UNL     1      -5.325  -3.248  -3.310  0.00  0.00    +0.034 C 
ATOM      7  C   UNL     1      -5.940  -2.657  -2.060  0.00  0.00    -0.044 A 
ATOM      8  C   UNL     1      -5.217  -3.055  -0.948  0.00  0.00    -0.058 A 
ATOM      9  C   UNL     1      -5.599  -2.633   0.315  0.00  0.00    +0.004 A 
ATOM     10  C   UNL     1      -6.701  -1.814   0.470  0.00  0.00    +0.020 A 
ATOM     11  C   UNL     1      -7.426  -1.415  -0.638  0.00  0.00    +0.041 A 
ATOM     12  C   UNL     1      -7.045  -1.837  -1.905  0.00  0.00    +0.023 A 
ATOM     13 CL   UNL     1      -8.812  -0.387  -0.447  0.00  0.00    -0.084 Cl
ENDBRANCH   1   4
BRANCH   1  14
ATOM     14  C   UNL     1      -2.448  -2.829  -0.002  0.00  0.00    -0.039 C 
BRANCH  14  18
ATOM     15  C   UNL     1      -0.018   1.461   0.010  0.00  0.00    +0.153 C 
ATOM     16  N   UNL     1       0.002  -0.004   0.002  0.00  0.00    -0.303 N 
ATOM     17  C   UNL     1      -1.177  -0.698   0.004  0.00  0.00    +0.097 A 
ATOM     18  C   UNL     1      -1.159  -2.048  -0.004  0.00  0.00    +0.016 A 
ATOM     19  C   UNL     1       0.087  -2.720  -0.014  0.00  0.00    +0.258 A 
ATOM     20  O   UNL     1       0.129  -3.937  -0.022  0.00  0.00    -0.267 OA
ATOM     21  N   UNL     1       1.227  -2.000  -0.016  0.00  0.00    -0.264 N 
ATOM     22  C   UNL     1       1.180  -0.654  -0.013  0.00  0.00    +0.331 A 
ATOM     23  O   UNL     1       2.216  -0.018  -0.019  0.00  0.00    -0.246 OA
ATOM     24  C   UNL     1       2.522  -2.684  -0.026  0.00  0.00    +0.157 C 
ENDBRANCH  14  18
ENDBRANCH   1  14
TORSDOF 3
