REMARK  Name = ZINC39694997
REMARK  7 active torsions:
REMARK  status: ('A' for Active; 'I' for Inactive)
REMARK    1  A    between atoms: C_1  and  C_2
REMARK    2  A    between atoms: C_3  and  C_9
REMARK    3  A    between atoms: C_9  and  N_10
REMARK    4  A    between atoms: C_11  and  C_13
REMARK    5  A    between atoms: C_24  and  C_26
REMARK    6  A    between atoms: C_29  and  O_32
REMARK    7  A    between atoms: O_32  and  C_33
REMARK                            x       y       z     vdW  Elec       q    Type
REMARK                         _______ _______ _______ _____ _____    ______ ____
ROOT
ATOM      1  C   UNL     1       3.628   1.850  -4.154  0.00  0.00    +0.100 C 
ATOM      2  C   UNL     1       4.310   0.469  -4.277  0.00  0.00    +0.121 C 
ATOM      3  N   UNL     1       4.286   0.168  -5.728  0.00  0.00    -0.296 N 
ATOM      4  C   UNL     1       4.576   1.468  -6.379  0.00  0.00    +0.115 C 
ATOM      5  C   UNL     1       3.808   2.504  -5.535  0.00  0.00    -0.004 C 
ATOM      6  C   UNL     1       4.620   3.789  -5.409  0.00  0.00    -0.010 C 
ATOM      7  C   UNL     1       4.736   4.452  -6.785  0.00  0.00    -0.082 C 
ATOM      8  N   UNL     1       3.394   4.745  -7.303  0.00  0.00    +0.379 N 
ATOM      9  C   UNL     1       2.652   3.496  -7.508  0.00  0.00    -0.082 C 
ATOM     10  C   UNL     1       2.448   2.793  -6.163  0.00  0.00    -0.010 C 
ATOM     11  C   UNL     1       4.054  -1.020  -6.321  0.00  0.00    +0.247 C 
ATOM     12  O   UNL     1       3.707  -1.975  -5.654  0.00  0.00    -0.270 OA
ATOM     13  H   UNL     1       2.898   5.324  -6.641  0.00  0.00    -0.086 HD
ATOM     14  H   UNL     1       3.474   5.236  -8.181  0.00  0.00    -0.086 HD
ENDROOT
BRANCH  11  15
ATOM     15  C   UNL     1       4.223  -1.161  -7.781  0.00  0.00    +0.037 A 
ATOM     16  C   UNL     1       5.016  -0.252  -8.486  0.00  0.00    +0.016 A 
ATOM     17  C   UNL     1       5.171  -0.388  -9.847  0.00  0.00    +0.047 A 
ATOM     18  C   UNL     1       4.538  -1.426 -10.521  0.00  0.00    +0.130 A 
ATOM     19  C   UNL     1       3.748  -2.332  -9.823  0.00  0.00    +0.047 A 
ATOM     20  C   UNL     1       3.593  -2.207  -8.460  0.00  0.00    +0.016 A 
BRANCH  18  21
ATOM     21  O   UNL     1       4.693  -1.556 -11.863  0.00  0.00    -0.406 OA
BRANCH  21  22
ATOM     22  C   UNL     1       4.014  -2.645 -12.491  0.00  0.00    +0.575 C 
ATOM     23  F   UNL     1       2.637  -2.521 -12.282  0.00  0.00    -0.133 F 
ATOM     24  F   UNL     1       4.280  -2.630 -13.865  0.00  0.00    -0.133 F 
ATOM     25  F   UNL     1       4.462  -3.852 -11.943  0.00  0.00    -0.133 F 
ENDBRANCH  21  22
ENDBRANCH  18  21
ENDBRANCH  11  15
BRANCH   1  27
ATOM     26  N   UNL     1       1.492   2.679  -3.222  0.00  0.00    -0.311 N 
ATOM     27  C   UNL     1       2.164   1.686  -3.838  0.00  0.00    +0.218 C 
ATOM     28  O   UNL     1       1.590   0.660  -4.137  0.00  0.00    -0.275 OA
ATOM     29  H   UNL     1       1.951   3.499  -2.983  0.00  0.00    +0.149 HD
BRANCH  26  30
ATOM     30  C   UNL     1       0.069   2.519  -2.915  0.00  0.00    +0.139 C 
BRANCH  30  33
ATOM     31  C   UNL     1      -0.605   4.854  -4.479  0.00  0.00    +0.045 C 
ATOM     32  C   UNL     1      -0.763   4.879  -2.981  0.00  0.00    -0.027 A 
ATOM     33  C   UNL     1      -0.440   3.763  -2.232  0.00  0.00    -0.026 A 
ATOM     34  C   UNL     1      -0.585   3.786  -0.858  0.00  0.00    +0.005 A 
ATOM     35  C   UNL     1      -1.053   4.927  -0.231  0.00  0.00    +0.002 A 
ATOM     36  C   UNL     1      -1.375   6.043  -0.978  0.00  0.00    +0.020 A 
ATOM     37  C   UNL     1      -1.225   6.022  -2.353  0.00  0.00    +0.044 A 
ATOM     38 CL   UNL     1      -1.623   7.427  -3.292  0.00  0.00    -0.083 Cl
ENDBRANCH  30  33
ENDBRANCH  26  30
ENDBRANCH   1  27
TORSDOF 6
