REMARK  Name = ZINC34775548
REMARK  4 active torsions:
REMARK  status: ('A' for Active; 'I' for Inactive)
REMARK    1  A    between atoms: C_1  and  N_2
REMARK    2  A    between atoms: N_10  and  C_11
REMARK    3  A    between atoms: C_12  and  C_22
REMARK    4  A    between atoms: C_13  and  C_16
REMARK                            x       y       z     vdW  Elec       q    Type
REMARK                         _______ _______ _______ _____ _____    ______ ____
ROOT
ATOM      1  C   UNL     1       3.675  -4.863   1.083  0.00  0.00    +0.086 A 
ATOM      2  C   UNL     1       4.356  -5.405   2.160  0.00  0.00    +0.073 A 
ATOM      3  C   UNL     1       5.408  -6.357   1.852  0.00  0.00    +0.003 A 
ATOM      4  C   UNL     1       5.601  -6.604   0.530  0.00  0.00    +0.056 A 
ATOM      5  S   UNL     1       4.381  -5.578  -0.260  0.00  0.00    -0.080 S 
ENDROOT
BRANCH   1  15
ATOM      6  C   UNL     1      -0.007   1.469   0.006  0.00  0.00    -0.096 C 
ATOM      7  N   UNL     1       0.010   0.001  -0.000  0.00  0.00    +0.380 N 
ATOM      8  C   UNL     1       0.686  -0.474  -1.214  0.00  0.00    -0.060 C 
ATOM      9  C   UNL     1       0.603  -2.003  -1.279  0.00  0.00    +0.091 C 
ATOM     10  N   UNL     1       1.146  -2.553  -0.027  0.00  0.00    -0.289 N 
ATOM     11  C   UNL     1       0.639  -2.013   1.244  0.00  0.00    +0.091 C 
ATOM     12  C   UNL     1       0.720  -0.484   1.190  0.00  0.00    -0.060 C 
ATOM     13  C   UNL     1       2.081  -3.523  -0.045  0.00  0.00    +0.307 C 
ATOM     14  O   UNL     1       2.422  -4.020  -1.101  0.00  0.00    -0.252 OA
ATOM     15  N   UNL     1       2.639  -3.943   1.108  0.00  0.00    -0.263 N 
ATOM     16  H   UNL     1       2.315  -3.600   1.956  0.00  0.00    +0.157 HD
ATOM     17  H   UNL     1      -0.938  -0.345   0.011  0.00  0.00    -0.082 HD
ENDBRANCH   1  15
BRANCH   3  18
ATOM     18  C   UNL     1       6.217  -7.012   2.907  0.00  0.00    -0.017 A 
ATOM     19  C   UNL     1       6.809  -6.248   3.911  0.00  0.00    +0.008 A 
ATOM     20  C   UNL     1       7.562  -6.864   4.890  0.00  0.00    +0.001 A 
ATOM     21  C   UNL     1       7.728  -8.237   4.877  0.00  0.00    +0.000 A 
ATOM     22  C   UNL     1       7.143  -9.001   3.883  0.00  0.00    +0.001 A 
ATOM     23  C   UNL     1       6.384  -8.396   2.902  0.00  0.00    +0.008 A 
ENDBRANCH   3  18
BRANCH   2  24
ATOM     24  C   UNL     1       4.031  -5.036   3.540  0.00  0.00    +0.244 C 
ATOM     25  O   UNL     1       3.198  -5.671   4.160  0.00  0.00    -0.270 OA
ATOM     26  N   UNL     1       4.656  -3.994   4.124  0.00  0.00    -0.325 N 
ATOM     27  H   UNL     1       5.320  -3.489   3.630  0.00  0.00    +0.145 HD
ATOM     28  H   UNL     1       4.441  -3.750   5.037  0.00  0.00    +0.145 HD
ENDBRANCH   2  24
TORSDOF 3
