REMARK  Name = ZINC52094610
REMARK  5 active torsions:
REMARK  status: ('A' for Active; 'I' for Inactive)
REMARK    1  A    between atoms: C_1  and  C_2
REMARK    2  A    between atoms: C_2  and  N_3
REMARK    3  A    between atoms: N_3  and  C_4
REMARK    4  A    between atoms: C_4  and  C_6
REMARK    5  A    between atoms: C_4  and  C_19
REMARK                            x       y       z     vdW  Elec       q    Type
REMARK                         _______ _______ _______ _____ _____    ______ ____
ROOT
ATOM      1  C   UNL     1       1.244  -2.527   2.499  0.00  0.00    -0.045 A 
ATOM      2  C   UNL     1       2.014  -1.722   3.316  0.00  0.00    +0.031 A 
ATOM      3  C   UNL     1       2.580  -2.248   4.467  0.00  0.00    +0.067 A 
ATOM      4  C   UNL     1       2.369  -3.588   4.797  0.00  0.00    +0.068 A 
ATOM      5  C   UNL     1       1.595  -4.389   3.971  0.00  0.00    +0.043 A 
ATOM      6  C   UNL     1       1.030  -3.855   2.828  0.00  0.00    +0.022 A 
ATOM      7 BR   UNL     1      -0.032  -4.945   1.706  0.00  0.00    -0.050 Br
ATOM      8  N   UNL     1       3.051  -3.822   5.989  0.00  0.00    -0.306 N 
ATOM      9  H   UNL     1       3.089  -4.666   6.465  0.00  0.00    +0.170 HD
ATOM     10  C   UNL     1       3.649  -2.676   6.367  0.00  0.00    +0.325 A 
ATOM     11  O   UNL     1       4.328  -2.537   7.367  0.00  0.00    -0.247 OA
ATOM     12  N   UNL     1       3.383  -1.708   5.469  0.00  0.00    -0.306 N 
ATOM     13  H   UNL     1       3.698  -0.792   5.513  0.00  0.00    +0.170 HD
ENDROOT
BRANCH   1  14
ATOM     14  C   UNL     1       0.629  -1.956   1.247  0.00  0.00    -0.034 C 
BRANCH  14  15
ATOM     15  C   UNL     1       1.634  -2.051   0.097  0.00  0.00    +0.007 C 
ATOM     16  C   UNL     1       2.044  -3.527  -0.159  0.00  0.00    +0.032 C 
ATOM     17  C   UNL     1       2.400  -3.477  -1.666  0.00  0.00    +0.160 C 
ATOM     18  O   UNL     1       1.455  -2.562  -2.244  0.00  0.00    -0.380 OA
ATOM     19  C   UNL     1       0.975  -1.653  -1.242  0.00  0.00    +0.162 C 
ENDBRANCH  14  15
BRANCH  14  20
ATOM     20  N   UNL     1       0.275  -0.549   1.473  0.00  0.00    +0.384 N 
ATOM     21  H   UNL     1       1.118  -0.001   1.564  0.00  0.00    -0.085 HD
ATOM     22  H   UNL     1      -0.270  -0.471   2.319  0.00  0.00    -0.085 HD
BRANCH  20  24
ATOM     23  C   UNL     1      -1.009   1.362   0.639  0.00  0.00    -0.017 C 
ATOM     24  C   UNL     1      -0.511  -0.053   0.336  0.00  0.00    -0.085 C 
ENDBRANCH  20  24
ENDBRANCH  14  20
ENDBRANCH   1  14
TORSDOF 4
