REMARK  Name = ZINC51661574
REMARK  7 active torsions:
REMARK  status: ('A' for Active; 'I' for Inactive)
REMARK    1  A    between atoms: C_1  and  C_2
REMARK    2  A    between atoms: C_2  and  C_4
REMARK    3  A    between atoms: C_2  and  N_7
REMARK    4  A    between atoms: N_15  and  C_16
REMARK    5  A    between atoms: C_16  and  C_17
REMARK    6  A    between atoms: C_17  and  S_18
REMARK    7  A    between atoms: S_18  and  C_21
REMARK                            x       y       z     vdW  Elec       q    Type
REMARK                         _______ _______ _______ _____ _____    ______ ____
ROOT
ATOM      1  N   UNL     1       0.687  -0.475  -1.208  0.00  0.00    +0.391 N 
ATOM      2  C   UNL     1      -0.014   0.022  -2.399  0.00  0.00    -0.058 C 
ATOM      3  C   UNL     1       0.768  -0.378  -3.655  0.00  0.00    +0.091 C 
ATOM      4  N   UNL     1       0.970  -1.835  -3.634  0.00  0.00    -0.289 N 
ATOM      5  C   UNL     1       1.519  -2.441  -2.410  0.00  0.00    +0.091 C 
ATOM      6  C   UNL     1       0.702  -1.943  -1.213  0.00  0.00    -0.058 C 
ATOM      7  C   UNL     1       0.662  -2.593  -4.704  0.00  0.00    +0.302 C 
ATOM      8  O   UNL     1       0.121  -2.089  -5.670  0.00  0.00    -0.253 OA
ATOM      9  N   UNL     1       0.952  -3.909  -4.704  0.00  0.00    -0.298 N 
ATOM     10  H   UNL     1       1.316  -4.325  -3.908  0.00  0.00    +0.150 HD
ATOM     11  H   UNL     1       1.635  -0.131  -1.211  0.00  0.00    -0.081 HD
ENDROOT
BRANCH   1  13
ATOM     12  C   UNL     1      -0.018   1.532   0.005  0.00  0.00    -0.002 C 
ATOM     13  C   UNL     1      -0.002   0.002  -0.002  0.00  0.00    +0.044 C 
BRANCH  13  14
ATOM     14  C   UNL     1       0.722  -0.499   1.221  0.00  0.00    +0.343 C 
ATOM     15  O   UNL     1       0.104  -0.713   2.250  0.00  0.00    -0.248 OA
ATOM     16  O   UNL     1       1.926  -0.689   1.182  0.00  0.00    -0.248 OA
ENDBRANCH  13  14
ENDBRANCH   1  13
BRANCH   9  17
ATOM     17  C   UNL     1       0.717  -4.711  -5.908  0.00  0.00    +0.128 C 
BRANCH  17  18
ATOM     18  C   UNL     1       1.127  -6.161  -5.643  0.00  0.00    +0.184 C 
BRANCH  18  19
ATOM     19  S   UNL     1       0.836  -7.154  -7.133  0.00  0.00    -0.032 S 
ATOM     20  O   UNL     1      -0.563  -7.193  -7.380  0.00  0.00    -0.175 OA
ATOM     21  O   UNL     1       1.706  -6.693  -8.157  0.00  0.00    -0.175 OA
ATOM     22  C   UNL     1       1.375  -8.809  -6.623  0.00  0.00    +0.194 C 
ENDBRANCH  18  19
ENDBRANCH  17  18
ENDBRANCH   9  17
TORSDOF 5
