REMARK  Name = ZINC12303183
REMARK  7 active torsions:
REMARK  status: ('A' for Active; 'I' for Inactive)
REMARK    1  A    between atoms: C_1  and  C_2
REMARK    2  A    between atoms: C_5  and  C_11
REMARK    3  A    between atoms: C_11  and  C_12
REMARK    4  A    between atoms: C_17  and  C_20
REMARK    5  A    between atoms: C_17  and  C_27
REMARK    6  A    between atoms: C_20  and  C_21
REMARK    7  A    between atoms: C_27  and  O_28
REMARK                            x       y       z     vdW  Elec       q    Type
REMARK                         _______ _______ _______ _____ _____    ______ ____
ROOT
ATOM      1  C   UNL     1      -2.009  -0.999  -3.439  0.00  0.00    +0.217 C 
ATOM      2  O   UNL     1      -3.179  -1.310  -3.364  0.00  0.00    -0.276 OA
ATOM      3  N   UNL     1      -1.419  -0.343  -2.420  0.00  0.00    -0.301 N 
ATOM      4  C   UNL     1      -2.181   0.003  -1.212  0.00  0.00    +0.108 C 
ATOM      5  C   UNL     1      -1.434  -0.533   0.013  0.00  0.00    +0.028 C 
ATOM      6  C   UNL     1       0.002  -0.004   0.002  0.00  0.00    +0.001 C 
ATOM      7  C   UNL     1       0.720  -0.497  -1.256  0.00  0.00    +0.028 C 
ATOM      8  C   UNL     1      -0.003   0.040  -2.495  0.00  0.00    +0.108 C 
ENDROOT
BRANCH   1   9
ATOM      9  C   UNL     1      -1.214  -1.347  -4.671  0.00  0.00    +0.118 C 
BRANCH   9  13
ATOM     10  C   UNL     1      -2.853  -4.439  -7.309  0.00  0.00    +0.028 C 
ATOM     11  C   UNL     1      -2.216  -3.178  -7.898  0.00  0.00    +0.071 C 
ATOM     12  C   UNL     1      -1.278  -2.547  -6.864  0.00  0.00    +0.044 C 
ATOM     13  C   UNL     1      -2.113  -2.083  -5.666  0.00  0.00    +0.082 C 
ATOM     14  N   UNL     1      -3.166  -1.181  -6.135  0.00  0.00    -0.323 N 
ATOM     15  C   UNL     1      -3.681  -1.292  -7.369  0.00  0.00    +0.131 C 
ATOM     16  S   UNL     1      -4.921  -0.210  -7.842  0.00  0.00    -0.019 S 
ATOM     17  N   UNL     1      -3.264  -2.216  -8.246  0.00  0.00    -0.324 N 
ATOM     18  H   UNL     1      -3.498  -0.489  -5.542  0.00  0.00    +0.148 HD
ATOM     19  H   UNL     1      -3.664  -2.249  -9.129  0.00  0.00    +0.148 HD
ENDBRANCH   9  13
ENDBRANCH   1   9
BRANCH   6  20
ATOM     20  C   UNL     1       0.742  -0.511   1.242  0.00  0.00    +0.044 C 
BRANCH  20  21
ATOM     21  C   UNL     1       2.155   0.011   1.232  0.00  0.00    -0.047 A 
ATOM     22  C   UNL     1       3.158  -0.722   0.625  0.00  0.00    +0.003 A 
ATOM     23  C   UNL     1       4.454  -0.241   0.612  0.00  0.00    +0.000 A 
ATOM     24  C   UNL     1       4.749   0.968   1.214  0.00  0.00    +0.000 A 
ATOM     25  C   UNL     1       3.747   1.699   1.825  0.00  0.00    +0.000 A 
ATOM     26  C   UNL     1       2.450   1.220   1.834  0.00  0.00    +0.003 A 
ENDBRANCH  20  21
ENDBRANCH   6  20
BRANCH   6  27
ATOM     27  C   UNL     1      -0.019   1.526   0.010  0.00  0.00    +0.163 C 
BRANCH  27  28
ATOM     28  O   UNL     1       1.322   2.020   0.000  0.00  0.00    -0.394 OA
ATOM     29  H   UNL     1       1.385   2.985   0.005  0.00  0.00    +0.209 HD
ENDBRANCH  27  28
ENDBRANCH   6  27
TORSDOF 6
