REMARK  Name = ZINC39469523
REMARK  8 active torsions:
REMARK  status: ('A' for Active; 'I' for Inactive)
REMARK    1  A    between atoms: C_1  and  C_2
REMARK    2  A    between atoms: C_2  and  O_3
REMARK    3  A    between atoms: O_3  and  C_4
REMARK    4  A    between atoms: P_13  and  O_24
REMARK    5  A    between atoms: C_21  and  O_22
REMARK    6  A    between atoms: O_22  and  C_23
REMARK    7  A    between atoms: O_24  and  C_25
REMARK    8  A    between atoms: C_25  and  C_26
REMARK                            x       y       z     vdW  Elec       q    Type
REMARK                         _______ _______ _______ _____ _____    ______ ____
ROOT
ATOM      1  C   UNL     1       0.802  -1.824   1.306  0.00  0.00    +0.158 C 
ATOM      2  C   UNL     1       0.280  -2.645   0.387  0.00  0.00    +0.026 C 
ATOM      3  C   UNL     1       0.429  -4.130   0.572  0.00  0.00    +0.025 C 
ATOM      4  C   UNL     1       0.307  -4.871  -0.756  0.00  0.00    +0.031 C 
ATOM      5  C   UNL     1       0.489  -6.377  -0.522  0.00  0.00    +0.100 C 
ATOM      6  C   UNL     1       0.406  -7.064  -1.891  0.00  0.00    +0.191 C 
ATOM      7  O   UNL     1       0.505  -8.489  -1.721  0.00  0.00    -0.294 OA
ATOM      8  P   UNL     1       1.741  -9.063  -0.832  0.00  0.00    +0.421 P 
ATOM      9  O   UNL     1       2.981  -9.100  -1.639  0.00  0.00    -0.239 OA
ATOM     10  N   UNL     1       1.905  -8.002   0.422  0.00  0.00    -0.156 NA
ATOM     11  N   UNL     1       1.772  -6.660   0.122  0.00  0.00    -0.228 NA
ATOM     12  C   UNL     1       1.948  -5.922   1.387  0.00  0.00    +0.111 C 
ATOM     13  C   UNL     1       1.818  -4.423   1.153  0.00  0.00    +0.038 C 
ATOM     14  C   UNL     1       1.994  -3.632   2.420  0.00  0.00    +0.028 C 
ATOM     15  C   UNL     1       1.503  -2.391   2.478  0.00  0.00    +0.158 C 
ATOM     16  H   UNL     1       2.094  -8.311   1.322  0.00  0.00    +0.153 HD
ENDROOT
BRANCH  15  17
ATOM     17  O   UNL     1       1.644  -1.656   3.612  0.00  0.00    -0.492 OA
ATOM     18  C   UNL     1       2.333  -2.271   4.703  0.00  0.00    +0.277 C 
ENDBRANCH  15  17
BRANCH   1  19
ATOM     19  O   UNL     1       0.693  -0.477   1.160  0.00  0.00    -0.489 OA
BRANCH  19  21
ATOM     20  C   UNL     1      -0.019   1.526   0.010  0.00  0.00    +0.048 C 
ATOM     21  C   UNL     1       0.002  -0.004   0.002  0.00  0.00    +0.226 C 
ENDBRANCH  19  21
ENDBRANCH   1  19
BRANCH   8  22
ATOM     22  O   UNL     1       1.393 -10.535  -0.279  0.00  0.00    -0.296 OA
BRANCH  22  23
ATOM     23  C   UNL     1       2.358 -11.376   0.356  0.00  0.00    +0.168 C 
ATOM     24  C   UNL     1       1.698 -12.697   0.757  0.00  0.00    +0.035 C 
ENDBRANCH  22  23
ENDBRANCH   8  22
TORSDOF 5
