REMARK  Name = ZINC39855913
REMARK  10 active torsions:
REMARK  status: ('A' for Active; 'I' for Inactive)
REMARK    1  A    between atoms: C_1  and  C_2
REMARK    2  A    between atoms: C_6  and  C_7
REMARK    3  A    between atoms: N_9  and  C_10
REMARK    4  A    between atoms: C_10  and  C_11
REMARK    5  A    between atoms: C_11  and  C_12
REMARK    6  A    between atoms: C_12  and  O_13
REMARK    7  A    between atoms: O_13  and  C_14
REMARK    8  A    between atoms: C_16  and  C_24
REMARK    9  A    between atoms: C_16  and  C_25
REMARK   10  A    between atoms: N_19  and  N_20
REMARK                            x       y       z     vdW  Elec       q    Type
REMARK                         _______ _______ _______ _____ _____    ______ ____
ROOT
ATOM      1  C   UNL     1      -0.018   1.503   0.010  0.00  0.00    +0.048 C 
ATOM      2  C   UNL     1       0.002  -0.004   0.002  0.00  0.00    +0.009 A 
ATOM      3  C   UNL     1       0.009  -0.838  -1.123  0.00  0.00    +0.043 A 
ATOM      4  C   UNL     1       0.027  -2.137  -0.673  0.00  0.00    +0.116 A 
ATOM      5  O   UNL     1       0.035  -2.112   0.658  0.00  0.00    -0.454 OA
ATOM      6  C   UNL     1       0.024  -0.830   1.091  0.00  0.00    +0.193 A 
ATOM      7  C   UNL     1       0.034  -3.326  -1.600  0.00  0.00    +0.081 C 
ATOM      8  C   UNL     1      -0.492  -2.902  -2.974  0.00  0.00    -0.023 C 
ATOM      9  C   UNL     1       0.279  -1.685  -3.495  0.00  0.00    +0.064 C 
ATOM     10  C   UNL     1       0.000  -0.512  -2.566  0.00  0.00    +0.073 C 
ATOM     11  N   UNL     1      -0.228   0.686  -3.007  0.00  0.00    -0.175 NA
ATOM     12  C   UNL     1      -0.325  -4.063  -3.957  0.00  0.00    +0.011 C 
ATOM     13  C   UNL     1      -1.976  -2.549  -2.860  0.00  0.00    +0.011 C 
ENDROOT
BRANCH  11  14
ATOM     14  N   UNL     1      -0.224   0.938  -4.386  0.00  0.00    -0.248 N 
ATOM     15  C   UNL     1      -0.465   2.202  -4.852  0.00  0.00    +0.187 C 
ATOM     16  N   UNL     1      -0.460   2.442  -6.163  0.00  0.00    -0.370 N 
ATOM     17  N   UNL     1      -0.704   3.194  -3.994  0.00  0.00    -0.370 N 
ATOM     18  H   UNL     1      -0.050   0.216  -5.010  0.00  0.00    +0.192 HD
ATOM     19  H   UNL     1      -0.286   1.720  -6.787  0.00  0.00    +0.159 HD
ATOM     20  H   UNL     1      -0.707   3.020  -3.040  0.00  0.00    +0.159 HD
ATOM     21  H   UNL     1      -0.874   4.090  -4.324  0.00  0.00    +0.159 HD
ATOM     22  H   UNL     1      -0.631   3.338  -6.493  0.00  0.00    +0.159 HD
ENDBRANCH  11  14
BRANCH   6  23
ATOM     23  C   UNL     1       0.032  -0.400   2.494  0.00  0.00    +0.280 C 
ATOM     24  O   UNL     1       0.018   0.786   2.766  0.00  0.00    -0.267 OA
ATOM     25  N   UNL     1       0.054  -1.317   3.480  0.00  0.00    -0.309 N 
ATOM     26  H   UNL     1       0.065  -2.263   3.263  0.00  0.00    +0.149 HD
BRANCH  25  27
ATOM     27  C   UNL     1       0.061  -0.887   4.881  0.00  0.00    +0.107 C 
BRANCH  27  28
ATOM     28  C   UNL     1       0.087  -2.116   5.792  0.00  0.00    +0.047 C 
BRANCH  28  29
ATOM     29  C   UNL     1       0.095  -1.667   7.254  0.00  0.00    +0.161 C 
BRANCH  29  30
ATOM     30  O   UNL     1       0.119  -2.815   8.105  0.00  0.00    -0.383 OA
ATOM     31  C   UNL     1       0.129  -2.505   9.500  0.00  0.00    +0.193 C 
ENDBRANCH  29  30
ENDBRANCH  28  29
ENDBRANCH  27  28
ENDBRANCH  25  27
ENDBRANCH   6  23
TORSDOF 6
