REMARK  Name = ZINC51036568
REMARK  4 active torsions:
REMARK  status: ('A' for Active; 'I' for Inactive)
REMARK    1  A    between atoms: C_1  and  C_2
REMARK    2  A    between atoms: C_4  and  C_19
REMARK    3  A    between atoms: C_7  and  S_8
REMARK    4  A    between atoms: S_8  and  C_9
REMARK                            x       y       z     vdW  Elec       q    Type
REMARK                         _______ _______ _______ _____ _____    ______ ____
ROOT
ATOM      1  C   UNL     1      -0.044   1.951   0.281  0.00  0.00    +0.045 C 
ATOM      2  C   UNL     1      -0.070   0.468   0.014  0.00  0.00    -0.036 A 
ATOM      3  C   UNL     1      -0.116   0.002  -1.280  0.00  0.00    +0.015 A 
ATOM      4  C   UNL     1      -0.140  -1.373  -1.526  0.00  0.00    +0.012 A 
ATOM      5  C   UNL     1      -0.116  -2.272  -0.456  0.00  0.00    +0.012 A 
ATOM      6  C   UNL     1      -0.070  -1.801   0.836  0.00  0.00    +0.016 A 
ATOM      7  C   UNL     1      -0.041  -0.430   1.078  0.00  0.00    +0.017 A 
ENDROOT
BRANCH   4   8
ATOM      8  C   UNL     1      -0.190  -1.875  -2.914  0.00  0.00    +0.094 C 
ATOM      9  N   UNL     1      -0.212  -3.187  -3.147  0.00  0.00    -0.387 N 
ATOM     10  N   UNL     1      -0.213  -1.017  -3.933  0.00  0.00    -0.345 N 
ATOM     11  H   UNL     1      -0.195  -3.812  -2.405  0.00  0.00    +0.157 HD
ATOM     12  H   UNL     1      -0.196  -0.062  -3.763  0.00  0.00    +0.144 HD
ATOM     13  H   UNL     1      -0.246  -1.347  -4.845  0.00  0.00    +0.144 HD
ATOM     14  H   UNL     1      -0.245  -3.517  -4.059  0.00  0.00    +0.157 HD
ENDBRANCH   4   8
BRANCH   7  15
ATOM     15  S   UNL     1       0.026   0.169   2.733  0.00  0.00    -0.067 S 
BRANCH  15  16
ATOM     16  C   UNL     1       1.706   0.656   2.943  0.00  0.00    +0.130 A 
ATOM     17  C   UNL     1       2.125   1.288   4.116  0.00  0.00    +0.118 A 
ATOM     18  C   UNL     1       3.475   1.657   4.236  0.00  0.00    +0.182 A 
ATOM     19  N   UNL     1       3.615   2.240   5.441  0.00  0.00    -0.216 NA
ATOM     20  H   UNL     1       0.580   1.569   5.516  0.00  0.00    +0.167 HD
ATOM     21  C   UNL     1       2.466   2.255   6.059  0.00  0.00    +0.199 A 
ATOM     22  N   UNL     1       1.516   1.682   5.288  0.00  0.00    -0.341 N 
ATOM     23  N   UNL     1       4.306   1.387   3.223  0.00  0.00    -0.214 NA
ATOM     24  C   UNL     1       3.866   0.789   2.138  0.00  0.00    +0.224 A 
ATOM     25  N   UNL     1       2.606   0.424   1.990  0.00  0.00    -0.227 NA
ENDBRANCH  15  16
ENDBRANCH   7  15
TORSDOF 3
