REMARK  Name = ZINC42183589
REMARK  12 active torsions:
REMARK  status: ('A' for Active; 'I' for Inactive)
REMARK    1  A    between atoms: C_1  and  C_2
REMARK    2  A    between atoms: C_2  and  C_3
REMARK    3  A    between atoms: C_2  and  C_4
REMARK    4  A    between atoms: C_4  and  C_6
REMARK    5  A    between atoms: C_4  and  N_13
REMARK    6  A    between atoms: N_8  and  C_9
REMARK    7  A    between atoms: C_9  and  C_10
REMARK    8  A    between atoms: C_9  and  C_11
REMARK    9  A    between atoms: C_9  and  C_12
REMARK   10  A    between atoms: N_13  and  C_14
REMARK   11  A    between atoms: C_14  and  C_15
REMARK   12  A    between atoms: C_18  and  N_21
REMARK                            x       y       z     vdW  Elec       q    Type
REMARK                         _______ _______ _______ _____ _____    ______ ____
ROOT
ATOM      1  N   UNL     1      -1.819  -1.704   0.308  0.00  0.00    +0.389 N 
ATOM      2  H   UNL     1      -2.821  -1.821   0.290  0.00  0.00    -0.084 HD
ATOM      3  H   UNL     1      -1.406  -2.222  -0.453  0.00  0.00    -0.084 HD
ENDROOT
BRANCH   1   4
ATOM      4  C   UNL     1      -1.489  -0.279   0.165  0.00  0.00    +0.019 C 
BRANCH   4   5
ATOM      5  C   UNL     1      -2.169   0.273  -1.061  0.00  0.00    +0.200 C 
ATOM      6  O   UNL     1      -2.585  -0.481  -1.916  0.00  0.00    -0.278 OA
ATOM      7  N   UNL     1      -2.315   1.605  -1.209  0.00  0.00    -0.312 N 
ATOM      8  H   UNL     1      -1.916   2.211  -0.565  0.00  0.00    +0.149 HD
BRANCH   7   9
ATOM      9  C   UNL     1      -3.076   2.137  -2.341  0.00  0.00    +0.026 C 
ATOM     10  C   UNL     1      -4.512   1.613  -2.282  0.00  0.00    +0.031 C 
ATOM     11  C   UNL     1      -3.089   3.666  -2.274  0.00  0.00    +0.031 C 
ATOM     12  C   UNL     1      -2.423   1.690  -3.651  0.00  0.00    +0.031 C 
ENDBRANCH   7   9
ENDBRANCH   4   5
BRANCH   4  14
ATOM     13  C   UNL     1       0.488  -0.760  -1.285  0.00  0.00    +0.006 C 
ATOM     14  C   UNL     1       0.026  -0.118   0.024  0.00  0.00    -0.023 C 
ATOM     15  C   UNL     1       0.382   1.370   0.016  0.00  0.00    +0.006 C 
ENDBRANCH   4  14
ENDBRANCH   1   4
BRANCH   1  16
ATOM     16  C   UNL     1      -1.290  -2.203   1.584  0.00  0.00    -0.046 C 
BRANCH  16  17
ATOM     17  C   UNL     1      -1.536  -3.687   1.684  0.00  0.00    -0.064 A 
ATOM     18  C   UNL     1      -2.710  -4.155   2.245  0.00  0.00    +0.003 A 
ATOM     19  C   UNL     1      -2.938  -5.513   2.338  0.00  0.00    +0.023 A 
ATOM     20  C   UNL     1      -1.988  -6.410   1.867  0.00  0.00    +0.030 A 
ATOM     21  C   UNL     1      -0.810  -5.936   1.303  0.00  0.00    +0.023 A 
ATOM     22  C   UNL     1      -0.590  -4.576   1.208  0.00  0.00    +0.003 A 
BRANCH  20  23
ATOM     23  N   UNL     1      -2.216  -7.785   1.960  0.00  0.00    -0.320 N 
ATOM     24  C   UNL     1      -1.179  -8.761   1.585  0.00  0.00    +0.124 C 
ATOM     25  C   UNL     1      -0.832  -9.589   2.824  0.00  0.00    +0.123 C 
ATOM     26  N   UNL     1      -2.041 -10.039   3.500  0.00  0.00    -0.313 N 
ATOM     27  C   UNL     1      -3.237  -9.462   3.375  0.00  0.00    +0.230 C 
ATOM     28  O   UNL     1      -4.154  -9.879   4.051  0.00  0.00    -0.274 OA
ATOM     29  C   UNL     1      -3.499  -8.317   2.442  0.00  0.00    +0.200 C 
ATOM     30  H   UNL     1      -1.972 -10.812   4.081  0.00  0.00    +0.149 HD
ENDBRANCH  20  23
ENDBRANCH  16  17
ENDBRANCH   1  16
TORSDOF 7
