REMARK  Name = ZINC20930687
REMARK  8 active torsions:
REMARK  status: ('A' for Active; 'I' for Inactive)
REMARK    1  A    between atoms: C_1  and  C_2
REMARK    2  A    between atoms: C_2  and  C_22
REMARK    3  A    between atoms: N_3  and  N_4
REMARK    4  A    between atoms: C_5  and  C_7
REMARK    5  A    between atoms: C_12  and  N_13
REMARK    6  A    between atoms: N_13  and  S_14
REMARK    7  A    between atoms: S_14  and  C_17
REMARK    8  A    between atoms: C_25  and  O_28
REMARK                            x       y       z     vdW  Elec       q    Type
REMARK                         _______ _______ _______ _____ _____    ______ ____
ROOT
ATOM      1  N   UNL     1       0.940   2.438   0.295  0.00  0.00    -0.203 N 
ATOM      2  C   UNL     1      -0.156   1.658   0.205  0.00  0.00    +0.265 C 
ATOM      3  O   UNL     1      -1.253   2.163   0.065  0.00  0.00    -0.268 OA
ATOM      4  H   UNL     1       1.932   1.981   0.417  0.00  0.00    +0.178 HD
ENDROOT
BRANCH   2   5
ATOM      5  C   UNL     1      -0.023   0.191   0.273  0.00  0.00    +0.063 A 
ATOM      6  C   UNL     1       1.237  -0.394   0.423  0.00  0.00    +0.015 A 
ATOM      7  C   UNL     1       1.354  -1.765   0.490  0.00  0.00    +0.001 A 
ATOM      8  C   UNL     1       0.229  -2.569   0.399  0.00  0.00    +0.002 A 
ATOM      9  C   UNL     1      -1.022  -2.007   0.245  0.00  0.00    +0.027 A 
ATOM     10  C   UNL     1      -1.160  -0.626   0.180  0.00  0.00    +0.086 A 
BRANCH  10  11
ATOM     11  N   UNL     1      -2.418  -0.057   0.025  0.00  0.00    -0.097 NA
BRANCH  11  12
ATOM     12  S   UNL     1      -3.735  -0.749   0.752  0.00  0.00    +0.098 S 
ATOM     13  O   UNL     1      -4.831   0.126   0.524  0.00  0.00    -0.148 OA
ATOM     14  O   UNL     1      -3.752  -2.112   0.349  0.00  0.00    -0.148 OA
BRANCH  12  15
ATOM     15  C   UNL     1      -3.437  -0.741   2.488  0.00  0.00    +0.148 A 
ATOM     16  C   UNL     1      -3.748   0.208   3.404  0.00  0.00    +0.037 A 
ATOM     17  C   UNL     1      -3.414  -0.002   4.728  0.00  0.00    +0.010 A 
ATOM     18  C   UNL     1      -2.784  -1.151   5.073  0.00  0.00    +0.047 A 
ATOM     19  S   UNL     1      -2.652  -1.986   3.500  0.00  0.00    -0.077 S 
ENDBRANCH  12  15
ENDBRANCH  11  12
ENDBRANCH  10  11
ENDBRANCH   2   5
BRANCH   1  22
ATOM     20  C   UNL     1       3.228   3.958   0.485  0.00  0.00    +0.068 C 
ATOM     21  C   UNL     1       1.868   4.584   0.317  0.00  0.00    +0.063 C 
ATOM     22  N   UNL     1       0.813   3.832   0.231  0.00  0.00    -0.184 NA
BRANCH  21  23
ATOM     23  C   UNL     1       1.735   6.051   0.249  0.00  0.00    -0.002 A 
ATOM     24  C   UNL     1       2.868   6.862   0.347  0.00  0.00    +0.013 A 
ATOM     25  C   UNL     1       2.740   8.232   0.278  0.00  0.00    +0.046 A 
ATOM     26  C   UNL     1       1.485   8.808   0.123  0.00  0.00    +0.117 A 
ATOM     27  C   UNL     1       0.355   8.005   0.031  0.00  0.00    +0.046 A 
ATOM     28  C   UNL     1       0.475   6.634   0.093  0.00  0.00    +0.013 A 
BRANCH  26  29
ATOM     29  O   UNL     1       1.363  10.159   0.060  0.00  0.00    -0.507 OA
ATOM     30  H   UNL     1       0.370  10.617  -0.063  0.00  0.00    +0.292 HD
ENDBRANCH  26  29
ENDBRANCH  21  23
ENDBRANCH   1  22
TORSDOF 7
