REMARK  Name = ZINC04418245
REMARK  6 active torsions:
REMARK  status: ('A' for Active; 'I' for Inactive)
REMARK    1  A    between atoms: C_1  and  C_2
REMARK    2  A    between atoms: C_2  and  C_3
REMARK    3  A    between atoms: C_2  and  C_4
REMARK    4  A    between atoms: C_2  and  C_5
REMARK    5  A    between atoms: C_8  and  C_10
REMARK    6  A    between atoms: C_8  and  O_14
REMARK                            x       y       z     vdW  Elec       q    Type
REMARK                         _______ _______ _______ _____ _____    ______ ____
ROOT
ATOM      1  C   UNL     1       0.480  -1.723  -0.251  0.00  0.00    +0.047 C 
ATOM      2  N   UNL     1       1.730  -1.878  -0.088  0.00  0.00    -0.183 NA
ATOM      3  N   UNL     1       2.483  -0.718  -0.259  0.00  0.00    -0.149 N 
ATOM      4  C   UNL     1       1.573   0.391  -0.591  0.00  0.00    +0.257 C 
ATOM      5  C   UNL     1       0.184  -0.280  -0.592  0.00  0.00    +0.119 C 
ATOM      6  C   UNL     1       3.860  -0.624  -0.136  0.00  0.00    +0.258 C 
ATOM      7  N   UNL     1       4.335   0.540  -0.342  0.00  0.00    -0.143 NA
ATOM      8  N   UNL     1       5.682   0.862  -0.367  0.00  0.00    -0.223 N 
ATOM      9  C   UNL     1       6.606   0.244   0.408  0.00  0.00    +0.093 C 
ATOM     10  C   UNL     1       6.977  -1.188   0.165  0.00  0.00    +0.146 C 
ATOM     11  C   UNL     1       5.788  -2.087   0.384  0.00  0.00    +0.143 A 
ATOM     12  N   UNL     1       4.492  -1.804   0.184  0.00  0.00    -0.183 N 
ATOM     13  N   UNL     1       3.797  -3.018   0.402  0.00  0.00    -0.151 NA
ATOM     14  C   UNL     1       4.678  -3.905   0.768  0.00  0.00    +0.245 A 
ATOM     15  N   UNL     1       5.882  -3.340   0.771  0.00  0.00    -0.218 NA
ATOM     16  H   UNL     1       5.977   1.561  -0.971  0.00  0.00    +0.176 HD
ATOM     17  H   UNL     1       7.008   1.829   1.610  0.00  0.00    +0.157 HD
ATOM     18  N   UNL     1       7.222   0.854   1.400  0.00  0.00    -0.389 N 
ATOM     19  H   UNL     1       7.916   0.348   1.962  0.00  0.00    +0.157 HD
ENDROOT
BRANCH   1  21
ATOM     20  C   UNL     1       0.139  -4.131   0.230  0.00  0.00    +0.017 C 
ATOM     21  C   UNL     1      -0.552  -2.813  -0.124  0.00  0.00    +0.002 C 
ATOM     22  C   UNL     1      -1.548  -2.447   0.978  0.00  0.00    +0.017 C 
ATOM     23  C   UNL     1      -1.296  -2.969  -1.453  0.00  0.00    +0.017 C 
ENDBRANCH   1  21
BRANCH   4  24
ATOM     24  C   UNL     1       1.898   0.960  -1.974  0.00  0.00    +0.438 C 
ATOM     25  F   UNL     1       0.936   1.913  -2.324  0.00  0.00    -0.166 F 
ATOM     26  F   UNL     1       3.161   1.561  -1.945  0.00  0.00    -0.166 F 
ATOM     27  F   UNL     1       1.895  -0.074  -2.916  0.00  0.00    -0.166 F 
ENDBRANCH   4  24
BRANCH   4  28
ATOM     28  O   UNL     1       1.639   1.413   0.405  0.00  0.00    -0.363 OA
ATOM     29  H   UNL     1       2.492   1.867   0.447  0.00  0.00    +0.212 HD
ENDBRANCH   4  28
TORSDOF 3
