REMARK  Name = ZINC36320017
REMARK  3 active torsions:
REMARK  status: ('A' for Active; 'I' for Inactive)
REMARK    1  A    between atoms: C_5  and  N_10
REMARK    2  A    between atoms: C_6  and  N_7
REMARK    3  A    between atoms: N_10  and  C_11
REMARK                            x       y       z     vdW  Elec       q    Type
REMARK                         _______ _______ _______ _____ _____    ______ ____
ROOT
ATOM      1  C   UNL     1       0.038   1.409   0.289  0.00  0.00    +0.040 A 
ATOM      2  C   UNL     1       1.217   2.082   0.057  0.00  0.00    -0.015 A 
ATOM      3  C   UNL     1       2.386   1.393  -0.240  0.00  0.00    +0.039 A 
ATOM      4  C   UNL     1       2.354   0.002  -0.301  0.00  0.00    +0.048 A 
ATOM      5  C   UNL     1       1.167  -0.676  -0.068  0.00  0.00    +0.060 A 
ATOM      6  C   UNL     1       0.006   0.028   0.229  0.00  0.00    +0.147 A 
ATOM      7  N   UNL     1       3.439   2.288  -0.433  0.00  0.00    -0.285 N 
ATOM      8  C   UNL     1       3.053   3.567  -0.283  0.00  0.00    +0.222 C 
ATOM      9  O   UNL     1       3.756   4.549  -0.394  0.00  0.00    -0.275 OA
ATOM     10  C   UNL     1       1.576   3.551   0.048  0.00  0.00    +0.133 C 
ATOM     11  H   UNL     1       4.345   2.019  -0.649  0.00  0.00    +0.155 HD
ENDROOT
BRANCH   6  12
ATOM     12  N   UNL     1      -1.259  -0.698   0.478  0.00  0.00    +0.058 N 
ATOM     13  O   UNL     1      -2.306  -0.241   0.083  0.00  0.00    -0.126 OA
ATOM     14  O   UNL     1      -1.246  -1.747   1.078  0.00  0.00    -0.126 OA
ENDBRANCH   6  12
BRANCH   5  15
ATOM     15  N   UNL     1       1.139  -2.071  -0.131  0.00  0.00    -0.339 N 
ATOM     16  H   UNL     1       0.294  -2.542  -0.054  0.00  0.00    +0.146 HD
BRANCH  15  17
ATOM     17  C   UNL     1       2.384  -2.822  -0.311  0.00  0.00    +0.075 C 
ATOM     18  C   UNL     1       2.711  -2.919  -1.805  0.00  0.00    +0.050 C 
ATOM     19  C   UNL     1       3.969  -3.771  -1.989  0.00  0.00    +0.161 C 
ATOM     20  O   UNL     1       3.758  -5.061  -1.412  0.00  0.00    -0.380 OA
ATOM     21  C   UNL     1       3.494  -5.036  -0.007  0.00  0.00    +0.161 C 
ATOM     22  C   UNL     1       2.217  -4.235   0.256  0.00  0.00    +0.050 C 
ENDBRANCH  15  17
ENDBRANCH   5  15
TORSDOF 3
