REMARK  Name = ZINC36077536
REMARK  5 active torsions:
REMARK  status: ('A' for Active; 'I' for Inactive)
REMARK    1  A    between atoms: C_1  and  C_2
REMARK    2  A    between atoms: C_2  and  C_4
REMARK    3  A    between atoms: C_2  and  N_18
REMARK    4  A    between atoms: C_4  and  N_5
REMARK    5  A    between atoms: C_6  and  C_8
REMARK                            x       y       z     vdW  Elec       q    Type
REMARK                         _______ _______ _______ _____ _____    ______ ____
ROOT
ATOM      1  N   UNL     1      -1.511  -1.966  -0.363  0.00  0.00    -0.316 N 
ATOM      2  C   UNL     1      -2.684  -2.595  -0.575  0.00  0.00    +0.219 C 
ATOM      3  O   UNL     1      -3.723  -1.971  -0.535  0.00  0.00    -0.275 OA
ATOM      4  H   UNL     1      -0.680  -2.466  -0.396  0.00  0.00    +0.149 HD
ENDROOT
BRANCH   2   5
ATOM      5  C   UNL     1      -2.705  -4.074  -0.862  0.00  0.00    +0.048 C 
ATOM      6  C   UNL     1      -1.898  -4.359  -2.131  0.00  0.00    +0.019 C 
ATOM      7  C   UNL     1      -1.919  -5.861  -2.422  0.00  0.00    -0.009 C 
ATOM      8  C   UNL     1      -3.365  -6.322  -2.622  0.00  0.00    +0.007 C 
ATOM      9  C   UNL     1      -4.171  -6.037  -1.353  0.00  0.00    -0.009 C 
ATOM     10  C   UNL     1      -4.150  -4.535  -1.062  0.00  0.00    +0.019 C 
ATOM     11  C   UNL     1      -3.553  -6.793  -0.176  0.00  0.00    +0.007 C 
ATOM     12  C   UNL     1      -2.108  -6.333   0.025  0.00  0.00    -0.009 C 
ATOM     13  C   UNL     1      -1.302  -6.618  -1.244  0.00  0.00    +0.007 C 
ATOM     14  C   UNL     1      -2.087  -4.831   0.316  0.00  0.00    +0.019 C 
ENDBRANCH   2   5
BRANCH   1  15
ATOM     15  C   UNL     1      -1.491  -0.528  -0.085  0.00  0.00    +0.089 C 
BRANCH  15  17
ATOM     16  C   UNL     1      -0.021   1.477   0.164  0.00  0.00    -0.012 C 
ATOM     17  C   UNL     1      -0.042  -0.042  -0.015  0.00  0.00    -0.054 C 
BRANCH  17  18
ATOM     18  N   UNL     1       0.654  -0.398  -1.258  0.00  0.00    +0.382 N 
ATOM     19  C   UNL     1       2.078  -0.064  -1.133  0.00  0.00    -0.078 C 
ATOM     20  C   UNL     1       2.822  -0.506  -2.395  0.00  0.00    -0.019 C 
ATOM     21  C   UNL     1       2.232   0.215  -3.610  0.00  0.00    -0.004 C 
ATOM     22  C   UNL     1       0.731  -0.082  -3.687  0.00  0.00    -0.019 C 
ATOM     23  C   UNL     1       0.064   0.345  -2.378  0.00  0.00    -0.078 C 
ATOM     24  H   UNL     1       0.557  -1.389  -1.425  0.00  0.00    -0.081 HD
ENDBRANCH  17  18
ENDBRANCH  15  17
ENDBRANCH   1  15
TORSDOF 4
