REMARK  Name = ZINC38080304
REMARK  5 active torsions:
REMARK  status: ('A' for Active; 'I' for Inactive)
REMARK    1  A    between atoms: C_3  and  O_10
REMARK    2  A    between atoms: C_6  and  N_7
REMARK    3  A    between atoms: O_10  and  C_11
REMARK    4  A    between atoms: C_16  and  C_17
REMARK    5  A    between atoms: C_17  and  N_18
REMARK                            x       y       z     vdW  Elec       q    Type
REMARK                         _______ _______ _______ _____ _____    ______ ____
ROOT
ATOM      1  C   UNL     1       4.708   1.401   0.069  0.00  0.00    +0.130 A 
ATOM      2  C   UNL     1       4.683   0.013   0.054  0.00  0.00    +0.049 A 
ATOM      3  C   UNL     1       5.862  -0.699   0.145  0.00  0.00    +0.042 A 
ATOM      4  C   UNL     1       7.070  -0.030   0.251  0.00  0.00    +0.124 A 
ATOM      5  C   UNL     1       7.097   1.354   0.265  0.00  0.00    +0.043 A 
ATOM      6  C   UNL     1       5.919   2.070   0.169  0.00  0.00    -0.020 A 
ATOM      7  F   UNL     1       8.223  -0.729   0.340  0.00  0.00    -0.205 F 
ENDROOT
BRANCH   1   8
ATOM      8  O   UNL     1       3.548   2.103  -0.021  0.00  0.00    -0.456 OA
BRANCH   8  11
ATOM      9  C   UNL     1       0.796   0.056   1.191  0.00  0.00    +0.036 A 
ATOM     10  C   UNL     1       1.985   0.759   1.166  0.00  0.00    +0.048 A 
ATOM     11  C   UNL     1       2.379   1.411   0.006  0.00  0.00    +0.129 A 
ATOM     12  C   UNL     1       1.578   1.356  -1.125  0.00  0.00    +0.048 A 
ATOM     13  C   UNL     1       0.390   0.652  -1.094  0.00  0.00    +0.036 A 
ATOM     14  C   UNL     1      -0.001   0.003   0.063  0.00  0.00    +0.126 A 
BRANCH  14  15
ATOM     15  N   UNL     1      -1.275  -0.751   0.093  0.00  0.00    +0.056 N 
ATOM     16  O   UNL     1      -1.617  -1.319   1.104  0.00  0.00    -0.126 OA
ATOM     17  O   UNL     1      -1.972  -0.799  -0.893  0.00  0.00    -0.126 OA
ENDBRANCH  14  15
ENDBRANCH   8  11
ENDBRANCH   1   8
BRANCH   6  18
ATOM     18  C   UNL     1       5.950   3.576   0.179  0.00  0.00    -0.047 C 
BRANCH  18  19
ATOM     19  N   UNL     1       5.611   4.064   1.522  0.00  0.00    +0.381 N 
ATOM     20  H   UNL     1       4.687   3.745   1.773  0.00  0.00    -0.090 HD
ATOM     21  H   UNL     1       6.282   3.710   2.188  0.00  0.00    -0.090 HD
ATOM     22  H   UNL     1       5.631   5.073   1.528  0.00  0.00    -0.090 HD
ENDBRANCH  18  19
ENDBRANCH   6  18
TORSDOF 5
