REMARK  Name = ZINC67009194
REMARK  6 active torsions:
REMARK  status: ('A' for Active; 'I' for Inactive)
REMARK    1  A    between atoms: C_1  and  O_2
REMARK    2  A    between atoms: O_2  and  C_3
REMARK    3  A    between atoms: C_5  and  C_20
REMARK    4  A    between atoms: C_8  and  O_9
REMARK    5  A    between atoms: O_9  and  C_10
REMARK    6  A    between atoms: C_10  and  C_11
REMARK                            x       y       z     vdW  Elec       q    Type
REMARK                         _______ _______ _______ _____ _____    ______ ____
ROOT
ATOM      1  C   UNL     1       0.606  -0.608  -1.057  0.00  0.00    +0.162 A 
ATOM      2  C   UNL     1       1.170   0.158  -2.057  0.00  0.00    +0.061 A 
ATOM      3  C   UNL     1       1.792  -0.467  -3.146  0.00  0.00    +0.032 A 
ATOM      4  C   UNL     1       1.838  -1.866  -3.212  0.00  0.00    +0.032 A 
ATOM      5  C   UNL     1       1.272  -2.621  -2.208  0.00  0.00    +0.065 A 
ATOM      6  C   UNL     1       0.661  -2.000  -1.127  0.00  0.00    +0.164 A 
ATOM      7 BR   UNL     1       2.675  -2.716  -4.679  0.00  0.00    -0.049 Br
ENDROOT
BRANCH   1   9
ATOM      8  C   UNL     1      -0.017   1.425   0.010  0.00  0.00    +0.277 C 
ATOM      9  O   UNL     1       0.002  -0.004   0.002  0.00  0.00    -0.491 OA
ENDBRANCH   1   9
BRANCH   3  10
ATOM     10  C   UNL     1       2.393   0.341  -4.213  0.00  0.00    +0.260 C 
ATOM     11  O   UNL     1       2.931  -0.202  -5.155  0.00  0.00    -0.296 OA
ENDBRANCH   3  10
BRANCH   6  12
ATOM     12  O   UNL     1       0.110  -2.750  -0.139  0.00  0.00    -0.479 OA
BRANCH  12  13
ATOM     13  C   UNL     1       0.201  -4.169  -0.274  0.00  0.00    +0.325 C 
BRANCH  13  14
ATOM     14  C   UNL     1      -0.461  -4.830   0.908  0.00  0.00    +0.261 C 
ATOM     15  O   UNL     1      -0.960  -4.152   1.780  0.00  0.00    -0.271 OA
ATOM     16  N   UNL     1      -0.496  -6.174   0.996  0.00  0.00    -0.222 N 
ATOM     17  C   UNL     1      -1.113  -6.941   2.090  0.00  0.00    +0.137 C 
ATOM     18  C   UNL     1      -0.870  -8.410   1.693  0.00  0.00    +0.125 C 
ATOM     19  N   UNL     1      -0.143  -8.315   0.419  0.00  0.00    -0.297 N 
ATOM     20  C   UNL     1       0.019  -7.025   0.099  0.00  0.00    +0.309 C 
ATOM     21  O   UNL     1       0.586  -6.658  -0.912  0.00  0.00    -0.252 OA
ATOM     22  H   UNL     1       0.167  -9.068  -0.109  0.00  0.00    +0.150 HD
ENDBRANCH  13  14
ENDBRANCH  12  13
ENDBRANCH   6  12
TORSDOF 5
