REMARK  Name = ZINC14902390
REMARK  9 active torsions:
REMARK  status: ('A' for Active; 'I' for Inactive)
REMARK    1  A    between atoms: C_1  and  C_2
REMARK    2  A    between atoms: C_2  and  N_51
REMARK    3  A    between atoms: N_5  and  C_8
REMARK    4  A    between atoms: C_11  and  N_14
REMARK    5  A    between atoms: C_15  and  C_17
REMARK    6  A    between atoms: C_17  and  S_18
REMARK    7  A    between atoms: S_18  and  C_19
REMARK    8  A    between atoms: C_22  and  C_25
REMARK    9  A    between atoms: N_23  and  N_24
REMARK                            x       y       z     vdW  Elec       q    Type
REMARK                         _______ _______ _______ _____ _____    ______ ____
ROOT
ATOM      1  N   UNL     1      -3.228   5.069  -5.797  0.00  0.00    -0.285 N 
ATOM      2  C   UNL     1      -2.945   6.318  -6.217  0.00  0.00    +0.227 C 
ATOM      3  O   UNL     1      -2.096   6.972  -5.648  0.00  0.00    -0.275 OA
ATOM      4  H   UNL     1      -3.850   4.519  -6.297  0.00  0.00    +0.155 HD
ENDROOT
BRANCH   1   8
ATOM      5  C   UNL     1      -1.427   3.572  -2.345  0.00  0.00    +0.030 A 
ATOM      6  C   UNL     1      -1.716   2.720  -3.404  0.00  0.00    +0.025 A 
ATOM      7  C   UNL     1      -2.318   3.215  -4.543  0.00  0.00    +0.025 A 
ATOM      8  C   UNL     1      -2.623   4.566  -4.637  0.00  0.00    +0.034 A 
ATOM      9  C   UNL     1      -2.328   5.419  -3.582  0.00  0.00    +0.025 A 
ATOM     10  C   UNL     1      -1.732   4.924  -2.439  0.00  0.00    +0.025 A 
BRANCH   5  13
ATOM     11  C   UNL     1       0.141   1.128  -0.051  0.00  0.00    -0.060 C 
ATOM     12  C   UNL     1      -0.590   1.623  -1.301  0.00  0.00    +0.086 C 
ATOM     13  N   UNL     1      -0.824   3.070  -1.188  0.00  0.00    -0.333 N 
ATOM     14  C   UNL     1      -1.628   3.379   0.002  0.00  0.00    +0.086 C 
ATOM     15  C   UNL     1      -0.897   2.884   1.252  0.00  0.00    -0.060 C 
ATOM     16  N   UNL     1      -0.688   1.425   1.136  0.00  0.00    +0.382 N 
ATOM     17  H   UNL     1      -1.599   0.965   1.030  0.00  0.00    -0.082 HD
BRANCH  16  19
ATOM     18  C   UNL     1      -0.752   1.458   3.587  0.00  0.00    -0.017 C 
ATOM     19  C   UNL     1      -0.029   0.910   2.355  0.00  0.00    -0.082 C 
ENDBRANCH  16  19
ENDBRANCH   5  13
ENDBRANCH   1   8
BRANCH   2  20
ATOM     20  C   UNL     1      -3.683   6.902  -7.394  0.00  0.00    +0.173 C 
BRANCH  20  21
ATOM     21  S   UNL     1      -3.083   8.581  -7.710  0.00  0.00    -0.075 S 
BRANCH  21  22
ATOM     22  C   UNL     1      -4.086   9.009  -9.094  0.00  0.00    +0.209 A 
ATOM     23  N   UNL     1      -4.988   8.248  -9.669  0.00  0.00    -0.121 NA
ATOM     24  N   UNL     1      -5.532   8.880 -10.648  0.00  0.00    -0.123 NA
ATOM     25  C   UNL     1      -5.008  10.068 -10.759  0.00  0.00    +0.255 A 
ATOM     26  N   UNL     1      -4.068  10.193  -9.774  0.00  0.00    -0.220 N 
BRANCH  25  27
ATOM     27  C   UNL     1      -5.370  11.111 -11.785  0.00  0.00    +0.454 C 
ATOM     28  F   UNL     1      -6.582  10.765 -12.394  0.00  0.00    -0.163 F 
ATOM     29  F   UNL     1      -5.502  12.355 -11.159  0.00  0.00    -0.163 F 
ATOM     30  F   UNL     1      -4.364  11.181 -12.755  0.00  0.00    -0.163 F 
ENDBRANCH  25  27
BRANCH  26  31
ATOM     31  N   UNL     1      -3.276  11.277  -9.522  0.00  0.00    -0.295 N 
ATOM     32  H   UNL     1      -2.411  11.220 -10.037  0.00  0.00    +0.163 HD
ATOM     33  H   UNL     1      -3.764  12.136  -9.727  0.00  0.00    +0.163 HD
ENDBRANCH  26  31
ENDBRANCH  21  22
ENDBRANCH  20  21
ENDBRANCH   2  20
TORSDOF 8
