REMARK  Name = ZINC64376025
REMARK  7 active torsions:
REMARK  status: ('A' for Active; 'I' for Inactive)
REMARK    1  A    between atoms: C_5  and  S_6
REMARK    2  A    between atoms: S_6  and  N_9
REMARK    3  A    between atoms: N_9  and  N_10
REMARK    4  A    between atoms: N_13  and  C_14
REMARK    5  A    between atoms: C_14  and  C_15
REMARK    6  A    between atoms: C_15  and  C_16
REMARK    7  A    between atoms: C_16  and  N_17
REMARK                            x       y       z     vdW  Elec       q    Type
REMARK                         _______ _______ _______ _____ _____    ______ ____
ROOT
ATOM      1  N   UNL     1      -0.792  -2.001  -2.432  0.00  0.00    -0.216 N 
ATOM      2  C   UNL     1      -1.079  -3.134  -3.103  0.00  0.00    +0.315 C 
ATOM      3  O   UNL     1      -0.255  -3.624  -3.850  0.00  0.00    -0.251 OA
ATOM      4  N   UNL     1      -2.281  -3.724  -2.946  0.00  0.00    -0.298 N 
ATOM      5  H   UNL     1       0.072  -1.577  -2.545  0.00  0.00    +0.172 HD
ATOM      6  H   UNL     1      -2.939  -3.333  -2.350  0.00  0.00    +0.150 HD
ENDROOT
BRANCH   1   7
ATOM      7  N   UNL     1      -1.743  -1.437  -1.571  0.00  0.00    -0.106 NA
ATOM      8  H   UNL     1      -2.630  -1.225  -1.901  0.00  0.00    +0.172 HD
BRANCH   7   9
ATOM      9  S   UNL     1      -1.352  -1.132   0.009  0.00  0.00    +0.080 S 
ATOM     10  O   UNL     1      -0.861  -2.352   0.548  0.00  0.00    -0.151 OA
ATOM     11  O   UNL     1      -2.455  -0.438   0.574  0.00  0.00    -0.151 OA
BRANCH   9  16
ATOM     12  C   UNL     1      -0.016   1.351   0.009  0.00  0.00    +0.038 A 
ATOM     13  C   UNL     1       1.184   2.038   0.002  0.00  0.00    +0.030 A 
ATOM     14  C   UNL     1       2.343   1.335  -0.013  0.00  0.00    +0.080 A 
ATOM     15  S   UNL     1       1.753  -0.350  -0.017  0.00  0.00    -0.057 S 
ATOM     16  C   UNL     1       0.002  -0.004   0.002  0.00  0.00    +0.145 A 
ATOM     17 CL   UNL     1       3.977   1.921  -0.026  0.00  0.00    -0.076 Cl
ENDBRANCH   9  16
ENDBRANCH   7   9
ENDBRANCH   1   7
BRANCH   4  18
ATOM     18  C   UNL     1      -2.593  -4.956  -3.675  0.00  0.00    +0.107 C 
BRANCH  18  19
ATOM     19  C   UNL     1      -4.009  -5.414  -3.321  0.00  0.00    +0.040 C 
BRANCH  19  20
ATOM     20  C   UNL     1      -4.335  -6.700  -4.083  0.00  0.00    +0.124 C 
BRANCH  20  21
ATOM     21  N   UNL     1      -5.691  -7.138  -3.743  0.00  0.00    -0.338 N 
ATOM     22  C   UNL     1      -6.042  -7.973  -2.716  0.00  0.00    +0.104 A 
ATOM     23  C   UNL     1      -7.380  -8.110  -2.765  0.00  0.00    +0.101 A 
ATOM     24  N   UNL     1      -7.835  -7.379  -3.794  0.00  0.00    -0.352 N 
ATOM     25  C   UNL     1      -6.829  -6.790  -4.381  0.00  0.00    +0.173 A 
ATOM     26  H   UNL     1      -8.765  -7.297  -4.057  0.00  0.00    +0.166 HD
ENDBRANCH  20  21
ENDBRANCH  19  20
ENDBRANCH  18  19
ENDBRANCH   4  18
TORSDOF 7
