REMARK  Name = ZINC37063026
REMARK  4 active torsions:
REMARK  status: ('A' for Active; 'I' for Inactive)
REMARK    1  A    between atoms: C_3  and  S_9
REMARK    2  A    between atoms: C_4  and  N_8
REMARK    3  A    between atoms: S_9  and  N_12
REMARK    4  A    between atoms: N_12  and  C_13
REMARK                            x       y       z     vdW  Elec       q    Type
REMARK                         _______ _______ _______ _____ _____    ______ ____
ROOT
ATOM      1  S   UNL     1       3.896   2.260   0.011  0.00  0.00    +0.060 S 
ATOM      2  O   UNL     1       4.750   1.655  -0.950  0.00  0.00    -0.153 OA
ATOM      3  O   UNL     1       3.421   3.592  -0.123  0.00  0.00    -0.153 OA
ENDROOT
BRANCH   1   6
ATOM      4  C   UNL     1       1.243  -0.705  -0.555  0.00  0.00    +0.017 A 
ATOM      5  C   UNL     1       2.359   0.106  -0.656  0.00  0.00    +0.031 A 
ATOM      6  C   UNL     1       2.473   1.229   0.140  0.00  0.00    +0.126 A 
ATOM      7  C   UNL     1       1.466   1.544   1.044  0.00  0.00    +0.052 A 
ATOM      8  C   UNL     1       0.346   0.728   1.143  0.00  0.00    +0.040 A 
ATOM      9  C   UNL     1       0.238  -0.394   0.344  0.00  0.00    +0.020 A 
ATOM     10 BR   UNL     1      -1.286  -1.506   0.478  0.00  0.00    -0.050 Br
BRANCH   7  11
ATOM     11  N   UNL     1       1.579   2.678   1.851  0.00  0.00    -0.356 N 
ATOM     12  H   UNL     1       2.330   3.281   1.737  0.00  0.00    +0.142 HD
ATOM     13  H   UNL     1       0.907   2.863   2.525  0.00  0.00    +0.142 HD
ENDBRANCH   7  11
ENDBRANCH   1   6
BRANCH   1  14
ATOM     14  N   UNL     1       4.689   2.184   1.463  0.00  0.00    -0.188 NA
ATOM     15  H   UNL     1       4.763   2.977   2.017  0.00  0.00    +0.148 HD
BRANCH  14  16
ATOM     16  C   UNL     1       5.280   0.920   1.910  0.00  0.00    +0.063 C 
ATOM     17  C   UNL     1       4.312   0.208   2.857  0.00  0.00    -0.058 C 
ATOM     18  N   UNL     1       4.940   0.023   4.168  0.00  0.00    +0.381 N 
ATOM     19  C   UNL     1       5.270   1.317   4.769  0.00  0.00    -0.078 C 
ATOM     20  C   UNL     1       6.270   2.066   3.885  0.00  0.00    -0.014 C 
ATOM     21  C   UNL     1       6.591   1.201   2.655  0.00  0.00    +0.002 C 
ATOM     22  C   UNL     1       7.167  -0.135   3.143  0.00  0.00    -0.014 C 
ATOM     23  C   UNL     1       6.137  -0.814   4.053  0.00  0.00    -0.078 C 
ATOM     24  H   UNL     1       4.281  -0.444   4.774  0.00  0.00    -0.082 HD
ENDBRANCH  14  16
ENDBRANCH   1  14
TORSDOF 4
