REMARK  Name = ZINC20905196
REMARK  14 active torsions:
REMARK  status: ('A' for Active; 'I' for Inactive)
REMARK    1  A    between atoms: C_1  and  C_2
REMARK    2  A    between atoms: C_3  and  C_11
REMARK    3  A    between atoms: C_4  and  C_10
REMARK    4  A    between atoms: N_5  and  C_7
REMARK    5  A    between atoms: C_7  and  C_8
REMARK    6  A    between atoms: C_7  and  C_9
REMARK    7  A    between atoms: N_12  and  N_13
REMARK    8  A    between atoms: C_16  and  S_19
REMARK    9  A    between atoms: S_19  and  C_20
REMARK   10  A    between atoms: C_20  and  C_21
REMARK   11  A    between atoms: N_23  and  C_24
REMARK   12  A    between atoms: C_25  and  C_32
REMARK   13  A    between atoms: C_32  and  O_34
REMARK   14  A    between atoms: O_34  and  C_35
REMARK                            x       y       z     vdW  Elec       q    Type
REMARK                         _______ _______ _______ _____ _____    ______ ____
ROOT
ATOM      1  N   UNL     1       0.931   0.446   6.234  0.00  0.00    -0.205 N 
ATOM      2  C   UNL     1       0.823   0.517   4.853  0.00  0.00    +0.232 A 
ATOM      3  N   UNL     1      -0.147   1.183   4.156  0.00  0.00    -0.186 NA
ATOM      4  C   UNL     1       0.099   1.013   2.823  0.00  0.00    +0.211 A 
ATOM      5  N   UNL     1       1.172   0.269   2.700  0.00  0.00    -0.144 NA
ATOM      6  N   UNL     1       1.634  -0.040   3.986  0.00  0.00    -0.245 N 
ATOM      7  H   UNL     1       0.192   0.954   6.871  0.00  0.00    +0.177 HD
ATOM      8  H   UNL     1       2.495  -0.627   4.338  0.00  0.00    +0.192 HD
ENDROOT
BRANCH   1  10
ATOM      9  C   UNL     1       2.082  -0.342   8.110  0.00  0.00    +0.141 C 
ATOM     10  N   UNL     1       1.981  -0.275   6.818  0.00  0.00    -0.187 NA
BRANCH   9  13
ATOM     11  C   UNL     1       4.354  -1.906   6.545  0.00  0.00    +0.068 C 
ATOM     12  C   UNL     1       4.205  -1.801   8.041  0.00  0.00    +0.069 A 
ATOM     13  C   UNL     1       3.188  -1.101   8.726  0.00  0.00    +0.038 A 
ATOM     14  C   UNL     1       3.423  -1.254  10.075  0.00  0.00    +0.045 A 
ATOM     15  N   UNL     1       4.526  -2.018  10.208  0.00  0.00    -0.265 N 
ATOM     16  N   UNL     1       4.995  -2.342   8.930  0.00  0.00    -0.175 NA
ATOM     17  C   UNL     1       2.597  -0.676  11.195  0.00  0.00    +0.066 C 
BRANCH  15  18
ATOM     18  C   UNL     1       5.134  -2.433  11.475  0.00  0.00    +0.101 C 
ATOM     19  C   UNL     1       5.152  -3.961  11.555  0.00  0.00    +0.032 C 
ATOM     20  C   UNL     1       6.566  -1.901  11.552  0.00  0.00    +0.032 C 
ENDBRANCH  15  18
ENDBRANCH   9  13
ENDBRANCH   1  10
BRANCH   4  21
ATOM     21  S   UNL     1      -0.862   1.671   1.500  0.00  0.00    -0.075 S 
BRANCH  21  22
ATOM     22  C   UNL     1      -0.013   1.086   0.008  0.00  0.00    +0.173 C 
BRANCH  22  23
ATOM     23  C   UNL     1      -0.742   1.585  -1.213  0.00  0.00    +0.228 C 
ATOM     24  O   UNL     1      -1.736   2.268  -1.088  0.00  0.00    -0.275 OA
ATOM     25  N   UNL     1      -0.288   1.272  -2.443  0.00  0.00    -0.279 N 
ATOM     26  H   UNL     1       0.614   0.653  -2.556  0.00  0.00    +0.155 HD
BRANCH  25  27
ATOM     27  C   UNL     1      -0.959   1.732  -3.566  0.00  0.00    +0.086 A 
ATOM     28  C   UNL     1      -0.648   1.523  -4.900  0.00  0.00    +0.091 A 
ATOM     29  C   UNL     1      -1.530   2.121  -5.902  0.00  0.00    -0.021 A 
ATOM     30  C   UNL     1      -2.560   2.829  -5.406  0.00  0.00    -0.004 A 
ATOM     31  S   UNL     1      -2.384   2.711  -3.643  0.00  0.00    -0.077 S 
ATOM     32  C   UNL     1      -3.419   3.414  -6.495  0.00  0.00    +0.043 C 
ATOM     33  C   UNL     1      -3.036   2.618  -7.762  0.00  0.00    +0.010 C 
ATOM     34  C   UNL     1      -1.599   2.169  -7.429  0.00  0.00    +0.037 C 
BRANCH  28  35
ATOM     35  C   UNL     1       0.519   0.729  -5.292  0.00  0.00    +0.342 C 
ATOM     36  O   UNL     1       0.410  -0.471  -5.458  0.00  0.00    -0.245 OA
BRANCH  35  37
ATOM     37  O   UNL     1       1.714   1.329  -5.470  0.00  0.00    -0.464 OA
ATOM     38  C   UNL     1       2.826   0.480  -5.859  0.00  0.00    +0.280 C 
ENDBRANCH  35  37
ENDBRANCH  28  35
ENDBRANCH  25  27
ENDBRANCH  22  23
ENDBRANCH  21  22
ENDBRANCH   4  21
TORSDOF 9
