REMARK  Name = ZINC34664223
REMARK  6 active torsions:
REMARK  status: ('A' for Active; 'I' for Inactive)
REMARK    1  A    between atoms: C_1  and  C_2
REMARK    2  A    between atoms: C_2  and  N_3
REMARK    3  A    between atoms: N_3  and  C_4
REMARK    4  A    between atoms: C_4  and  C_5
REMARK    5  A    between atoms: C_10  and  O_11
REMARK    6  A    between atoms: O_11  and  C_12
REMARK                            x       y       z     vdW  Elec       q    Type
REMARK                         _______ _______ _______ _____ _____    ______ ____
ROOT
ATOM      1  C   UNL     1       1.439  -2.147  -2.570  0.00  0.00    -0.022 A 
ATOM      2  C   UNL     1       0.713  -2.486  -3.696  0.00  0.00    +0.006 A 
ATOM      3  C   UNL     1       1.350  -3.045  -4.788  0.00  0.00    +0.016 A 
ATOM      4  C   UNL     1       2.716  -3.268  -4.756  0.00  0.00    +0.021 A 
ATOM      5  C   UNL     1       3.446  -2.931  -3.632  0.00  0.00    +0.061 A 
ATOM      6  C   UNL     1       2.809  -2.364  -2.538  0.00  0.00    +0.131 A 
ATOM      7 BR   UNL     1       3.583  -4.034  -6.252  0.00  0.00    -0.050 Br
ENDROOT
BRANCH   1   8
ATOM      8  C   UNL     1       0.743  -1.537  -1.381  0.00  0.00    -0.043 C 
BRANCH   8   9
ATOM      9  N   UNL     1       0.936  -0.081  -1.395  0.00  0.00    +0.382 N 
ATOM     10  H   UNL     1       0.548   0.302  -2.244  0.00  0.00    -0.085 HD
ATOM     11  H   UNL     1       1.923   0.128  -1.351  0.00  0.00    -0.085 HD
BRANCH   9  13
ATOM     12  C   UNL     1       0.460   2.031  -0.249  0.00  0.00    -0.017 C 
ATOM     13  C   UNL     1       0.258   0.514  -0.235  0.00  0.00    -0.086 C 
ENDBRANCH   9  13
ENDBRANCH   8   9
ENDBRANCH   1   8
BRANCH   6  14
ATOM     14  O   UNL     1       3.525  -2.026  -1.433  0.00  0.00    -0.453 OA
BRANCH  14  15
ATOM     15  C   UNL     1       4.877  -2.161  -1.483  0.00  0.00    +0.164 A 
ATOM     16  C   UNL     1       5.476  -3.321  -1.017  0.00  0.00    +0.052 A 
ATOM     17  C   UNL     1       6.850  -3.458  -1.068  0.00  0.00    +0.042 A 
ATOM     18  C   UNL     1       7.630  -2.437  -1.585  0.00  0.00    +0.126 A 
ATOM     19  C   UNL     1       7.035  -1.278  -2.052  0.00  0.00    +0.080 A 
ATOM     20  C   UNL     1       5.659  -1.140  -2.007  0.00  0.00    +0.168 A 
ATOM     21  F   UNL     1       5.077  -0.011  -2.468  0.00  0.00    -0.202 F 
ATOM     22  F   UNL     1       8.973  -2.573  -1.633  0.00  0.00    -0.205 F 
ENDBRANCH  14  15
ENDBRANCH   6  14
TORSDOF 5
