REMARK  Name = ZINC07049193
REMARK  7 active torsions:
REMARK  status: ('A' for Active; 'I' for Inactive)
REMARK    1  A    between atoms: C_1  and  C_2
REMARK    2  A    between atoms: C_7  and  N_8
REMARK    3  A    between atoms: C_9  and  C_11
REMARK    4  A    between atoms: C_11  and  S_12
REMARK    5  A    between atoms: S_12  and  C_13
REMARK    6  A    between atoms: C_15  and  C_20
REMARK    7  A    between atoms: C_17  and  N_19
REMARK                            x       y       z     vdW  Elec       q    Type
REMARK                         _______ _______ _______ _____ _____    ______ ____
ROOT
ATOM      1  N   UNL     1      -5.132   0.344   0.028  0.00  0.00    -0.285 N 
ATOM      2  C   UNL     1      -4.115   1.229   0.031  0.00  0.00    +0.227 C 
ATOM      3  O   UNL     1      -4.348   2.420   0.032  0.00  0.00    -0.275 OA
ATOM      4  H   UNL     1      -4.948  -0.605  -0.053  0.00  0.00    +0.155 HD
ENDROOT
BRANCH   1  11
ATOM      5  C   UNL     1      -7.205  -1.289  -1.035  0.00  0.00    +0.046 C 
ATOM      6  C   UNL     1      -7.494   0.029  -0.363  0.00  0.00    -0.028 A 
ATOM      7  C   UNL     1      -8.797   0.473  -0.244  0.00  0.00    +0.020 A 
ATOM      8  C   UNL     1      -9.062   1.685   0.367  0.00  0.00    +0.018 A 
ATOM      9  C   UNL     1      -8.025   2.453   0.867  0.00  0.00    +0.017 A 
ATOM     10  C   UNL     1      -6.722   2.011   0.756  0.00  0.00    +0.024 A 
ATOM     11  C   UNL     1      -6.452   0.794   0.142  0.00  0.00    +0.036 A 
ATOM     12 BR   UNL     1     -10.846   2.293   0.521  0.00  0.00    -0.050 Br
ENDBRANCH   1  11
BRANCH   2  13
ATOM     13  C   UNL     1      -2.690   0.740   0.034  0.00  0.00    +0.173 C 
BRANCH  13  14
ATOM     14  S   UNL     1      -1.565   2.158   0.038  0.00  0.00    -0.077 S 
BRANCH  14  15
ATOM     15  C   UNL     1      -0.016   1.320   0.040  0.00  0.00    +0.191 A 
ATOM     16  N   UNL     1       1.104   2.030   0.038  0.00  0.00    -0.227 NA
ATOM     17  C   UNL     1       2.287   1.435   0.034  0.00  0.00    +0.044 A 
ATOM     18  C   UNL     1       2.350   0.055   0.032  0.00  0.00    +0.066 A 
ATOM     19  C   UNL     1       1.155  -0.667   0.035  0.00  0.00    +0.121 A 
ATOM     20  N   UNL     1       0.002  -0.005   0.039  0.00  0.00    -0.207 NA
ATOM     21  C   UNL     1       3.552   2.255   0.032  0.00  0.00    +0.066 C 
BRANCH  19  22
ATOM     22  N   UNL     1       1.170  -2.052   0.034  0.00  0.00    -0.343 N 
ATOM     23  H   UNL     1       0.336  -2.546   0.036  0.00  0.00    +0.144 HD
ATOM     24  H   UNL     1       2.016  -2.528   0.031  0.00  0.00    +0.144 HD
ENDBRANCH  19  22
ENDBRANCH  14  15
ENDBRANCH  13  14
ENDBRANCH   2  13
TORSDOF 5
