REMARK  Name = ZINC65461848
REMARK  12 active torsions:
REMARK  status: ('A' for Active; 'I' for Inactive)
REMARK    1  A    between atoms: C_1  and  C_2
REMARK    2  A    between atoms: C_3  and  C_25
REMARK    3  A    between atoms: C_7  and  N_14
REMARK    4  A    between atoms: C_9  and  C_11
REMARK    5  A    between atoms: C_11  and  C_12
REMARK    6  A    between atoms: C_12  and  N_13
REMARK    7  A    between atoms: N_14  and  C_15
REMARK    8  A    between atoms: N_14  and  C_16
REMARK    9  A    between atoms: C_16  and  C_17
REMARK   10  A    between atoms: C_17  and  C_18
REMARK   11  A    between atoms: C_18  and  C_19
REMARK   12  A    between atoms: N_23  and  C_24
REMARK                            x       y       z     vdW  Elec       q    Type
REMARK                         _______ _______ _______ _____ _____    ______ ____
ROOT
ATOM      1  C   UNL     1      -0.069   1.488   0.014  0.00  0.00    +0.045 C 
ATOM      2  C   UNL     1      -0.043  -0.019   0.012  0.00  0.00    -0.028 A 
ATOM      3  C   UNL     1      -0.157  -0.699  -1.138  0.00  0.00    -0.008 A 
ATOM      4  S   UNL     1      -0.070  -2.404  -0.625  0.00  0.00    -0.074 S 
ATOM      5  C   UNL     1       0.117  -2.158   1.121  0.00  0.00    +0.114 A 
ATOM      6  C   UNL     1       0.113  -0.752   1.256  0.00  0.00    +0.051 A 
ATOM      7  C   UNL     1       0.257  -0.268   2.586  0.00  0.00    +0.133 A 
ATOM      8  N   UNL     1       0.386  -1.135   3.578  0.00  0.00    -0.217 NA
ATOM      9  C   UNL     1       0.386  -2.440   3.376  0.00  0.00    +0.131 A 
ATOM     10  N   UNL     1       0.246  -2.949   2.167  0.00  0.00    -0.225 NA
ATOM     11  C   UNL     1      -0.320  -0.151  -2.533  0.00  0.00    +0.052 C 
ENDROOT
BRANCH   7  12
ATOM     12  N   UNL     1       0.262   1.092   2.839  0.00  0.00    -0.318 N 
ATOM     13  C   UNL     1       1.513   1.849   2.747  0.00  0.00    +0.130 C 
BRANCH  12  14
ATOM     14  C   UNL     1      -0.983   1.775   3.199  0.00  0.00    +0.106 C 
BRANCH  14  15
ATOM     15  C   UNL     1      -1.156   1.752   4.719  0.00  0.00    +0.026 C 
BRANCH  15  16
ATOM     16  C   UNL     1      -2.457   2.465   5.095  0.00  0.00    +0.074 C 
BRANCH  16  17
ATOM     17  C   UNL     1      -2.627   2.442   6.592  0.00  0.00    +0.087 A 
ATOM     18  N   UNL     1      -2.115   3.303   7.429  0.00  0.00    -0.350 N 
ATOM     19  C   UNL     1      -2.475   2.973   8.678  0.00  0.00    +0.101 A 
ATOM     20  C   UNL     1      -3.238   1.866   8.613  0.00  0.00    +0.104 A 
ATOM     21  N   UNL     1      -3.340   1.532   7.289  0.00  0.00    -0.339 N 
ATOM     22  C   UNL     1      -4.081   0.397   6.733  0.00  0.00    +0.150 C 
ATOM     23  H   UNL     1      -1.562   4.062   7.186  0.00  0.00    +0.166 HD
ENDBRANCH  16  17
ENDBRANCH  15  16
ENDBRANCH  14  15
ENDBRANCH  12  14
ENDBRANCH   7  12
BRANCH   9  24
ATOM     24  C   UNL     1       0.537  -3.368   4.553  0.00  0.00    +0.057 C 
BRANCH  24  25
ATOM     25  C   UNL     1      -0.845  -3.707   5.116  0.00  0.00    -0.079 C 
BRANCH  25  26
ATOM     26  N   UNL     1      -0.698  -4.612   6.264  0.00  0.00    +0.378 N 
ATOM     27  H   UNL     1      -0.238  -5.459   5.968  0.00  0.00    -0.090 HD
ATOM     28  H   UNL     1      -0.145  -4.161   6.978  0.00  0.00    -0.090 HD
ATOM     29  H   UNL     1      -1.609  -4.835   6.635  0.00  0.00    -0.090 HD
ENDBRANCH  25  26
ENDBRANCH  24  25
ENDBRANCH   9  24
TORSDOF 8
