REMARK  Name = ZINC24791947
REMARK  7 active torsions:
REMARK  status: ('A' for Active; 'I' for Inactive)
REMARK    1  A    between atoms: C_4  and  S_7
REMARK    2  A    between atoms: S_7  and  C_10
REMARK    3  A    between atoms: C_13  and  S_15
REMARK    4  A    between atoms: S_15  and  N_18
REMARK    5  A    between atoms: N_18  and  C_19
REMARK    6  A    between atoms: C_23  and  S_25
REMARK    7  A    between atoms: S_25  and  N_28
REMARK                            x       y       z     vdW  Elec       q    Type
REMARK                         _______ _______ _______ _____ _____    ______ ____
ROOT
ATOM      1  S   UNL     1      -1.351  -1.132   0.008  0.00  0.00    +0.098 S 
ATOM      2  O   UNL     1      -0.861  -2.352   0.548  0.00  0.00    -0.148 OA
ATOM      3  O   UNL     1      -2.456  -0.439   0.573  0.00  0.00    -0.148 OA
ENDROOT
BRANCH   1   7
ATOM      4  C   UNL     1       2.343   1.336  -0.013  0.00  0.00    +0.133 A 
ATOM      5  C   UNL     1       1.183   2.038   0.002  0.00  0.00    +0.037 A 
ATOM      6  C   UNL     1      -0.016   1.351   0.009  0.00  0.00    +0.038 A 
ATOM      7  C   UNL     1       0.002  -0.004   0.002  0.00  0.00    +0.149 A 
ATOM      8  S   UNL     1       1.754  -0.349  -0.017  0.00  0.00    -0.050 S 
BRANCH   4   9
ATOM      9  S   UNL     1       4.001   1.932  -0.027  0.00  0.00    +0.031 S 
ATOM     10  O   UNL     1       4.798   0.900  -0.591  0.00  0.00    -0.164 OA
ATOM     11  O   UNL     1       3.956   3.244  -0.570  0.00  0.00    -0.164 OA
BRANCH   9  15
ATOM     12  C   UNL     1       5.304   2.362   4.287  0.00  0.00    +0.000 A 
ATOM     13  C   UNL     1       5.510   1.170   3.619  0.00  0.00    +0.002 A 
ATOM     14  C   UNL     1       5.112   1.038   2.301  0.00  0.00    +0.027 A 
ATOM     15  C   UNL     1       4.508   2.099   1.653  0.00  0.00    +0.094 A 
ATOM     16  C   UNL     1       4.307   3.293   2.319  0.00  0.00    +0.027 A 
ATOM     17  C   UNL     1       4.700   3.423   3.638  0.00  0.00    +0.002 A 
ENDBRANCH   9  15
ENDBRANCH   4   9
ENDBRANCH   1   7
BRANCH   1  18
ATOM     18  N   UNL     1      -1.742  -1.437  -1.572  0.00  0.00    -0.097 NA
BRANCH  18  19
ATOM     19  C   UNL     1      -0.831  -2.094  -2.402  0.00  0.00    +0.076 A 
ATOM     20  C   UNL     1      -0.159  -3.221  -1.944  0.00  0.00    +0.027 A 
ATOM     21  C   UNL     1       0.741  -3.868  -2.768  0.00  0.00    +0.004 A 
ATOM     22  C   UNL     1       0.972  -3.397  -4.047  0.00  0.00    +0.028 A 
ATOM     23  C   UNL     1       0.305  -2.277  -4.506  0.00  0.00    +0.107 A 
ATOM     24  C   UNL     1      -0.600  -1.627  -3.689  0.00  0.00    +0.055 A 
BRANCH  23  25
ATOM     25  S   UNL     1       0.604  -1.681  -6.137  0.00  0.00    +0.056 S 
ATOM     26  O   UNL     1       0.262  -0.301  -6.135  0.00  0.00    -0.153 OA
ATOM     27  O   UNL     1       1.894  -2.146  -6.509  0.00  0.00    -0.153 OA
BRANCH  25  28
ATOM     28  N   UNL     1      -0.478  -2.434  -7.139  0.00  0.00    -0.204 NA
ATOM     29  H   UNL     1      -0.324  -2.088  -8.172  0.00  0.00    +0.144 HD
ATOM     30  H   UNL     1      -1.503  -2.192  -6.821  0.00  0.00    +0.144 HD
ENDBRANCH  25  28
ENDBRANCH  23  25
ENDBRANCH  18  19
ENDBRANCH   1  18
TORSDOF 7
