REMARK  Name = ZINC43997800
REMARK  11 active torsions:
REMARK  status: ('A' for Active; 'I' for Inactive)
REMARK    1  A    between atoms: C_1  and  C_2
REMARK    2  A    between atoms: C_2  and  N_3
REMARK    3  A    between atoms: N_3  and  C_4
REMARK    4  A    between atoms: C_4  and  C_6
REMARK    5  A    between atoms: C_4  and  C_13
REMARK    6  A    between atoms: C_9  and  C_12
REMARK    7  A    between atoms: C_13  and  C_15
REMARK    8  A    between atoms: C_13  and  N_16
REMARK    9  A    between atoms: C_20  and  C_21
REMARK   10  A    between atoms: C_21  and  C_22
REMARK   11  A    between atoms: C_21  and  C_23
REMARK                            x       y       z     vdW  Elec       q    Type
REMARK                         _______ _______ _______ _____ _____    ______ ____
ROOT
ATOM      1  C   UNL     1      -1.371  -2.196  -0.047  0.00  0.00    -0.018 C 
ENDROOT
BRANCH   1   2
ATOM      2  C   UNL     1      -2.797  -2.635  -0.258  0.00  0.00    -0.059 A 
ATOM      3  C   UNL     1      -3.838  -1.829   0.164  0.00  0.00    +0.002 A 
ATOM      4  C   UNL     1      -5.146  -2.232  -0.030  0.00  0.00    +0.003 A 
ATOM      5  C   UNL     1      -5.414  -3.441  -0.644  0.00  0.00    -0.050 A 
ATOM      6  C   UNL     1      -4.373  -4.247  -1.067  0.00  0.00    +0.003 A 
ATOM      7  C   UNL     1      -3.065  -3.842  -0.877  0.00  0.00    +0.002 A 
ATOM      8  C   UNL     1      -6.840  -3.880  -0.854  0.00  0.00    +0.044 C 
ENDBRANCH   1   2
BRANCH   1   9
ATOM      9  N   UNL     1      -1.259  -0.755  -0.306  0.00  0.00    +0.385 N 
ATOM     10  H   UNL     1      -0.326  -0.444  -0.081  0.00  0.00    -0.085 HD
ATOM     11  H   UNL     1      -1.926  -0.257   0.265  0.00  0.00    -0.085 HD
BRANCH   9  13
ATOM     12  C   UNL     1      -1.476   1.018  -1.982  0.00  0.00    -0.017 C 
ATOM     13  C   UNL     1      -1.536  -0.489  -1.724  0.00  0.00    -0.085 C 
ENDBRANCH   9  13
ENDBRANCH   1   9
BRANCH   1  14
ATOM     14  C   UNL     1      -0.956  -2.489   1.396  0.00  0.00    +0.075 C 
ATOM     15  C   UNL     1      -0.985  -3.999   1.639  0.00  0.00    +0.029 C 
BRANCH  14  16
ATOM     16  N   UNL     1       0.400  -1.983   1.626  0.00  0.00    -0.334 N 
ATOM     17  C   UNL     1       1.515  -2.284   0.891  0.00  0.00    +0.105 A 
ATOM     18  C   UNL     1       2.540  -1.608   1.442  0.00  0.00    +0.101 A 
ATOM     19  N   UNL     1       2.065  -0.912   2.486  0.00  0.00    -0.349 N 
ATOM     20  C   UNL     1       0.783  -1.128   2.599  0.00  0.00    +0.090 A 
ATOM     21  H   UNL     1       2.590  -0.337   3.063  0.00  0.00    +0.166 HD
BRANCH  20  22
ATOM     22  C   UNL     1      -0.121  -0.526   3.644  0.00  0.00    +0.047 C 
ATOM     23  C   UNL     1       0.647  -0.381   4.959  0.00  0.00    +0.015 C 
ATOM     24  C   UNL     1      -0.596   0.850   3.176  0.00  0.00    +0.015 C 
ENDBRANCH  20  22
ENDBRANCH  14  16
ENDBRANCH   1  14
TORSDOF 6
