REMARK  Name = ZINC36203907
REMARK  6 active torsions:
REMARK  status: ('A' for Active; 'I' for Inactive)
REMARK    1  A    between atoms: C_1  and  C_2
REMARK    2  A    between atoms: C_5  and  C_22
REMARK    3  A    between atoms: N_8  and  S_10
REMARK    4  A    between atoms: S_10  and  N_13
REMARK    5  A    between atoms: C_17  and  C_20
REMARK    6  A    between atoms: C_20  and  O_21
REMARK                            x       y       z     vdW  Elec       q    Type
REMARK                         _______ _______ _______ _____ _____    ______ ____
ROOT
ATOM      1  S   UNL     1       1.999  -2.914   1.419  0.00  0.00    +0.100 S 
ATOM      2  O   UNL     1       2.998  -2.098   2.015  0.00  0.00    -0.141 OA
ATOM      3  O   UNL     1       1.587  -4.150   1.986  0.00  0.00    -0.141 OA
ENDROOT
BRANCH   1   9
ATOM      4  C   UNL     1      -0.019   1.526   0.010  0.00  0.00    +0.009 C 
ATOM      5  C   UNL     1       0.002  -0.004   0.002  0.00  0.00    +0.002 C 
ATOM      6  C   UNL     1      -1.433  -0.534   0.015  0.00  0.00    +0.009 C 
ATOM      7  C   UNL     1      -1.414  -2.064  -0.027  0.00  0.00    +0.002 C 
ATOM      8  C   UNL     1      -0.692  -2.596   1.215  0.00  0.00    +0.113 C 
ATOM      9  N   UNL     1       0.639  -1.977   1.288  0.00  0.00    -0.166 NA
ATOM     10  C   UNL     1       0.742  -0.512   1.244  0.00  0.00    +0.113 C 
ATOM     11  C   UNL     1      -2.850  -2.592  -0.049  0.00  0.00    +0.009 C 
ENDBRANCH   1   9
BRANCH   1  12
ATOM     12  N   UNL     1       2.514  -3.247  -0.119  0.00  0.00    -0.166 NA
ATOM     13  C   UNL     1       2.026  -4.436  -0.831  0.00  0.00    +0.110 C 
ATOM     14  C   UNL     1       1.455  -4.000  -2.184  0.00  0.00    +0.017 C 
ATOM     15  C   UNL     1       2.514  -3.201  -2.947  0.00  0.00    +0.008 C 
ATOM     16  C   UNL     1       2.881  -1.947  -2.151  0.00  0.00    +0.030 C 
ATOM     17  C   UNL     1       3.463  -2.356  -0.800  0.00  0.00    +0.116 C 
BRANCH  16  18
ATOM     18  C   UNL     1       3.915  -1.131  -2.930  0.00  0.00    +0.160 C 
BRANCH  18  19
ATOM     19  O   UNL     1       3.329  -0.652  -4.142  0.00  0.00    -0.395 OA
ATOM     20  H   UNL     1       3.929  -0.126  -4.688  0.00  0.00    +0.209 HD
ENDBRANCH  18  19
ENDBRANCH  16  18
ENDBRANCH   1  12
TORSDOF 4
