REMARK  Name = ZINC42118883
REMARK  3 active torsions:
REMARK  status: ('A' for Active; 'I' for Inactive)
REMARK    1  A    between atoms: C_11  and  N_13
REMARK    2  A    between atoms: N_13  and  C_14
REMARK    3  A    between atoms: C_14  and  C_15
REMARK                            x       y       z     vdW  Elec       q    Type
REMARK                         _______ _______ _______ _____ _____    ______ ____
ROOT
ATOM      1  C   UNL     1      -0.017   1.377   0.010  0.00  0.00    +0.042 A 
ATOM      2  C   UNL     1       1.167   2.092   0.002  0.00  0.00    +0.023 A 
ATOM      3  C   UNL     1       2.378   1.420  -0.013  0.00  0.00    +0.048 A 
ATOM      4  C   UNL     1       2.399   0.042  -0.021  0.00  0.00    +0.021 A 
ATOM      5  C   UNL     1       1.219  -0.688  -0.013  0.00  0.00    +0.076 A 
ATOM      6  C   UNL     1       0.002  -0.004   0.002  0.00  0.00    +0.145 A 
ATOM      7  F   UNL     1      -1.159  -0.694   0.009  0.00  0.00    -0.204 F 
ATOM      8  N   UNL     1       1.496  -2.056  -0.023  0.00  0.00    -0.281 N 
ATOM      9  C   UNL     1       2.817  -2.307  -0.036  0.00  0.00    +0.239 C 
ATOM     10  O   UNL     1       3.343  -3.400  -0.047  0.00  0.00    -0.273 OA
ATOM     11  C   UNL     1       3.524  -0.968  -0.036  0.00  0.00    +0.175 C 
ATOM     12 CL   UNL     1       3.867   2.312  -0.023  0.00  0.00    -0.083 Cl
ATOM     13  H   UNL     1       0.815  -2.747  -0.019  0.00  0.00    +0.155 HD
ENDROOT
BRANCH  11  14
ATOM     14  N   UNL     1       4.359  -0.827   1.164  0.00  0.00    -0.299 NA
ATOM     15  H   UNL     1       4.378   0.130   1.481  0.00  0.00    +0.123 HD
BRANCH  14  16
ATOM     16  C   UNL     1       5.718  -1.328   0.922  0.00  0.00    +0.115 C 
BRANCH  16  17
ATOM     17  C   UNL     1       6.556  -1.165   2.192  0.00  0.00    +0.158 C 
ATOM     18  C   UNL     1       8.004  -1.574   1.905  0.00  0.00    +0.192 C 
ATOM     19  O   UNL     1       8.755  -1.525   3.123  0.00  0.00    -0.375 OA
ATOM     20  C   UNL     1       8.226  -2.363   4.155  0.00  0.00    +0.188 C 
ATOM     21  C   UNL     1       6.778  -1.955   4.441  0.00  0.00    +0.188 C 
ATOM     22  O   UNL     1       6.026  -2.002   3.224  0.00  0.00    -0.371 OA
ENDBRANCH  16  17
ENDBRANCH  14  16
ENDBRANCH  11  14
TORSDOF 3
