REMARK  Name = ZINC02128805
REMARK  5 active torsions:
REMARK  status: ('A' for Active; 'I' for Inactive)
REMARK    1  A    between atoms: C_12  and  C_14
REMARK    2  A    between atoms: C_14  and  C_15
REMARK    3  A    between atoms: C_18  and  O_22
REMARK    4  A    between atoms: C_19  and  O_21
REMARK    5  A    between atoms: N_25  and  C_28
REMARK                            x       y       z     vdW  Elec       q    Type
REMARK                         _______ _______ _______ _____ _____    ______ ____
ROOT
ATOM      1  C   UNL     1      -3.100   4.056  -1.969  0.00  0.00    +0.000 A 
ATOM      2  C   UNL     1      -3.420   2.794  -2.438  0.00  0.00    +0.002 A 
ATOM      3  C   UNL     1      -2.489   1.777  -2.388  0.00  0.00    +0.023 A 
ATOM      4  C   UNL     1      -1.220   2.014  -1.865  0.00  0.00    +0.036 A 
ATOM      5  C   UNL     1      -0.912   3.286  -1.392  0.00  0.00    -0.028 A 
ATOM      6  C   UNL     1      -1.845   4.297  -1.439  0.00  0.00    +0.004 A 
ATOM      7  C   UNL     1       0.509   3.211  -0.909  0.00  0.00    +0.050 C 
ATOM      8  C   UNL     1       0.619   3.573   0.578  0.00  0.00    +0.088 C 
ATOM      9  C   UNL     1       1.978   4.318   0.698  0.00  0.00    +0.074 C 
ATOM     10  C   UNL     1       2.556   4.323  -0.732  0.00  0.00    -0.053 C 
ATOM     11  C   UNL     1       1.573   5.724   1.079  0.00  0.00    +0.228 C 
ATOM     12  O   UNL     1       2.337   6.646   1.268  0.00  0.00    -0.275 OA
ATOM     13  N   UNL     1       0.240   5.792   1.175  0.00  0.00    -0.210 N 
ATOM     14  C   UNL     1      -0.395   4.644   0.916  0.00  0.00    +0.229 C 
ATOM     15  O   UNL     1      -1.596   4.485   0.948  0.00  0.00    -0.275 OA
ATOM     16  C   UNL     1       0.934   1.790  -1.160  0.00  0.00    +0.211 C 
ATOM     17  O   UNL     1       2.017   1.304  -0.914  0.00  0.00    -0.277 OA
ATOM     18  N   UNL     1      -0.123   1.162  -1.710  0.00  0.00    -0.286 N 
ATOM     19  H   UNL     1      -0.122   0.228  -1.972  0.00  0.00    +0.155 HD
ATOM     20  N   UNL     1       1.382   4.151  -1.590  0.00  0.00    +0.394 N 
ATOM     21  H   UNL     1       0.903   5.050  -1.721  0.00  0.00    -0.083 HD
ATOM     22  H   UNL     1       1.662   3.776  -2.504  0.00  0.00    -0.083 HD
ENDROOT
BRANCH  13  23
ATOM     23  C   UNL     1      -0.436   6.972   1.518  0.00  0.00    +0.044 A 
ATOM     24  C   UNL     1      -0.423   8.057   0.653  0.00  0.00    +0.025 A 
ATOM     25  C   UNL     1      -1.094   9.216   0.991  0.00  0.00    +0.022 A 
ATOM     26  C   UNL     1      -1.770   9.300   2.196  0.00  0.00    +0.041 A 
ATOM     27  C   UNL     1      -1.779   8.221   3.063  0.00  0.00    +0.022 A 
ATOM     28  C   UNL     1      -1.114   7.058   2.727  0.00  0.00    +0.025 A 
ATOM     29 CL   UNL     1      -2.606  10.760   2.622  0.00  0.00    -0.084 Cl
ENDBRANCH  13  23
BRANCH  10  30
ATOM     30  C   UNL     1       3.522   3.151  -0.919  0.00  0.00    +0.020 C 
BRANCH  30  31
ATOM     31  C   UNL     1       4.925   3.601  -0.602  0.00  0.00    -0.045 A 
ATOM     32  C   UNL     1       5.728   4.116  -1.603  0.00  0.00    +0.007 A 
ATOM     33  C   UNL     1       7.014   4.534  -1.316  0.00  0.00    +0.049 A 
ATOM     34  C   UNL     1       7.504   4.429  -0.024  0.00  0.00    +0.158 A 
ATOM     35  C   UNL     1       6.698   3.906   0.982  0.00  0.00    +0.158 A 
ATOM     36  C   UNL     1       5.409   3.494   0.689  0.00  0.00    +0.052 A 
BRANCH  35  37
ATOM     37  O   UNL     1       7.176   3.801   2.251  0.00  0.00    -0.503 OA
ATOM     38  H   UNL     1       7.614   2.959   2.438  0.00  0.00    +0.292 HD
ENDBRANCH  35  37
BRANCH  34  39
ATOM     39  O   UNL     1       8.771   4.836   0.259  0.00  0.00    -0.503 OA
ATOM     40  H   UNL     1       9.438   4.143   0.161  0.00  0.00    +0.292 HD
ENDBRANCH  34  39
ENDBRANCH  30  31
ENDBRANCH  10  30
TORSDOF 5
