REMARK  Name = ZINC40755396
REMARK  7 active torsions:
REMARK  status: ('A' for Active; 'I' for Inactive)
REMARK    1  A    between atoms: C_1  and  C_2
REMARK    2  A    between atoms: C_5  and  N_8
REMARK    3  A    between atoms: C_10  and  N_24
REMARK    4  A    between atoms: C_11  and  N_15
REMARK    5  A    between atoms: N_15  and  C_16
REMARK    6  A    between atoms: C_19  and  C_23
REMARK    7  A    between atoms: C_21  and  C_22
REMARK                            x       y       z     vdW  Elec       q    Type
REMARK                         _______ _______ _______ _____ _____    ______ ____
ROOT
ATOM      1  N   UNL     1       1.141  -4.191  -0.041  0.00  0.00    -0.298 N 
ATOM      2  C   UNL     1       1.029  -4.886   1.158  0.00  0.00    +0.149 A 
ATOM      3  C   UNL     1       0.848  -6.270   1.161  0.00  0.00    +0.106 A 
ATOM      4  C   UNL     1       0.742  -6.918   2.393  0.00  0.00    +0.149 A 
ATOM      5  N   UNL     1       0.817  -6.197   3.510  0.00  0.00    -0.219 NA
ATOM      6  C   UNL     1       0.988  -4.891   3.462  0.00  0.00    +0.225 A 
ATOM      7  N   UNL     1       1.099  -4.242   2.321  0.00  0.00    -0.219 NA
ATOM      8  H   UNL     1       1.015  -4.655  -0.884  0.00  0.00    +0.154 HD
ENDROOT
BRANCH   1  13
ATOM      9  C   UNL     1       2.329   1.354  -0.007  0.00  0.00    +0.044 C 
ATOM     10  C   UNL     1       2.014  -0.119  -0.017  0.00  0.00    -0.050 A 
ATOM     11  C   UNL     1       2.551  -0.946   0.953  0.00  0.00    +0.005 A 
ATOM     12  C   UNL     1       2.263  -2.296   0.948  0.00  0.00    +0.023 A 
ATOM     13  C   UNL     1       1.433  -2.825  -0.033  0.00  0.00    +0.032 A 
ATOM     14  C   UNL     1       0.895  -1.991  -1.006  0.00  0.00    +0.023 A 
ATOM     15  C   UNL     1       1.183  -0.641  -0.991  0.00  0.00    +0.005 A 
ENDBRANCH   1  13
BRANCH   3  16
ATOM     16  N   UNL     1       0.774  -6.991  -0.041  0.00  0.00    -0.353 N 
ATOM     17  H   UNL     1       0.849  -6.527  -0.890  0.00  0.00    +0.143 HD
ATOM     18  H   UNL     1       0.648  -7.952  -0.023  0.00  0.00    +0.143 HD
ENDBRANCH   3  16
BRANCH   4  19
ATOM     19  N   UNL     1       0.560  -8.295   2.454  0.00  0.00    -0.298 N 
ATOM     20  H   UNL     1       0.425  -8.803   1.638  0.00  0.00    +0.154 HD
BRANCH  19  21
ATOM     21  C   UNL     1       0.572  -8.948   3.689  0.00  0.00    +0.035 A 
ATOM     22  C   UNL     1       1.160  -8.341   4.792  0.00  0.00    +0.024 A 
ATOM     23  C   UNL     1       1.170  -8.989   6.011  0.00  0.00    +0.005 A 
ATOM     24  C   UNL     1       0.595 -10.241   6.136  0.00  0.00    -0.050 A 
ATOM     25  C   UNL     1       0.008 -10.848   5.040  0.00  0.00    +0.008 A 
ATOM     26  C   UNL     1      -0.010 -10.203   3.819  0.00  0.00    -0.029 A 
ATOM     27  C   UNL     1      -0.655 -10.862   2.627  0.00  0.00    +0.045 C 
ATOM     28  C   UNL     1       0.608 -10.945   7.468  0.00  0.00    +0.044 C 
ENDBRANCH  19  21
ENDBRANCH   4  19
TORSDOF 4
