REMARK  Name = ZINC38768461
REMARK  8 active torsions:
REMARK  status: ('A' for Active; 'I' for Inactive)
REMARK    1  A    between atoms: C_1  and  C_2
REMARK    2  A    between atoms: C_2  and  C_3
REMARK    3  A    between atoms: C_2  and  C_4
REMARK    4  A    between atoms: C_2  and  C_5
REMARK    5  A    between atoms: C_8  and  C_11
REMARK    6  A    between atoms: N_13  and  C_14
REMARK    7  A    between atoms: C_14  and  C_15
REMARK    8  A    between atoms: C_15  and  C_16
REMARK                            x       y       z     vdW  Elec       q    Type
REMARK                         _______ _______ _______ _____ _____    ______ ____
ROOT
ATOM      1  C   UNL     1       6.810  -1.956  -7.406  0.00  0.00    +0.217 C 
ATOM      2  O   UNL     1       6.221  -2.653  -8.204  0.00  0.00    -0.276 OA
ATOM      3  N   UNL     1       8.095  -1.616  -7.627  0.00  0.00    -0.302 N 
ATOM      4  C   UNL     1       8.824  -0.777  -6.665  0.00  0.00    +0.106 C 
ATOM      5  C   UNL     1       9.415   0.424  -7.409  0.00  0.00    +0.009 C 
ATOM      6  C   UNL     1      10.263  -0.072  -8.581  0.00  0.00    -0.037 C 
ATOM      7  C   UNL     1       9.388  -0.863  -9.555  0.00  0.00    +0.009 C 
ATOM      8  C   UNL     1       8.797  -2.083  -8.831  0.00  0.00    +0.106 C 
ATOM      9  C   UNL     1      10.890   1.121  -9.304  0.00  0.00    +0.140 C 
ATOM     10  C   UNL     1      11.840   1.760  -8.296  0.00  0.00    +0.042 C 
ATOM     11  N   UNL     1      11.480   2.979  -8.194  0.00  0.00    -0.243 NA
ATOM     12  C   UNL     1      10.364   3.234  -8.919  0.00  0.00    +0.216 C 
ATOM     13  N   UNL     1       9.929   2.188  -9.589  0.00  0.00    -0.264 NA
ATOM     14  C   UNL     1      12.864   0.941  -7.552  0.00  0.00    +0.034 C 
ATOM     15  C   UNL     1      12.110  -0.288  -7.008  0.00  0.00    -0.076 C 
ATOM     16  N   UNL     1      11.344  -0.931  -8.079  0.00  0.00    +0.385 N 
ATOM     17  H   UNL     1      10.945  -1.788  -7.726  0.00  0.00    -0.085 HD
ATOM     18  H   UNL     1      11.968  -1.152  -8.840  0.00  0.00    -0.085 HD
ENDROOT
BRANCH   1  19
ATOM     19  C   UNL     1       6.104  -1.469  -6.166  0.00  0.00    +0.114 C 
BRANCH  19  20
ATOM     20  C   UNL     1       4.667  -1.994  -6.158  0.00  0.00    +0.113 C 
BRANCH  20  23
ATOM     21  C   UNL     1       2.696  -1.860  -4.732  0.00  0.00    +0.244 C 
ATOM     22  O   UNL     1       2.106  -2.559  -5.533  0.00  0.00    -0.270 OA
ATOM     23  N   UNL     1       3.981  -1.521  -4.953  0.00  0.00    -0.311 N 
ATOM     24  H   UNL     1       4.452  -0.963  -4.314  0.00  0.00    +0.149 HD
BRANCH  21  28
ATOM     25  C   UNL     1       0.707  -0.490  -1.238  0.00  0.00    -0.042 A 
ATOM     26  C   UNL     1       0.033  -1.285  -2.147  0.00  0.00    +0.005 A 
ATOM     27  C   UNL     1       0.672  -1.733  -3.284  0.00  0.00    +0.013 A 
ATOM     28  C   UNL     1       2.004  -1.383  -3.516  0.00  0.00    +0.037 A 
ATOM     29  C   UNL     1       2.679  -0.581  -2.595  0.00  0.00    +0.013 A 
ATOM     30  C   UNL     1       2.025  -0.135  -1.464  0.00  0.00    +0.005 A 
BRANCH  25  32
ATOM     31  C   UNL     1      -0.019   1.526   0.010  0.00  0.00    +0.015 C 
ATOM     32  C   UNL     1       0.002  -0.004   0.002  0.00  0.00    -0.013 C 
ATOM     33  C   UNL     1       0.742  -0.511   1.242  0.00  0.00    +0.015 C 
ATOM     34  C   UNL     1      -1.433  -0.534   0.013  0.00  0.00    +0.015 C 
ENDBRANCH  25  32
ENDBRANCH  21  28
ENDBRANCH  20  23
ENDBRANCH  19  20
ENDBRANCH   1  19
TORSDOF 5
