REMARK  Name = ZINC63557794
REMARK  8 active torsions:
REMARK  status: ('A' for Active; 'I' for Inactive)
REMARK    1  A    between atoms: C_1  and  C_2
REMARK    2  A    between atoms: C_9  and  N_12
REMARK    3  A    between atoms: C_13  and  C_15
REMARK    4  A    between atoms: N_20  and  C_22
REMARK    5  A    between atoms: C_22  and  C_23
REMARK    6  A    between atoms: C_23  and  C_24
REMARK    7  A    between atoms: C_27  and  O_33
REMARK    8  A    between atoms: O_33  and  C_34
REMARK                            x       y       z     vdW  Elec       q    Type
REMARK                         _______ _______ _______ _____ _____    ______ ____
ROOT
ATOM      1  C   UNL     1      -2.446  -7.233   2.968  0.00  0.00    +0.101 C 
ATOM      2  C   UNL     1      -3.696  -6.343   3.158  0.00  0.00    +0.110 C 
ATOM      3  C   UNL     1      -4.507  -7.063   4.214  0.00  0.00    +0.216 C 
ATOM      4  O   UNL     1      -5.678  -6.855   4.452  0.00  0.00    -0.276 OA
ATOM      5  N   UNL     1      -3.740  -7.966   4.849  0.00  0.00    -0.300 N 
ATOM      6  C   UNL     1      -2.368  -7.963   4.328  0.00  0.00    +0.121 C 
ENDROOT
BRANCH   1   8
ATOM      7  N   UNL     1      -1.123  -5.628   1.630  0.00  0.00    -0.288 N 
ATOM      8  C   UNL     1      -1.217  -6.393   2.736  0.00  0.00    +0.220 C 
ATOM      9  O   UNL     1      -0.312  -6.405   3.543  0.00  0.00    -0.275 OA
ATOM     10  H   UNL     1      -1.846  -5.618   0.984  0.00  0.00    +0.151 HD
BRANCH   7  19
ATOM     11  C   UNL     1      -0.018   1.503   0.010  0.00  0.00    +0.044 C 
ATOM     12  C   UNL     1       0.002  -0.004   0.002  0.00  0.00    -0.049 A 
ATOM     13  C   UNL     1       0.006  -0.700  -1.193  0.00  0.00    +0.005 A 
ATOM     14  C   UNL     1       0.025  -2.075  -1.215  0.00  0.00    +0.024 A 
ATOM     15  C   UNL     1       0.040  -2.822  -0.023  0.00  0.00    +0.043 A 
ATOM     16  C   UNL     1       0.035  -2.090   1.168  0.00  0.00    +0.032 A 
ATOM     17  C   UNL     1       0.023  -0.714   1.191  0.00  0.00    +0.020 A 
ATOM     18  S   UNL     1       0.057  -3.310   2.462  0.00  0.00    -0.082 S 
ATOM     19  C   UNL     1       0.072  -4.811   1.404  0.00  0.00    +0.224 C 
ATOM     20  N   UNL     1       0.059  -4.213   0.062  0.00  0.00    -0.316 N 
ATOM     21  H   UNL     1       0.062  -4.766  -0.735  0.00  0.00    +0.149 HD
ENDBRANCH   7  19
ENDBRANCH   1   8
BRANCH   5  22
ATOM     22  C   UNL     1      -4.214  -8.843   5.923  0.00  0.00    +0.112 C 
BRANCH  22  23
ATOM     23  C   UNL     1      -4.745 -10.145   5.321  0.00  0.00    +0.052 C 
BRANCH  23  24
ATOM     24  C   UNL     1      -5.232 -11.047   6.426  0.00  0.00    -0.040 C 
ATOM     25  C   UNL     1      -6.501 -11.167   6.878  0.00  0.00    +0.002 A 
ATOM     26  C   UNL     1      -7.760 -10.519   6.493  0.00  0.00    +0.055 A 
ATOM     27  C   UNL     1      -8.904 -10.847   7.140  0.00  0.00    +0.121 A 
ATOM     28  C   UNL     1      -8.934 -11.794   8.178  0.00  0.00    +0.047 A 
ATOM     29  C   UNL     1      -7.828 -12.442   8.603  0.00  0.00    +0.029 A 
ATOM     30  C   UNL     1      -6.534 -12.165   7.972  0.00  0.00    +0.043 A 
ATOM     31  N   UNL     1      -5.334 -12.642   8.188  0.00  0.00    -0.380 N 
ATOM     32  C   UNL     1      -4.402 -12.006   7.250  0.00  0.00    +0.144 C 
ATOM     33  H   UNL     1      -5.101 -13.308   8.854  0.00  0.00    +0.160 HD
BRANCH  27  34
ATOM     34  O   UNL     1     -10.063 -10.239   6.773  0.00  0.00    -0.495 OA
ATOM     35  C   UNL     1     -11.245 -10.614   7.482  0.00  0.00    +0.277 C 
ENDBRANCH  27  34
ENDBRANCH  23  24
ENDBRANCH  22  23
ENDBRANCH   5  22
TORSDOF 6
