REMARK  Name = ZINC37725206
REMARK  10 active torsions:
REMARK  status: ('A' for Active; 'I' for Inactive)
REMARK    1  A    between atoms: C_1  and  C_2
REMARK    2  A    between atoms: C_2  and  C_3
REMARK    3  A    between atoms: C_3  and  N_4
REMARK    4  A    between atoms: C_5  and  C_7
REMARK    5  A    between atoms: C_7  and  O_8
REMARK    6  A    between atoms: O_8  and  C_9
REMARK    7  A    between atoms: C_14  and  C_15
REMARK    8  A    between atoms: C_15  and  C_16
REMARK    9  A    between atoms: C_16  and  C_18
REMARK   10  A    between atoms: C_16  and  N_19
REMARK                            x       y       z     vdW  Elec       q    Type
REMARK                         _______ _______ _______ _____ _____    ______ ____
ROOT
ATOM      1  C   UNL     1       2.185  -5.974   3.530  0.00  0.00    +0.124 A 
ATOM      2  C   UNL     1       1.642  -6.822   2.576  0.00  0.00    +0.047 A 
ATOM      3  C   UNL     1       1.754  -8.191   2.726  0.00  0.00    +0.019 A 
ATOM      4  C   UNL     1       2.406  -8.716   3.828  0.00  0.00    +0.018 A 
ATOM      5  C   UNL     1       2.947  -7.872   4.781  0.00  0.00    +0.022 A 
ATOM      6  C   UNL     1       2.843  -6.503   4.631  0.00  0.00    -0.006 A 
ATOM      7 BR   UNL     1       2.557 -10.590   4.031  0.00  0.00    -0.050 Br
ENDROOT
BRANCH   1   8
ATOM      8  O   UNL     1       2.076  -4.627   3.384  0.00  0.00    -0.483 OA
BRANCH   8   9
ATOM      9  C   UNL     1       1.385  -4.154   2.227  0.00  0.00    +0.324 C 
BRANCH   9  11
ATOM     10  N   UNL     1       0.762  -1.976   1.234  0.00  0.00    -0.313 N 
ATOM     11  C   UNL     1       1.364  -2.647   2.235  0.00  0.00    +0.251 C 
ATOM     12  O   UNL     1       1.890  -2.038   3.143  0.00  0.00    -0.272 OA
ATOM     13  H   UNL     1       0.342  -2.462   0.507  0.00  0.00    +0.149 HD
BRANCH  10  14
ATOM     14  C   UNL     1       0.742  -0.511   1.242  0.00  0.00    +0.104 C 
BRANCH  14  16
ATOM     15  C   UNL     1      -0.019   1.526   0.010  0.00  0.00    +0.005 C 
ATOM     16  C   UNL     1       0.002  -0.004   0.002  0.00  0.00    +0.015 C 
ENDBRANCH  14  16
ENDBRANCH  10  14
ENDBRANCH   9  11
ENDBRANCH   8   9
ENDBRANCH   1   8
BRANCH   6  17
ATOM     17  C   UNL     1       3.439  -5.583   5.666  0.00  0.00    +0.022 C 
BRANCH  17  18
ATOM     18  C   UNL     1       2.363  -5.193   6.681  0.00  0.00    -0.074 C 
ATOM     19  C   UNL     1       2.995  -4.362   7.800  0.00  0.00    -0.014 C 
BRANCH  18  20
ATOM     20  N   UNL     1       1.322  -4.402   6.012  0.00  0.00    +0.380 N 
ATOM     21  H   UNL     1       0.613  -4.144   6.682  0.00  0.00    -0.090 HD
ATOM     22  H   UNL     1       1.734  -3.567   5.620  0.00  0.00    -0.090 HD
ATOM     23  H   UNL     1       0.905  -4.949   5.274  0.00  0.00    -0.090 HD
ENDBRANCH  18  20
ENDBRANCH  17  18
ENDBRANCH   6  17
TORSDOF 8
