REMARK  Name = ZINC42184582
REMARK  12 active torsions:
REMARK  status: ('A' for Active; 'I' for Inactive)
REMARK    1  A    between atoms: C_1  and  C_2
REMARK    2  A    between atoms: C_2  and  C_4
REMARK    3  A    between atoms: C_2  and  N_14
REMARK    4  A    between atoms: C_7  and  O_12
REMARK    5  A    between atoms: C_9  and  O_10
REMARK    6  A    between atoms: O_10  and  C_11
REMARK    7  A    between atoms: O_12  and  C_13
REMARK    8  A    between atoms: N_14  and  C_15
REMARK    9  A    between atoms: C_15  and  C_17
REMARK   10  A    between atoms: C_15  and  C_18
REMARK   11  A    between atoms: N_23  and  C_24
REMARK   12  A    between atoms: C_24  and  C_25
REMARK                            x       y       z     vdW  Elec       q    Type
REMARK                         _______ _______ _______ _____ _____    ______ ____
ROOT
ATOM      1  C   UNL     1      -2.081   0.079   1.189  0.00  0.00    +0.014 C 
ATOM      2  C   UNL     1      -2.204   1.603   1.133  0.00  0.00    -0.004 C 
ENDROOT
BRANCH   1   3
ATOM      3  C   UNL     1      -3.454  -0.532   1.292  0.00  0.00    +0.206 C 
ATOM      4  O   UNL     1      -3.845  -1.295   0.434  0.00  0.00    -0.277 OA
ATOM      5  N   UNL     1      -4.250  -0.231   2.338  0.00  0.00    -0.242 N 
ATOM      6  C   UNL     1      -5.478  -0.778   2.430  0.00  0.00    +0.306 C 
ATOM      7  O   UNL     1      -5.869  -1.542   1.570  0.00  0.00    -0.252 OA
ATOM      8  N   UNL     1      -6.273  -0.476   3.476  0.00  0.00    -0.294 N 
ATOM      9  H   UNL     1      -3.938   0.380   3.024  0.00  0.00    +0.159 HD
ATOM     10  H   UNL     1      -5.961   0.134   4.162  0.00  0.00    +0.151 HD
BRANCH   8  11
ATOM     11  C   UNL     1      -7.608  -1.070   3.576  0.00  0.00    +0.148 C 
BRANCH  11  12
ATOM     12  C   UNL     1      -8.286  -0.575   4.827  0.00  0.00    +0.007 A 
ATOM     13  C   UNL     1      -9.076   0.514   4.996  0.00  0.00    +0.013 A 
ATOM     14  C   UNL     1      -9.596   0.777   6.250  0.00  0.00    +0.008 A 
ATOM     15  C   UNL     1      -9.301  -0.061   7.273  0.00  0.00    +0.045 A 
ATOM     16  S   UNL     1      -8.264  -1.273   6.470  0.00  0.00    -0.100 S 
ENDBRANCH  11  12
ENDBRANCH   8  11
ENDBRANCH   1   3
BRANCH   1  17
ATOM     17  N   UNL     1      -1.420  -0.405  -0.031  0.00  0.00    +0.391 N 
ATOM     18  H   UNL     1      -1.914  -0.060  -0.840  0.00  0.00    -0.084 HD
ATOM     19  H   UNL     1      -1.425  -1.413  -0.038  0.00  0.00    -0.084 HD
BRANCH  17  21
ATOM     20  C   UNL     1       0.610  -0.300  -1.396  0.00  0.00    -0.009 C 
ATOM     21  C   UNL     1      -0.033   0.079  -0.061  0.00  0.00    -0.039 C 
BRANCH  21  22
ATOM     22  C   UNL     1       0.743  -0.551   1.067  0.00  0.00    -0.020 A 
ATOM     23  C   UNL     1       0.340  -1.766   1.588  0.00  0.00    +0.009 A 
ATOM     24  C   UNL     1       1.050  -2.346   2.622  0.00  0.00    +0.046 A 
ATOM     25  C   UNL     1       2.169  -1.710   3.140  0.00  0.00    +0.124 A 
ATOM     26  C   UNL     1       2.575  -0.491   2.619  0.00  0.00    +0.091 A 
ATOM     27  C   UNL     1       1.864   0.087   1.578  0.00  0.00    +0.125 A 
BRANCH  27  28
ATOM     28  O   UNL     1       2.263   1.279   1.061  0.00  0.00    -0.495 OA
ATOM     29  C   UNL     1       3.426   1.878   1.636  0.00  0.00    +0.277 C 
ENDBRANCH  27  28
BRANCH  25  30
ATOM     30  O   UNL     1       2.866  -2.280   4.157  0.00  0.00    -0.495 OA
ATOM     31  C   UNL     1       2.390  -3.537   4.645  0.00  0.00    +0.277 C 
ENDBRANCH  25  30
ENDBRANCH  21  22
ENDBRANCH  17  21
ENDBRANCH   1  17
TORSDOF 8
