REMARK  Name = ZINC39789719
REMARK  6 active torsions:
REMARK  status: ('A' for Active; 'I' for Inactive)
REMARK    1  A    between atoms: C_1  and  O_2
REMARK    2  A    between atoms: O_2  and  N_3
REMARK    3  A    between atoms: C_4  and  C_6
REMARK    4  A    between atoms: C_9  and  N_12
REMARK    5  A    between atoms: N_12  and  S_13
REMARK    6  A    between atoms: S_13  and  C_16
REMARK                            x       y       z     vdW  Elec       q    Type
REMARK                         _______ _______ _______ _____ _____    ______ ____
ROOT
ATOM      1  S   UNL     1       4.452  -5.306  -5.552  0.00  0.00    +0.072 S 
ATOM      2  O   UNL     1       3.859  -6.328  -4.762  0.00  0.00    -0.150 OA
ATOM      3  O   UNL     1       5.004  -5.561  -6.837  0.00  0.00    -0.150 OA
ENDROOT
BRANCH   1   4
ATOM      4  C   UNL     1       5.742  -4.603  -4.580  0.00  0.00    +0.110 A 
ATOM      5  C   UNL     1       6.783  -3.826  -5.242  0.00  0.00    +0.031 A 
ATOM      6  C   UNL     1       7.799  -3.259  -4.555  0.00  0.00    +0.027 A 
ATOM      7  C   UNL     1       7.868  -3.422  -3.105  0.00  0.00    +0.056 A 
ATOM      8  N   UNL     1       8.690  -3.020  -2.168  0.00  0.00    -0.268 N 
ATOM      9  C   UNL     1       8.235  -3.492  -0.959  0.00  0.00    +0.308 C 
ATOM     10  O   UNL     1       8.770  -3.296   0.111  0.00  0.00    -0.252 OA
ATOM     11  N   UNL     1       7.083  -4.219  -1.147  0.00  0.00    -0.267 N 
ATOM     12  C   UNL     1       6.799  -4.221  -2.425  0.00  0.00    +0.058 A 
ATOM     13  C   UNL     1       5.733  -4.795  -3.243  0.00  0.00    +0.054 A 
ATOM     14  H   UNL     1       6.569  -4.656  -0.450  0.00  0.00    +0.156 HD
ATOM     15  H   UNL     1       9.485  -2.480  -2.304  0.00  0.00    +0.156 HD
ENDBRANCH   1   4
BRANCH   1  16
ATOM     16  N   UNL     1       3.298  -4.136  -5.757  0.00  0.00    -0.216 N 
ATOM     17  H   UNL     1       3.081  -3.820  -6.647  0.00  0.00    +0.174 HD
BRANCH  16  21
ATOM     18  C   UNL     1       1.332  -2.552  -2.448  0.00  0.00    +0.039 A 
ATOM     19  C   UNL     1       1.832  -1.702  -3.439  0.00  0.00    +0.015 A 
ATOM     20  C   UNL     1       2.482  -2.229  -4.532  0.00  0.00    +0.025 A 
ATOM     21  C   UNL     1       2.642  -3.607  -4.651  0.00  0.00    +0.048 A 
ATOM     22  C   UNL     1       2.144  -4.456  -3.666  0.00  0.00    +0.025 A 
ATOM     23  C   UNL     1       1.499  -3.935  -2.568  0.00  0.00    +0.015 A 
BRANCH  18  25
ATOM     24  N   UNL     1       0.475  -0.657  -1.161  0.00  0.00    -0.191 N 
ATOM     25  C   UNL     1       0.635  -1.991  -1.276  0.00  0.00    +0.267 C 
ATOM     26  O   UNL     1       0.205  -2.731  -0.412  0.00  0.00    -0.268 OA
ATOM     27  H   UNL     1       0.819  -0.067  -1.850  0.00  0.00    +0.183 HD
BRANCH  24  29
ATOM     28  C   UNL     1      -0.291   1.307  -0.045  0.00  0.00    +0.226 C 
ATOM     29  O   UNL     1      -0.193  -0.118  -0.035  0.00  0.00    -0.283 OA
ENDBRANCH  24  29
ENDBRANCH  18  25
ENDBRANCH  16  21
ENDBRANCH   1  16
TORSDOF 5
