REMARK  Name = ZINC64186025
REMARK  2 active torsions:
REMARK  status: ('A' for Active; 'I' for Inactive)
REMARK    1  A    between atoms: C_11  and  C_17
REMARK    2  A    between atoms: C_18  and  C_22
REMARK                            x       y       z     vdW  Elec       q    Type
REMARK                         _______ _______ _______ _____ _____    ______ ____
ROOT
ATOM      1  C   UNL     1       0.190   0.366   0.048  0.00  0.00    +0.002 A 
ATOM      2  C   UNL     1       1.240   1.265   0.091  0.00  0.00    +0.002 A 
ATOM      3  C   UNL     1       2.541   0.817  -0.024  0.00  0.00    +0.025 A 
ATOM      4  C   UNL     1       2.806  -0.538  -0.176  0.00  0.00    +0.055 A 
ATOM      5  C   UNL     1       1.746  -1.446  -0.205  0.00  0.00    +0.051 A 
ATOM      6  C   UNL     1       0.440  -0.984  -0.101  0.00  0.00    +0.025 A 
ATOM      7  N   UNL     1       2.241  -2.755  -0.321  0.00  0.00    -0.309 N 
ATOM      8  C   UNL     1       3.701  -2.672  -0.263  0.00  0.00    +0.255 C 
ATOM      9  N   UNL     1       4.002  -1.228  -0.346  0.00  0.00    -0.272 N 
ATOM     10  C   UNL     1       5.346  -0.709  -0.628  0.00  0.00    +0.195 C 
ATOM     11  N   UNL     1       5.861  -1.503  -1.765  0.00  0.00    -0.297 N 
ATOM     12  C   UNL     1       5.600  -2.863  -1.772  0.00  0.00    +0.155 C 
ATOM     13  N   UNL     1       4.318  -3.305  -1.442  0.00  0.00    -0.285 N 
ATOM     14  N   UNL     1       6.534  -3.722  -2.071  0.00  0.00    -0.375 N 
ATOM     15  H   UNL     1       1.715  -3.563  -0.420  0.00  0.00    +0.149 HD
ATOM     16  H   UNL     1       6.364  -1.085  -2.482  0.00  0.00    +0.151 HD
ATOM     17  H   UNL     1       7.426  -3.412  -2.293  0.00  0.00    +0.158 HD
ATOM     18  H   UNL     1       3.852  -3.978  -1.963  0.00  0.00    +0.152 HD
ATOM     19  H   UNL     1       6.337  -4.672  -2.072  0.00  0.00    +0.158 HD
ENDROOT
BRANCH  10  20
ATOM     20  C   UNL     1       5.271   0.749  -1.002  0.00  0.00    +0.019 C 
ATOM     21  C   UNL     1       5.743   1.808  -0.316  0.00  0.00    +0.099 C 
ATOM     22  N   UNL     1       5.479   2.961  -0.984  0.00  0.00    -0.154 NA
ATOM     23  N   UNL     1       4.879   2.808  -2.050  0.00  0.00    -0.182 NA
ATOM     24  C   UNL     1       4.651   1.367  -2.243  0.00  0.00    +0.202 C 
BRANCH  21  25
ATOM     25  C   UNL     1       6.451   1.726   0.985  0.00  0.00    +0.020 A 
ATOM     26  C   UNL     1       7.634   2.441   1.197  0.00  0.00    +0.013 A 
ATOM     27  C   UNL     1       8.255   2.331   2.428  0.00  0.00    +0.020 A 
ATOM     28  C   UNL     1       7.692   1.525   3.401  0.00  0.00    +0.111 A 
ATOM     29  N   UNL     1       6.575   0.863   3.172  0.00  0.00    -0.263 NA
ATOM     30  C   UNL     1       5.945   0.940   2.018  0.00  0.00    +0.120 A 
ENDBRANCH  21  25
ENDBRANCH  10  20
TORSDOF 2
