REMARK  Name = ZINC66976487
REMARK  7 active torsions:
REMARK  status: ('A' for Active; 'I' for Inactive)
REMARK    1  A    between atoms: C_1  and  C_2
REMARK    2  A    between atoms: C_4  and  C_27
REMARK    3  A    between atoms: C_9  and  C_10
REMARK    4  A    between atoms: C_10  and  N_11
REMARK    5  A    between atoms: N_14  and  C_15
REMARK    6  A    between atoms: C_15  and  C_16
REMARK    7  A    between atoms: C_16  and  O_26
REMARK                            x       y       z     vdW  Elec       q    Type
REMARK                         _______ _______ _______ _____ _____    ______ ____
ROOT
ATOM      1  N   UNL     1      -1.335  -0.320   3.273  0.00  0.00    -0.295 N 
ATOM      2  C   UNL     1      -1.582   0.423   4.370  0.00  0.00    +0.300 C 
ATOM      3  O   UNL     1      -0.660   0.815   5.059  0.00  0.00    -0.253 OA
ATOM      4  N   UNL     1      -2.851   0.731   4.703  0.00  0.00    -0.296 N 
ATOM      5  H   UNL     1      -2.070  -0.634   2.724  0.00  0.00    +0.151 HD
ATOM      6  H   UNL     1      -3.586   0.418   4.154  0.00  0.00    +0.150 HD
ENDROOT
BRANCH   1   7
ATOM      7  C   UNL     1       0.045  -0.655   2.911  0.00  0.00    +0.146 C 
BRANCH   7  16
ATOM      8  C   UNL     1       0.406   0.595   0.333  0.00  0.00    +0.044 C 
ATOM      9  C   UNL     1       0.216  -0.896   0.436  0.00  0.00    -0.039 A 
ATOM     10  C   UNL     1       0.219  -1.692  -0.717  0.00  0.00    +0.024 A 
ATOM     11  C   UNL     1       0.049  -3.031  -0.615  0.00  0.00    +0.016 A 
ATOM     12  N   UNL     1      -0.125  -3.617   0.598  0.00  0.00    -0.326 N 
ATOM     13  H   UNL     1      -0.246  -4.578   0.653  0.00  0.00    +0.169 HD
ATOM     14  C   UNL     1      -0.132  -2.879   1.724  0.00  0.00    +0.254 A 
ATOM     15  O   UNL     1      -0.290  -3.421   2.807  0.00  0.00    -0.268 OA
ATOM     16  C   UNL     1       0.046  -1.487   1.654  0.00  0.00    +0.037 A 
ATOM     17  C   UNL     1       0.053  -3.881  -1.860  0.00  0.00    +0.063 C 
ENDBRANCH   7  16
ENDBRANCH   1   7
BRANCH   4  18
ATOM     18  C   UNL     1      -3.119   1.538   5.896  0.00  0.00    +0.145 C 
BRANCH  18  19
ATOM     19  C   UNL     1      -4.630   1.628   6.122  0.00  0.00    +0.107 C 
ATOM     20  C   UNL     1      -5.204   0.218   6.253  0.00  0.00    +0.041 C 
ATOM     21  C   UNL     1      -6.668   0.332   6.693  0.00  0.00    +0.008 C 
ATOM     22  C   UNL     1      -6.699   0.826   8.138  0.00  0.00    +0.035 C 
ATOM     23  C   UNL     1      -5.852   2.062   8.293  0.00  0.00    -0.041 A 
ATOM     24  C   UNL     1      -4.899   2.428   7.369  0.00  0.00    -0.011 A 
ATOM     25  C   UNL     1      -4.147   3.577   7.576  0.00  0.00    +0.007 A 
ATOM     26  C   UNL     1      -4.349   4.355   8.697  0.00  0.00    +0.000 A 
ATOM     27  C   UNL     1      -5.308   3.990   9.622  0.00  0.00    +0.000 A 
ATOM     28  C   UNL     1      -6.055   2.848   9.420  0.00  0.00    +0.004 A 
BRANCH  19  29
ATOM     29  O   UNL     1      -5.236   2.280   5.004  0.00  0.00    -0.382 OA
ATOM     30  H   UNL     1      -4.914   3.179   4.851  0.00  0.00    +0.211 HD
ENDBRANCH  19  29
ENDBRANCH  18  19
ENDBRANCH   4  18
TORSDOF 5
