REMARK  Name = ZINC66701071
REMARK  11 active torsions:
REMARK  status: ('A' for Active; 'I' for Inactive)
REMARK    1  A    between atoms: C_1  and  C_2
REMARK    2  A    between atoms: C_2  and  O_3
REMARK    3  A    between atoms: O_3  and  C_4
REMARK    4  A    between atoms: C_4  and  C_5
REMARK    5  A    between atoms: N_7  and  N_8
REMARK    6  A    between atoms: N_11  and  C_12
REMARK    7  A    between atoms: C_12  and  C_13
REMARK    8  A    between atoms: C_13  and  N_21
REMARK    9  A    between atoms: C_17  and  C_20
REMARK   10  A    between atoms: N_21  and  C_22
REMARK   11  A    between atoms: N_21  and  C_23
REMARK                            x       y       z     vdW  Elec       q    Type
REMARK                         _______ _______ _______ _____ _____    ______ ____
ROOT
ATOM      1  N   UNL     1       5.917  -7.529  -4.608  0.00  0.00    -0.218 N 
ATOM      2  C   UNL     1       4.586  -7.321  -4.662  0.00  0.00    +0.316 C 
ATOM      3  O   UNL     1       4.117  -6.603  -5.524  0.00  0.00    -0.251 OA
ATOM      4  N   UNL     1       3.775  -7.909  -3.760  0.00  0.00    -0.300 N 
ATOM      5  H   UNL     1       6.500  -7.106  -5.258  0.00  0.00    +0.174 HD
ATOM      6  H   UNL     1       4.149  -8.482  -3.072  0.00  0.00    +0.150 HD
ENDROOT
BRANCH   1   9
ATOM      7  C   UNL     1       7.787  -8.565  -3.562  0.00  0.00    +0.255 C 
ATOM      8  O   UNL     1       8.517  -8.036  -4.373  0.00  0.00    -0.272 OA
ATOM      9  N   UNL     1       6.457  -8.357  -3.615  0.00  0.00    -0.231 N 
ATOM     10  H   UNL     1       5.873  -8.780  -2.966  0.00  0.00    +0.173 HD
BRANCH   7  11
ATOM     11  C   UNL     1       8.368  -9.455  -2.493  0.00  0.00    +0.256 C 
BRANCH  11  12
ATOM     12  O   UNL     1       9.788  -9.517  -2.646  0.00  0.00    -0.371 OA
BRANCH  12  14
ATOM     13  C   UNL     1      11.949 -10.333  -1.934  0.00  0.00    +0.034 C 
ATOM     14  C   UNL     1      10.441 -10.340  -1.677  0.00  0.00    +0.157 C 
ENDBRANCH  12  14
ENDBRANCH  11  12
ENDBRANCH   7  11
ENDBRANCH   1   9
BRANCH   4  15
ATOM     15  C   UNL     1       2.329  -7.682  -3.818  0.00  0.00    +0.094 C 
BRANCH  15  16
ATOM     16  C   UNL     1       1.633  -8.561  -2.776  0.00  0.00    -0.050 C 
ATOM     17  C   UNL     1       2.132  -8.188  -1.379  0.00  0.00    -0.010 C 
ATOM     18  C   UNL     1       1.437  -9.067  -0.338  0.00  0.00    -0.001 C 
ATOM     19  C   UNL     1       1.753 -10.538  -0.617  0.00  0.00    +0.003 C 
ATOM     20  C   UNL     1       1.254 -10.910  -2.015  0.00  0.00    -0.015 C 
ATOM     21  C   UNL     1       1.950 -10.031  -3.056  0.00  0.00    -0.007 C 
ATOM     22  C   UNL     1       1.571 -12.381  -2.294  0.00  0.00    +0.007 C 
BRANCH  16  23
ATOM     23  N   UNL     1       0.181  -8.351  -2.850  0.00  0.00    +0.381 N 
ATOM     24  C   UNL     1      -0.124  -6.940  -2.575  0.00  0.00    -0.096 C 
ATOM     25  C   UNL     1      -0.297  -8.702  -4.194  0.00  0.00    -0.096 C 
ATOM     26  H   UNL     1      -0.278  -8.933  -2.166  0.00  0.00    -0.082 HD
ENDBRANCH  16  23
ENDBRANCH  15  16
ENDBRANCH   4  15
TORSDOF 7
