REMARK  Name = ZINC10928118
REMARK  8 active torsions:
REMARK  status: ('A' for Active; 'I' for Inactive)
REMARK    1  A    between atoms: C_1  and  C_2
REMARK    2  A    between atoms: C_4  and  C_27
REMARK    3  A    between atoms: C_6  and  N_13
REMARK    4  A    between atoms: C_14  and  C_16
REMARK    5  A    between atoms: C_16  and  N_49
REMARK    6  A    between atoms: C_20  and  C_22
REMARK    7  A    between atoms: N_24  and  C_25
REMARK    8  A    between atoms: N_24  and  C_26
REMARK                            x       y       z     vdW  Elec       q    Type
REMARK                         _______ _______ _______ _____ _____    ______ ____
ROOT
ATOM      1  N   UNL     1       1.754   3.490  -1.224  0.00  0.00    -0.257 N 
ATOM      2  C   UNL     1       0.742   4.330  -0.932  0.00  0.00    +0.203 C 
ATOM      3  O   UNL     1      -0.403   3.931  -0.956  0.00  0.00    -0.277 OA
ATOM      4  H   UNL     1       2.670   3.809  -1.205  0.00  0.00    +0.158 HD
ENDROOT
BRANCH   1  10
ATOM      5  C   UNL     1       1.666  -2.514  -2.794  0.00  0.00    +0.068 C 
ATOM      6  C   UNL     1       2.397  -1.228  -2.507  0.00  0.00    +0.070 A 
ATOM      7  C   UNL     1       1.647  -0.023  -2.138  0.00  0.00    +0.053 A 
ATOM      8  C   UNL     1       0.351   0.308  -1.960  0.00  0.00    +0.114 A 
ATOM      9  O   UNL     1       0.271   1.606  -1.613  0.00  0.00    -0.445 OA
ATOM     10  C   UNL     1       1.487   2.171  -1.551  0.00  0.00    +0.206 A 
ATOM     11  C   UNL     1       2.421   1.214  -1.868  0.00  0.00    +0.110 A 
ATOM     12  C   UNL     1       3.873   1.143  -1.989  0.00  0.00    +0.277 A 
ATOM     13  O   UNL     1       4.563   2.125  -1.780  0.00  0.00    -0.266 OA
ATOM     14  N   UNL     1       4.438  -0.032  -2.337  0.00  0.00    -0.242 N 
ATOM     15  H   UNL     1       5.403  -0.079  -2.417  0.00  0.00    +0.192 HD
ATOM     16  N   UNL     1       3.691  -1.181  -2.586  0.00  0.00    -0.175 NA
ATOM     17  C   UNL     1      -0.819  -0.626  -2.123  0.00  0.00    +0.087 C 
ENDBRANCH   1  10
BRANCH   2  18
ATOM     18  C   UNL     1       1.032   5.765  -0.576  0.00  0.00    +0.020 C 
BRANCH  18  23
ATOM     19  C   UNL     1      -0.953   6.763  -1.557  0.00  0.00    -0.077 C 
ATOM     20  C   UNL     1      -1.666   8.113  -1.293  0.00  0.00    -0.020 C 
ATOM     21  C   UNL     1      -0.610   8.863  -0.439  0.00  0.00    -0.008 C 
ATOM     22  C   UNL     1       0.016   7.735   0.409  0.00  0.00    +0.020 C 
ATOM     23  N   UNL     1      -0.247   6.468  -0.297  0.00  0.00    +0.393 N 
ATOM     24  H   UNL     1      -0.838   5.868   0.290  0.00  0.00    -0.080 HD
BRANCH  22  25
ATOM     25  C   UNL     1       1.498   7.963   0.556  0.00  0.00    +0.202 C 
ATOM     26  O   UNL     1       2.228   7.845  -0.405  0.00  0.00    -0.277 OA
ATOM     27  N   UNL     1       2.012   8.296   1.757  0.00  0.00    -0.309 N 
ATOM     28  C   UNL     1       3.437   8.614   1.880  0.00  0.00    +0.131 C 
ATOM     29  C   UNL     1       1.147   8.342   2.938  0.00  0.00    +0.131 C 
ENDBRANCH  22  25
ENDBRANCH  18  23
ENDBRANCH   2  18
TORSDOF 4
