REMARK  Name = ZINC08345240
REMARK  13 active torsions:
REMARK  status: ('A' for Active; 'I' for Inactive)
REMARK    1  A    between atoms: C_1  and  C_2
REMARK    2  A    between atoms: C_4  and  C_7
REMARK    3  A    between atoms: C_7  and  O_8
REMARK    4  A    between atoms: O_8  and  C_9
REMARK    5  A    between atoms: C_12  and  C_17
REMARK    6  A    between atoms: C_14  and  O_15
REMARK    7  A    between atoms: O_15  and  C_16
REMARK    8  A    between atoms: C_17  and  N_18
REMARK    9  A    between atoms: N_18  and  C_19
REMARK   10  A    between atoms: C_21  and  C_27
REMARK   11  A    between atoms: C_21  and  C_28
REMARK   12  A    between atoms: C_23  and  C_25
REMARK   13  A    between atoms: C_23  and  C_26
REMARK                            x       y       z     vdW  Elec       q    Type
REMARK                         _______ _______ _______ _____ _____    ______ ____
ROOT
ATOM      1  C   UNL     1      -2.602  -6.122   0.365  0.00  0.00    +0.162 A 
ATOM      2  C   UNL     1      -3.924  -5.712   0.309  0.00  0.00    +0.049 A 
ATOM      3  C   UNL     1      -4.936  -6.651   0.232  0.00  0.00    +0.005 A 
ATOM      4  C   UNL     1      -4.631  -8.000   0.211  0.00  0.00    -0.061 A 
ATOM      5  C   UNL     1      -3.314  -8.415   0.267  0.00  0.00    +0.051 A 
ATOM      6  C   UNL     1      -2.295  -7.479   0.338  0.00  0.00    +0.162 A 
ENDROOT
BRANCH   6   7
ATOM      7  O   UNL     1      -0.998  -7.885   0.387  0.00  0.00    -0.491 OA
ATOM      8  C   UNL     1      -0.758  -9.294   0.355  0.00  0.00    +0.277 C 
ENDBRANCH   6   7
BRANCH   1   9
ATOM      9  O   UNL     1      -1.605  -5.199   0.441  0.00  0.00    -0.482 OA
BRANCH   9  10
ATOM     10  C   UNL     1      -1.994  -3.824   0.465  0.00  0.00    +0.285 C 
BRANCH  10  14
ATOM     11  C   UNL     1       0.304   0.614   0.712  0.00  0.00    +0.073 C 
ATOM     12  C   UNL     1       0.218  -0.890   0.661  0.00  0.00    +0.076 A 
ATOM     13  N   UNL     1      -0.852  -1.641   0.587  0.00  0.00    -0.246 NA
ATOM     14  C   UNL     1      -0.766  -2.956   0.550  0.00  0.00    +0.086 A 
ATOM     15  C   UNL     1       0.481  -3.492   0.592  0.00  0.00    +0.073 A 
ATOM     16  S   UNL     1       1.474  -2.010   0.678  0.00  0.00    -0.080 S 
ENDBRANCH  10  14
ENDBRANCH   9  10
ENDBRANCH   1   9
BRANCH   4  17
ATOM     17  C   UNL     1      -5.738  -9.019   0.127  0.00  0.00    -0.046 C 
BRANCH  17  18
ATOM     18  N   UNL     1      -6.028  -9.312  -1.283  0.00  0.00    +0.383 N 
ATOM     19  H   UNL     1      -6.314  -8.466  -1.751  0.00  0.00    -0.085 HD
ATOM     20  H   UNL     1      -5.199  -9.678  -1.728  0.00  0.00    -0.085 HD
BRANCH  18  21
ATOM     21  C   UNL     1      -7.109 -10.308  -1.365  0.00  0.00    -0.074 C 
ATOM     22  C   UNL     1      -8.405  -9.687  -0.842  0.00  0.00    -0.029 C 
ATOM     23  C   UNL     1      -9.541 -10.705  -0.932  0.00  0.00    -0.075 C 
ATOM     24  N   UNL     1      -9.685 -11.249  -2.274  0.00  0.00    +0.386 N 
ATOM     25  C   UNL     1      -8.479 -11.687  -2.958  0.00  0.00    -0.075 C 
ATOM     26  C   UNL     1      -7.321 -10.703  -2.826  0.00  0.00    -0.029 C 
ATOM     27  C   UNL     1      -8.038 -13.077  -2.494  0.00  0.00    -0.010 C 
ATOM     28  C   UNL     1      -8.815 -11.799  -4.465  0.00  0.00    -0.010 C 
ATOM     29  C   UNL     1     -10.852  -9.962  -0.586  0.00  0.00    -0.010 C 
ATOM     30  C   UNL     1      -9.352 -11.801   0.116  0.00  0.00    -0.010 C 
ATOM     31  H   UNL     1     -10.337 -12.037  -2.234  0.00  0.00    -0.084 HD
ATOM     32  H   UNL     1     -10.149 -10.547  -2.857  0.00  0.00    -0.084 HD
ENDBRANCH  18  21
ENDBRANCH  17  18
ENDBRANCH   4  17
TORSDOF 7
