REMARK  Name = ZINC04963206
REMARK  10 active torsions:
REMARK  status: ('A' for Active; 'I' for Inactive)
REMARK    1  A    between atoms: C_1  and  N_40
REMARK    2  A    between atoms: C_2  and  C_3
REMARK    3  A    between atoms: C_2  and  N_40
REMARK    4  A    between atoms: C_3  and  C_4
REMARK    5  A    between atoms: N_6  and  C_9
REMARK    6  A    between atoms: C_11  and  O_24
REMARK    7  A    between atoms: C_13  and  O_23
REMARK    8  A    between atoms: C_15  and  O_22
REMARK    9  A    between atoms: C_17  and  C_20
REMARK   10  A    between atoms: C_20  and  O_21
REMARK                            x       y       z     vdW  Elec       q    Type
REMARK                         _______ _______ _______ _____ _____    ______ ____
ROOT
ATOM      1  C   UNL     1       0.769   3.578  -1.219  0.00  0.00    +0.252 C 
ATOM      2  C   UNL     1      -0.499   2.751  -0.993  0.00  0.00    +0.195 C 
ATOM      3  C   UNL     1      -0.109   1.290  -0.744  0.00  0.00    +0.178 C 
ATOM      4  C   UNL     1       0.848   1.225   0.450  0.00  0.00    +0.177 C 
ATOM      5  C   UNL     1       2.064   2.111   0.168  0.00  0.00    +0.177 C 
ATOM      6  O   UNL     1       1.629   3.449  -0.085  0.00  0.00    -0.346 OA
ENDROOT
BRANCH   1   9
ATOM      7  C   UNL     1       1.880   2.382  -4.434  0.00  0.00    +0.057 A 
ATOM      8  C   UNL     1       0.887   2.786  -3.619  0.00  0.00    +0.113 A 
ATOM      9  N   UNL     1       1.462   3.093  -2.415  0.00  0.00    -0.308 N 
ATOM     10  C   UNL     1       2.788   2.871  -2.538  0.00  0.00    +0.201 A 
ATOM     11  N   UNL     1       3.030   2.440  -3.746  0.00  0.00    -0.241 NA
BRANCH   7  12
ATOM     12  C   UNL     1       1.726   1.941  -5.866  0.00  0.00    +0.038 C 
BRANCH  12  13
ATOM     13  C   UNL     1       2.648   2.775  -6.758  0.00  0.00    -0.077 C 
BRANCH  13  15
ATOM     14  C   UNL     1       3.370   3.125  -9.043  0.00  0.00    -0.100 C 
ATOM     15  N   UNL     1       2.491   2.337  -8.159  0.00  0.00    +0.377 N 
ATOM     16  H   UNL     1       2.739   1.343  -8.233  0.00  0.00    -0.086 HD
ATOM     17  H   UNL     1       1.514   2.468  -8.447  0.00  0.00    -0.086 HD
ENDBRANCH  13  15
ENDBRANCH  12  13
ENDBRANCH   7  12
ENDBRANCH   1   9
BRANCH   4  18
ATOM     18  O   UNL     1       0.180   1.690   1.625  0.00  0.00    -0.386 OA
ATOM     19  H   UNL     1      -0.603   1.175   1.862  0.00  0.00    +0.210 HD
ENDBRANCH   4  18
BRANCH   3  20
ATOM     20  O   UNL     1      -1.282   0.524  -0.459  0.00  0.00    -0.386 OA
ATOM     21  H   UNL     1      -1.107  -0.411  -0.284  0.00  0.00    +0.210 HD
ENDBRANCH   3  20
BRANCH   2  22
ATOM     22  O   UNL     1      -1.335   2.831  -2.149  0.00  0.00    -0.385 OA
ATOM     23  H   UNL     1      -2.158   2.329  -2.076  0.00  0.00    +0.210 HD
ENDBRANCH   2  22
BRANCH   5  24
ATOM     24  C   UNL     1       2.997   2.099   1.381  0.00  0.00    +0.190 C 
BRANCH  24  25
ATOM     25  O   UNL     1       4.185   2.831   1.075  0.00  0.00    -0.392 OA
ATOM     26  H   UNL     1       4.824   2.865   1.801  0.00  0.00    +0.210 HD
ENDBRANCH  24  25
ENDBRANCH   5  24
TORSDOF 9
