REMARK  Name = ZINC62237550
REMARK  4 active torsions:
REMARK  status: ('A' for Active; 'I' for Inactive)
REMARK    1  A    between atoms: C_5  and  N_7
REMARK    2  A    between atoms: C_8  and  C_14
REMARK    3  A    between atoms: C_9  and  C_12
REMARK    4  A    between atoms: C_12  and  N_13
REMARK                            x       y       z     vdW  Elec       q    Type
REMARK                         _______ _______ _______ _____ _____    ______ ____
ROOT
ATOM      1  N   UNL     1       1.226  -2.081  -0.037  0.00  0.00    -0.209 N 
ATOM      2  C   UNL     1       0.153  -2.925   0.072  0.00  0.00    +0.096 A 
ATOM      3  C   UNL     1       0.653  -4.192   0.034  0.00  0.00    +0.074 A 
ATOM      4  N   UNL     1       1.976  -4.128  -0.094  0.00  0.00    -0.135 NA
ATOM      5  N   UNL     1       2.359  -2.901  -0.146  0.00  0.00    -0.060 NA
ENDROOT
BRANCH   2   6
ATOM      6  C   UNL     1      -1.269  -2.537   0.207  0.00  0.00    +0.005 A 
ATOM      7  C   UNL     1      -2.029  -3.022   1.272  0.00  0.00    +0.013 A 
ATOM      8  C   UNL     1      -3.354  -2.658   1.395  0.00  0.00    +0.042 A 
ATOM      9  C   UNL     1      -3.932  -1.812   0.462  0.00  0.00    +0.158 A 
ATOM     10  C   UNL     1      -3.181  -1.326  -0.599  0.00  0.00    +0.159 A 
ATOM     11  C   UNL     1      -1.852  -1.681  -0.727  0.00  0.00    +0.051 A 
ATOM     12  F   UNL     1      -3.750  -0.502  -1.506  0.00  0.00    -0.202 F 
ATOM     13  F   UNL     1      -5.230  -1.459   0.587  0.00  0.00    -0.202 F 
ENDBRANCH   2   6
BRANCH   1  18
ATOM     14  C   UNL     1       0.441   1.388   0.906  0.00  0.00    +0.002 A 
ATOM     15  C   UNL     1       1.141   2.089  -0.060  0.00  0.00    +0.003 A 
ATOM     16  C   UNL     1       1.870   1.410  -1.019  0.00  0.00    +0.040 A 
ATOM     17  C   UNL     1       1.901   0.027  -1.015  0.00  0.00    +0.149 A 
ATOM     18  C   UNL     1       1.198  -0.679  -0.044  0.00  0.00    +0.103 A 
ATOM     19  C   UNL     1       0.468   0.007   0.916  0.00  0.00    +0.031 A 
ATOM     20  F   UNL     1       2.612  -0.636  -1.952  0.00  0.00    -0.203 F 
ENDBRANCH   1  18
BRANCH   3  21
ATOM     21  C   UNL     1      -0.159  -5.459   0.121  0.00  0.00    -0.026 C 
BRANCH  21  22
ATOM     22  N   UNL     1      -0.458  -5.944  -1.232  0.00  0.00    +0.382 N 
ATOM     23  H   UNL     1      -1.049  -5.278  -1.706  0.00  0.00    -0.090 HD
ATOM     24  H   UNL     1       0.403  -6.055  -1.747  0.00  0.00    -0.090 HD
ATOM     25  H   UNL     1      -0.931  -6.833  -1.174  0.00  0.00    -0.090 HD
ENDBRANCH  21  22
ENDBRANCH   3  21
TORSDOF 4
