REMARK  Name = ZINC43041992
REMARK  9 active torsions:
REMARK  status: ('A' for Active; 'I' for Inactive)
REMARK    1  A    between atoms: C_1  and  C_2
REMARK    2  A    between atoms: C_2  and  C_3
REMARK    3  A    between atoms: C_3  and  C_5
REMARK    4  A    between atoms: C_3  and  N_24
REMARK    5  A    between atoms: C_5  and  C_7
REMARK    6  A    between atoms: C_5  and  S_14
REMARK    7  A    between atoms: C_12  and  C_13
REMARK    8  A    between atoms: S_14  and  C_15
REMARK    9  A    between atoms: C_21  and  N_23
REMARK                            x       y       z     vdW  Elec       q    Type
REMARK                         _______ _______ _______ _____ _____    ______ ____
ROOT
ATOM      1  C   UNL     1       0.804  -1.991  -1.219  0.00  0.00    +0.070 C 
ENDROOT
BRANCH   1   2
ATOM      2  C   UNL     1       1.557  -2.338   0.040  0.00  0.00    -0.033 A 
ATOM      3  C   UNL     1       2.288  -1.367   0.698  0.00  0.00    +0.005 A 
ATOM      4  C   UNL     1       2.979  -1.685   1.852  0.00  0.00    +0.000 A 
ATOM      5  C   UNL     1       2.939  -2.975   2.348  0.00  0.00    +0.000 A 
ATOM      6  C   UNL     1       2.208  -3.946   1.690  0.00  0.00    +0.003 A 
ATOM      7  C   UNL     1       1.513  -3.627   0.538  0.00  0.00    -0.046 A 
ATOM      8  C   UNL     1       0.712  -4.684  -0.177  0.00  0.00    +0.044 C 
ENDBRANCH   1   2
BRANCH   1   9
ATOM      9  C   UNL     1       0.664  -0.471  -1.326  0.00  0.00    -0.057 C 
BRANCH   9  10
ATOM     10  N   UNL     1       0.061  -0.125  -2.620  0.00  0.00    +0.381 N 
ATOM     11  H   UNL     1       0.043   0.878  -2.726  0.00  0.00    -0.090 HD
ATOM     12  H   UNL     1       0.608  -0.531  -3.365  0.00  0.00    -0.090 HD
ATOM     13  H   UNL     1      -0.881  -0.485  -2.660  0.00  0.00    -0.090 HD
ENDBRANCH   9  10
BRANCH   9  15
ATOM     14  C   UNL     1      -0.271   1.569  -0.227  0.00  0.00    +0.002 C 
ATOM     15  C   UNL     1      -0.231   0.039  -0.195  0.00  0.00    -0.018 C 
ENDBRANCH   9  15
ENDBRANCH   1   9
BRANCH   1  16
ATOM     16  S   UNL     1       1.712  -2.617  -2.659  0.00  0.00    -0.081 S 
BRANCH  16  17
ATOM     17  C   UNL     1       3.221  -1.707  -2.641  0.00  0.00    +0.171 A 
ATOM     18  N   UNL     1       4.099  -1.851  -3.673  0.00  0.00    -0.302 N 
ATOM     19  H   UNL     1       3.889  -2.449  -4.407  0.00  0.00    +0.171 HD
ATOM     20  C   UNL     1       5.259  -1.161  -3.675  0.00  0.00    +0.254 A 
ATOM     21  O   UNL     1       6.051  -1.284  -4.596  0.00  0.00    -0.268 OA
ATOM     22  C   UNL     1       5.538  -0.305  -2.606  0.00  0.00    +0.113 A 
ATOM     23  C   UNL     1       4.610  -0.194  -1.580  0.00  0.00    +0.124 A 
ATOM     24  N   UNL     1       3.474  -0.898  -1.633  0.00  0.00    -0.209 NA
BRANCH  23  25
ATOM     25  N   UNL     1       4.857   0.644  -0.510  0.00  0.00    -0.343 N 
ATOM     26  H   UNL     1       5.679   1.156  -0.475  0.00  0.00    +0.144 HD
ATOM     27  H   UNL     1       4.207   0.720   0.206  0.00  0.00    +0.144 HD
ENDBRANCH  23  25
ENDBRANCH  16  17
ENDBRANCH   1  16
TORSDOF 7
