REMARK  Name = ZINC35550014
REMARK  5 active torsions:
REMARK  status: ('A' for Active; 'I' for Inactive)
REMARK    1  A    between atoms: C_1  and  C_2
REMARK    2  A    between atoms: C_2  and  N_3
REMARK    3  A    between atoms: N_3  and  C_4
REMARK    4  A    between atoms: C_4  and  C_6
REMARK    5  A    between atoms: C_4  and  C_13
REMARK                            x       y       z     vdW  Elec       q    Type
REMARK                         _______ _______ _______ _____ _____    ______ ____
ROOT
ATOM      1  C   UNL     1      -1.356  -1.981   0.004  0.00  0.00    -0.010 C 
ENDROOT
BRANCH   1   2
ATOM      2  C   UNL     1      -0.737  -2.482   1.284  0.00  0.00    -0.057 A 
ATOM      3  C   UNL     1      -1.030  -1.863   2.485  0.00  0.00    +0.004 A 
ATOM      4  C   UNL     1      -0.466  -2.317   3.659  0.00  0.00    +0.024 A 
ATOM      5  C   UNL     1       0.404  -3.405   3.643  0.00  0.00    +0.037 A 
ATOM      6  C   UNL     1       0.691  -4.019   2.430  0.00  0.00    -0.017 A 
ATOM      7  C   UNL     1       0.123  -3.567   1.260  0.00  0.00    +0.008 A 
ATOM      8  C   UNL     1       1.648  -5.146   2.740  0.00  0.00    +0.133 C 
ATOM      9  C   UNL     1       1.839  -5.066   4.239  0.00  0.00    +0.222 C 
ATOM     10  O   UNL     1       2.535  -5.792   4.917  0.00  0.00    -0.275 OA
ATOM     11  N   UNL     1       1.090  -4.040   4.679  0.00  0.00    -0.285 N 
ATOM     12  H   UNL     1       1.033  -3.772   5.609  0.00  0.00    +0.155 HD
ENDBRANCH   1   2
BRANCH   1  13
ATOM     13  C   UNL     1      -2.766  -2.502  -0.109  0.00  0.00    -0.056 A 
ATOM     14  C   UNL     1      -3.789  -1.882   0.583  0.00  0.00    +0.002 A 
ATOM     15  C   UNL     1      -5.082  -2.359   0.480  0.00  0.00    +0.001 A 
ATOM     16  C   UNL     1      -5.353  -3.457  -0.316  0.00  0.00    +0.015 A 
ATOM     17  C   UNL     1      -4.329  -4.078  -1.008  0.00  0.00    +0.018 A 
ATOM     18  C   UNL     1      -3.036  -3.596  -0.909  0.00  0.00    +0.017 A 
ATOM     19 BR   UNL     1      -4.698  -5.580  -2.096  0.00  0.00    -0.050 Br
ENDBRANCH   1  13
BRANCH   1  20
ATOM     20  N   UNL     1      -1.376  -0.512   0.012  0.00  0.00    +0.386 N 
ATOM     21  H   UNL     1      -1.848  -0.187   0.843  0.00  0.00    -0.085 HD
ATOM     22  H   UNL     1      -1.864  -0.178  -0.805  0.00  0.00    -0.085 HD
BRANCH  20  24
ATOM     23  C   UNL     1      -0.019   1.526   0.010  0.00  0.00    -0.017 C 
ATOM     24  C   UNL     1       0.002  -0.004   0.002  0.00  0.00    -0.085 C 
ENDBRANCH  20  24
ENDBRANCH   1  20
TORSDOF 4
