REMARK  Name = ZINC20765033
REMARK  6 active torsions:
REMARK  status: ('A' for Active; 'I' for Inactive)
REMARK    1  A    between atoms: C_1  and  C_2
REMARK    2  A    between atoms: C_2  and  C_3
REMARK    3  A    between atoms: C_2  and  N_4
REMARK    4  A    between atoms: C_11  and  C_25
REMARK    5  A    between atoms: C_14  and  C_16
REMARK    6  A    between atoms: C_30  and  O_31
REMARK                            x       y       z     vdW  Elec       q    Type
REMARK                         _______ _______ _______ _____ _____    ______ ____
ROOT
ATOM      1  N   UNL     1       0.690  -0.478  -1.207  0.00  0.00    +0.381 N 
ATOM      2  C   UNL     1       2.063   0.039  -1.220  0.00  0.00    -0.075 C 
ATOM      3  C   UNL     1       2.760  -0.386  -2.515  0.00  0.00    +0.027 C 
ATOM      4  C   UNL     1       2.790  -1.916  -2.592  0.00  0.00    +0.109 C 
ATOM      5  C   UNL     1       1.354  -2.445  -2.507  0.00  0.00    +0.027 C 
ATOM      6  C   UNL     1       0.709  -1.945  -1.213  0.00  0.00    -0.075 C 
ATOM      7  N   UNL     1       3.381  -2.324  -3.874  0.00  0.00    -0.286 NA
ATOM      8  C   UNL     1       4.815  -1.992  -3.900  0.00  0.00    +0.095 C 
ATOM      9  C   UNL     1       5.531  -2.884  -2.881  0.00  0.00    +0.079 C 
ATOM     10  C   UNL     1       4.774  -2.870  -1.583  0.00  0.00    +0.047 C 
ATOM     11  N   UNL     1       3.570  -2.445  -1.479  0.00  0.00    -0.266 NA
ATOM     12  H   UNL     1       3.234  -3.308  -4.043  0.00  0.00    +0.125 HD
ATOM     13  H   UNL     1       0.199  -0.145  -2.023  0.00  0.00    -0.081 HD
ENDROOT
BRANCH  10  14
ATOM     14  C   UNL     1       5.449  -3.369  -0.370  0.00  0.00    -0.000 A 
ATOM     15  C   UNL     1       6.764  -3.835  -0.443  0.00  0.00    +0.013 A 
ATOM     16  C   UNL     1       7.393  -4.301   0.692  0.00  0.00    +0.050 A 
ATOM     17  C   UNL     1       6.724  -4.308   1.908  0.00  0.00    +0.166 A 
ATOM     18  C   UNL     1       5.411  -3.844   1.987  0.00  0.00    +0.167 A 
ATOM     19  C   UNL     1       4.777  -3.371   0.855  0.00  0.00    +0.059 A 
ATOM     20  O   UNL     1       4.986  -3.957   3.280  0.00  0.00    -0.453 OA
ATOM     21  C   UNL     1       5.905  -4.871   3.907  0.00  0.00    +0.466 C 
ATOM     22  O   UNL     1       7.119  -4.710   3.151  0.00  0.00    -0.453 OA
ENDBRANCH  10  14
BRANCH   8  23
ATOM     23  C   UNL     1       5.371  -2.244  -5.277  0.00  0.00    +0.013 A 
ATOM     24  C   UNL     1       4.699  -3.077  -6.152  0.00  0.00    +0.028 A 
ATOM     25  C   UNL     1       5.209  -3.309  -7.417  0.00  0.00    +0.042 A 
ATOM     26  C   UNL     1       6.392  -2.708  -7.809  0.00  0.00    +0.023 A 
ATOM     27  C   UNL     1       7.067  -1.875  -6.938  0.00  0.00    +0.047 A 
ATOM     28  C   UNL     1       6.554  -1.637  -5.671  0.00  0.00    +0.122 A 
ATOM     29 CL   UNL     1       4.363  -4.356  -8.513  0.00  0.00    -0.084 Cl
BRANCH  28  30
ATOM     30  O   UNL     1       7.213  -0.813  -4.814  0.00  0.00    -0.506 OA
ATOM     31  H   UNL     1       7.861  -1.263  -4.255  0.00  0.00    +0.292 HD
ENDBRANCH  28  30
ENDBRANCH   8  23
BRANCH   1  33
ATOM     32  C   UNL     1      -0.019   1.526   0.010  0.00  0.00    -0.014 C 
ATOM     33  C   UNL     1       0.002  -0.004   0.002  0.00  0.00    -0.075 C 
ATOM     34  C   UNL     1      -1.433  -0.534   0.013  0.00  0.00    -0.014 C 
ENDBRANCH   1  33
TORSDOF 4
