REMARK  Name = ZINC61320578
REMARK  5 active torsions:
REMARK  status: ('A' for Active; 'I' for Inactive)
REMARK    1  A    between atoms: C_1  and  C_2
REMARK    2  A    between atoms: C_5  and  C_8
REMARK    3  A    between atoms: C_8  and  N_9
REMARK    4  A    between atoms: N_9  and  C_10
REMARK    5  A    between atoms: C_16  and  C_18
REMARK                            x       y       z     vdW  Elec       q    Type
REMARK                         _______ _______ _______ _____ _____    ______ ____
ROOT
ATOM      1  C   UNL     1      -1.294  -6.161  -0.199  0.00  0.00    -0.068 C 
ATOM      2  C   UNL     1      -0.572  -6.654  -1.455  0.00  0.00    -0.015 C 
ATOM      3  C   UNL     1      -1.307  -6.147  -2.698  0.00  0.00    -0.002 C 
ATOM      4  C   UNL     1      -2.742  -6.677  -2.693  0.00  0.00    +0.000 C 
ATOM      5  C   UNL     1      -3.464  -6.184  -1.438  0.00  0.00    +0.002 C 
ATOM      6  C   UNL     1      -2.730  -6.690  -0.195  0.00  0.00    -0.022 C 
ENDROOT
BRANCH   6   7
ATOM      7  C   UNL     1      -3.451  -6.197   1.061  0.00  0.00    -0.009 C 
ATOM      8  C   UNL     1      -4.887  -6.727   1.065  0.00  0.00    +0.004 C 
ATOM      9  C   UNL     1      -5.608  -6.233   2.321  0.00  0.00    +0.000 C 
ATOM     10  C   UNL     1      -4.874  -6.740   3.564  0.00  0.00    +0.000 C 
ATOM     11  C   UNL     1      -3.438  -6.210   3.559  0.00  0.00    +0.000 C 
ATOM     12  C   UNL     1      -2.717  -6.704   2.304  0.00  0.00    +0.004 C 
ENDBRANCH   6   7
BRANCH   1  13
ATOM     13  N   UNL     1      -1.314  -4.692  -0.191  0.00  0.00    +0.385 N 
ATOM     14  H   UNL     1      -1.860  -4.367   0.593  0.00  0.00    -0.085 HD
ATOM     15  H   UNL     1      -1.725  -4.356  -1.050  0.00  0.00    -0.085 HD
BRANCH  13  16
ATOM     16  C   UNL     1       0.059  -4.184  -0.075  0.00  0.00    -0.024 C 
BRANCH  16  21
ATOM     17  C   UNL     1      -0.018   1.503   0.010  0.00  0.00    +0.067 C 
ATOM     18  C   UNL     1       0.002  -0.004   0.002  0.00  0.00    +0.056 A 
ATOM     19  C   UNL     1       0.006  -0.689  -1.200  0.00  0.00    +0.134 A 
ATOM     20  N   UNL     1       0.024  -2.010  -1.207  0.00  0.00    -0.259 NA
ATOM     21  C   UNL     1       0.039  -2.677  -0.067  0.00  0.00    +0.042 A 
ATOM     22  C   UNL     1       0.035  -1.992   1.135  0.00  0.00    +0.132 A 
ATOM     23  N   UNL     1       0.022  -0.671   1.143  0.00  0.00    -0.257 NA
ENDBRANCH  16  21
ENDBRANCH  13  16
ENDBRANCH   1  13
TORSDOF 4
