REMARK  Name = ZINC64114241
REMARK  11 active torsions:
REMARK  status: ('A' for Active; 'I' for Inactive)
REMARK    1  A    between atoms: C_1  and  C_2
REMARK    2  A    between atoms: C_5  and  C_8
REMARK    3  A    between atoms: C_8  and  C_9
REMARK    4  A    between atoms: C_8  and  N_24
REMARK    5  A    between atoms: C_9  and  N_10
REMARK    6  A    between atoms: N_10  and  C_11
REMARK    7  A    between atoms: C_14  and  S_20
REMARK    8  A    between atoms: C_16  and  N_17
REMARK    9  A    between atoms: S_20  and  N_23
REMARK   10  A    between atoms: N_24  and  C_25
REMARK   11  A    between atoms: N_24  and  C_26
REMARK                            x       y       z     vdW  Elec       q    Type
REMARK                         _______ _______ _______ _____ _____    ______ ____
ROOT
ATOM      1  N   UNL     1      -2.166  -4.838  -1.644  0.00  0.00    -0.343 N 
ATOM      2  H   UNL     1      -1.820  -4.383  -2.428  0.00  0.00    +0.146 HD
ENDROOT
BRANCH   1   3
ATOM      3  C   UNL     1      -3.545  -4.937  -1.446  0.00  0.00    +0.058 A 
ATOM      4  C   UNL     1      -4.044  -5.686  -0.388  0.00  0.00    +0.027 A 
ATOM      5  C   UNL     1      -5.408  -5.782  -0.194  0.00  0.00    +0.030 A 
ATOM      6  C   UNL     1      -6.277  -5.132  -1.052  0.00  0.00    +0.107 A 
ATOM      7  C   UNL     1      -5.783  -4.386  -2.106  0.00  0.00    +0.063 A 
ATOM      8  C   UNL     1      -4.420  -4.282  -2.302  0.00  0.00    +0.149 A 
BRANCH   8   9
ATOM      9  N   UNL     1      -3.892  -3.478  -3.427  0.00  0.00    +0.058 N 
ATOM     10  O   UNL     1      -2.897  -2.808  -3.277  0.00  0.00    -0.126 OA
ATOM     11  O   UNL     1      -4.457  -3.491  -4.497  0.00  0.00    -0.126 OA
ENDBRANCH   8   9
BRANCH   6  12
ATOM     12  S   UNL     1      -8.016  -5.256  -0.802  0.00  0.00    +0.056 S 
ATOM     13  O   UNL     1      -8.627  -5.006  -2.060  0.00  0.00    -0.153 OA
ATOM     14  O   UNL     1      -8.237  -6.456  -0.073  0.00  0.00    -0.153 OA
BRANCH  12  15
ATOM     15  N   UNL     1      -8.458  -4.010   0.195  0.00  0.00    -0.204 NA
ATOM     16  H   UNL     1      -7.788  -3.387   0.518  0.00  0.00    +0.144 HD
ATOM     17  H   UNL     1      -9.386  -3.902   0.456  0.00  0.00    +0.144 HD
ENDBRANCH  12  15
ENDBRANCH   6  12
ENDBRANCH   1   3
BRANCH   1  18
ATOM     18  C   UNL     1      -1.242  -5.422  -0.668  0.00  0.00    +0.091 C 
BRANCH  18  19
ATOM     19  C   UNL     1       0.196  -5.063  -1.049  0.00  0.00    -0.021 C 
BRANCH  19  24
ATOM     20  C   UNL     1       0.964   0.638  -0.499  0.00  0.00    +0.044 C 
ATOM     21  C   UNL     1       0.764  -0.849  -0.642  0.00  0.00    -0.050 A 
ATOM     22  C   UNL     1       0.535  -1.398  -1.890  0.00  0.00    +0.003 A 
ATOM     23  C   UNL     1       0.352  -2.762  -2.022  0.00  0.00    +0.002 A 
ATOM     24  C   UNL     1       0.397  -3.576  -0.906  0.00  0.00    -0.059 A 
ATOM     25  C   UNL     1       0.627  -3.027   0.342  0.00  0.00    +0.002 A 
ATOM     26  C   UNL     1       0.815  -1.664   0.473  0.00  0.00    +0.003 A 
ENDBRANCH  19  24
BRANCH  19  27
ATOM     27  N   UNL     1       1.129  -5.771  -0.163  0.00  0.00    +0.382 N 
ATOM     28  C   UNL     1       0.973  -7.220  -0.345  0.00  0.00    -0.096 C 
ATOM     29  C   UNL     1       2.507  -5.382  -0.491  0.00  0.00    -0.096 C 
ATOM     30  H   UNL     1       0.930  -5.529   0.797  0.00  0.00    -0.082 HD
ENDBRANCH  19  27
ENDBRANCH  18  19
ENDBRANCH   1  18
TORSDOF 8
