REMARK  Name = ZINC53864119
REMARK  5 active torsions:
REMARK  status: ('A' for Active; 'I' for Inactive)
REMARK    1  A    between atoms: C_1  and  C_2
REMARK    2  A    between atoms: C_6  and  N_20
REMARK    3  A    between atoms: C_8  and  C_11
REMARK    4  A    between atoms: C_11  and  N_12
REMARK    5  A    between atoms: N_20  and  C_21
REMARK                            x       y       z     vdW  Elec       q    Type
REMARK                         _______ _______ _______ _____ _____    ______ ____
ROOT
ATOM      1  C   UNL     1      -0.260   1.227   0.085  0.00  0.00    +0.007 C 
ATOM      2  C   UNL     1      -0.186  -0.297   0.199  0.00  0.00    -0.014 C 
ATOM      3  C   UNL     1       0.454  -0.872  -1.067  0.00  0.00    +0.002 C 
ATOM      4  C   UNL     1       1.865  -0.303  -1.229  0.00  0.00    -0.015 C 
ATOM      5  C   UNL     1       2.711  -0.683  -0.012  0.00  0.00    -0.071 C 
ATOM      6  C   UNL     1       2.071  -0.108   1.253  0.00  0.00    -0.042 C 
ATOM      7  C   UNL     1       0.660  -0.677   1.415  0.00  0.00    +0.003 C 
ENDROOT
BRANCH   5   8
ATOM      8  N   UNL     1       4.066  -0.138  -0.168  0.00  0.00    +0.379 N 
ATOM      9  C   UNL     1       4.723  -0.779  -1.314  0.00  0.00    -0.100 C 
ATOM     10  H   UNL     1       4.011   0.858  -0.325  0.00  0.00    -0.086 HD
ATOM     11  H   UNL     1       4.599  -0.317   0.670  0.00  0.00    -0.086 HD
ENDBRANCH   5   8
BRANCH   6  12
ATOM     12  C   UNL     1       2.917  -0.488   2.470  0.00  0.00    -0.077 C 
BRANCH  12  13
ATOM     13  N   UNL     1       2.380   0.174   3.666  0.00  0.00    +0.380 N 
ATOM     14  C   UNL     1       2.560   1.626   3.543  0.00  0.00    -0.079 C 
ATOM     15  C   UNL     1       1.652   2.343   4.540  0.00  0.00    -0.019 C 
ATOM     16  C   UNL     1       0.259   1.713   4.520  0.00  0.00    -0.002 C 
ATOM     17  C   UNL     1       0.002   1.003   5.853  0.00  0.00    -0.000 C 
ATOM     18  C   UNL     1       0.809  -0.299   5.881  0.00  0.00    -0.002 C 
ATOM     19  C   UNL     1       2.286   0.024   6.109  0.00  0.00    -0.019 C 
ATOM     20  C   UNL     1       3.091  -0.313   4.856  0.00  0.00    -0.079 C 
ATOM     21  H   UNL     1       1.397  -0.035   3.753  0.00  0.00    -0.082 HD
ENDBRANCH  12  13
ENDBRANCH   6  12
TORSDOF 3
