REMARK  Name = ZINC29669323
REMARK  9 active torsions:
REMARK  status: ('A' for Active; 'I' for Inactive)
REMARK    1  A    between atoms: C_1  and  C_2
REMARK    2  A    between atoms: C_2  and  N_3
REMARK    3  A    between atoms: C_4  and  C_6
REMARK    4  A    between atoms: C_6  and  N_7
REMARK    5  A    between atoms: N_10  and  C_13
REMARK    6  A    between atoms: C_13  and  C_15
REMARK    7  A    between atoms: C_13  and  C_16
REMARK    8  A    between atoms: N_21  and  C_22
REMARK    9  A    between atoms: C_22  and  C_23
REMARK                            x       y       z     vdW  Elec       q    Type
REMARK                         _______ _______ _______ _____ _____    ______ ____
ROOT
ATOM      1  N   UNL     1       2.040   0.672   0.602  0.00  0.00    +0.387 N 
ATOM      2  C   UNL     1       2.707   1.007  -0.664  0.00  0.00    -0.063 C 
ATOM      3  C   UNL     1       1.651   1.329  -1.724  0.00  0.00    +0.066 C 
ATOM      4  N   UNL     1       0.818   2.447  -1.260  0.00  0.00    -0.295 NA
ATOM      5  C   UNL     1       0.151   2.111   0.006  0.00  0.00    +0.066 C 
ATOM      6  C   UNL     1       1.206   1.790   1.067  0.00  0.00    -0.063 C 
ATOM      7  H   UNL     1       1.381  -0.190   0.422  0.00  0.00    -0.081 HD
ENDROOT
BRANCH   4   8
ATOM      8  C   UNL     1      -0.160   2.836  -2.284  0.00  0.00    +0.140 C 
ATOM      9  C   UNL     1      -1.125   3.869  -1.700  0.00  0.00    +0.034 C 
BRANCH   8  10
ATOM     10  C   UNL     1      -0.933   1.620  -2.727  0.00  0.00    +0.237 C 
ATOM     11  O   UNL     1      -1.065   0.678  -1.975  0.00  0.00    -0.274 OA
ATOM     12  N   UNL     1      -1.478   1.580  -3.959  0.00  0.00    -0.239 N 
ATOM     13  C   UNL     1      -2.169   0.494  -4.356  0.00  0.00    +0.306 C 
ATOM     14  O   UNL     1      -2.301  -0.451  -3.602  0.00  0.00    -0.252 OA
ATOM     15  N   UNL     1      -2.713   0.454  -5.588  0.00  0.00    -0.299 N 
ATOM     16  H   UNL     1      -1.358   2.435  -4.642  0.00  0.00    +0.159 HD
ATOM     17  H   UNL     1      -2.594   1.308  -6.270  0.00  0.00    +0.150 HD
BRANCH  15  18
ATOM     18  C   UNL     1      -3.465  -0.728  -6.019  0.00  0.00    +0.102 C 
ATOM     19  C   UNL     1      -3.972  -0.516  -7.447  0.00  0.00    +0.024 C 
ENDBRANCH  15  18
ENDBRANCH   8  10
ENDBRANCH   4   8
BRANCH   1  20
ATOM     20  C   UNL     1       3.019   0.283   1.626  0.00  0.00    +0.019 C 
BRANCH  20  22
ATOM     21  N   UNL     1       4.705  -1.497   1.952  0.00  0.00    -0.317 N 
ATOM     22  C   UNL     1       3.685  -1.006   1.221  0.00  0.00    +0.196 C 
ATOM     23  O   UNL     1       3.303  -1.602   0.236  0.00  0.00    -0.278 OA
ATOM     24  H   UNL     1       5.051  -0.956   2.845  0.00  0.00    +0.149 HD
BRANCH  21  26
ATOM     25  C   UNL     1       6.471  -3.080   2.549  0.00  0.00    +0.024 C 
ATOM     26  C   UNL     1       5.353  -2.750   1.558  0.00  0.00    +0.101 C 
ENDBRANCH  21  26
ENDBRANCH  20  22
ENDBRANCH   1  20
TORSDOF 6
