REMARK  Name = ZINC39856002
REMARK  5 active torsions:
REMARK  status: ('A' for Active; 'I' for Inactive)
REMARK    1  A    between atoms: C_1  and  C_2
REMARK    2  A    between atoms: C_6  and  C_7
REMARK    3  A    between atoms: C_20  and  C_28
REMARK    4  A    between atoms: C_20  and  C_29
REMARK    5  A    between atoms: N_23  and  N_24
REMARK                            x       y       z     vdW  Elec       q    Type
REMARK                         _______ _______ _______ _____ _____    ______ ____
ROOT
ATOM      1  C   UNL     1      -0.111   1.491   0.005  0.00  0.00    +0.048 C 
ATOM      2  C   UNL     1       0.005  -0.012   0.001  0.00  0.00    +0.009 A 
ATOM      3  C   UNL     1       0.077  -0.846  -1.121  0.00  0.00    +0.043 A 
ATOM      4  C   UNL     1       0.173  -2.140  -0.668  0.00  0.00    +0.116 A 
ATOM      5  O   UNL     1       0.165  -2.112   0.663  0.00  0.00    -0.454 OA
ATOM      6  C   UNL     1       0.067  -0.833   1.092  0.00  0.00    +0.193 A 
ATOM      7  C   UNL     1       0.266  -3.328  -1.591  0.00  0.00    +0.081 C 
ATOM      8  C   UNL     1      -0.270  -2.942  -2.973  0.00  0.00    -0.023 C 
ATOM      9  C   UNL     1       0.427  -1.679  -3.488  0.00  0.00    +0.064 C 
ATOM     10  C   UNL     1       0.065  -0.524  -2.566  0.00  0.00    +0.073 C 
ATOM     11  N   UNL     1      -0.234   0.656  -3.013  0.00  0.00    -0.175 NA
ATOM     12  C   UNL     1      -1.775  -2.683  -2.876  0.00  0.00    +0.011 C 
ATOM     13  C   UNL     1      -0.019  -4.091  -3.951  0.00  0.00    +0.011 C 
ENDROOT
BRANCH   6  14
ATOM     14  C   UNL     1       0.032  -0.400   2.494  0.00  0.00    +0.282 C 
ATOM     15  O   UNL     1       0.074   0.786   2.765  0.00  0.00    -0.267 OA
ATOM     16  N   UNL     1      -0.048  -1.315   3.480  0.00  0.00    -0.290 N 
ATOM     17  C   UNL     1      -0.158  -0.911   4.891  0.00  0.00    +0.113 C 
ATOM     18  C   UNL     1      -1.514  -1.388   5.412  0.00  0.00    +0.054 C 
ATOM     19  C   UNL     1      -1.758  -2.824   5.031  0.00  0.00    -0.041 A 
ATOM     20  C   UNL     1      -2.706  -3.531   5.761  0.00  0.00    +0.004 A 
ATOM     21  C   UNL     1      -2.986  -4.848   5.459  0.00  0.00    +0.000 A 
ATOM     22  C   UNL     1      -2.320  -5.471   4.420  0.00  0.00    +0.000 A 
ATOM     23  C   UNL     1      -1.375  -4.773   3.696  0.00  0.00    +0.005 A 
ATOM     24  C   UNL     1      -1.089  -3.449   4.003  0.00  0.00    -0.027 A 
ATOM     25  C   UNL     1      -0.034  -2.752   3.190  0.00  0.00    +0.143 C 
ENDBRANCH   6  14
BRANCH  11  26
ATOM     26  N   UNL     1      -0.230   0.905  -4.392  0.00  0.00    -0.248 N 
ATOM     27  C   UNL     1      -0.545   2.151  -4.864  0.00  0.00    +0.187 C 
ATOM     28  N   UNL     1      -0.542   2.387  -6.175  0.00  0.00    -0.370 N 
ATOM     29  N   UNL     1      -0.857   3.127  -4.012  0.00  0.00    -0.370 N 
ATOM     30  H   UNL     1      -0.004   0.194  -5.012  0.00  0.00    +0.192 HD
ATOM     31  H   UNL     1      -0.315   1.677  -6.796  0.00  0.00    +0.159 HD
ATOM     32  H   UNL     1      -0.859   2.955  -3.057  0.00  0.00    +0.159 HD
ATOM     33  H   UNL     1      -1.080   4.010  -4.346  0.00  0.00    +0.159 HD
ATOM     34  H   UNL     1      -0.765   3.270  -6.510  0.00  0.00    +0.159 HD
ENDBRANCH  11  26
TORSDOF 2
