REMARK  Name = ZINC09059325
REMARK  6 active torsions:
REMARK  status: ('A' for Active; 'I' for Inactive)
REMARK    1  A    between atoms: C_4  and  C_7
REMARK    2  A    between atoms: C_7  and  N_8
REMARK    3  A    between atoms: N_16  and  N_17
REMARK    4  A    between atoms: C_18  and  S_20
REMARK    5  A    between atoms: S_20  and  C_21
REMARK    6  A    between atoms: C_21  and  C_22
REMARK                            x       y       z     vdW  Elec       q    Type
REMARK                         _______ _______ _______ _____ _____    ______ ____
ROOT
ATOM      1  N   UNL     1       4.152  -0.952   1.338  0.00  0.00    -0.261 N 
ATOM      2  C   UNL     1       4.943  -0.080   2.074  0.00  0.00    +0.046 A 
ATOM      3  C   UNL     1       5.497   1.157   1.762  0.00  0.00    +0.024 A 
ATOM      4  C   UNL     1       6.260   1.830   2.695  0.00  0.00    +0.002 A 
ATOM      5  C   UNL     1       6.484   1.285   3.949  0.00  0.00    +0.001 A 
ATOM      6  C   UNL     1       5.943   0.059   4.277  0.00  0.00    +0.012 A 
ATOM      7  C   UNL     1       5.172  -0.628   3.344  0.00  0.00    +0.029 A 
ATOM      8  C   UNL     1       4.465  -1.926   3.371  0.00  0.00    +0.155 C 
ATOM      9  N   UNL     1       4.407  -2.790   4.372  0.00  0.00    -0.167 NA
ATOM     10  C   UNL     1       3.837  -2.048   2.050  0.00  0.00    +0.272 C 
ATOM     11  O   UNL     1       3.153  -2.979   1.666  0.00  0.00    -0.268 OA
ENDROOT
BRANCH   9  12
ATOM     12  N   UNL     1       3.744  -3.889   4.239  0.00  0.00    -0.258 N 
ATOM     13  C   UNL     1       3.685  -4.758   5.246  0.00  0.00    +0.146 C 
ATOM     14  N   UNL     1       2.983  -5.919   5.105  0.00  0.00    -0.338 N 
ATOM     15  H   UNL     1       2.527  -6.112   4.271  0.00  0.00    +0.144 HD
ATOM     16  H   UNL     1       2.941  -6.552   5.839  0.00  0.00    +0.144 HD
ATOM     17  H   UNL     1       3.287  -4.081   3.405  0.00  0.00    +0.191 HD
BRANCH  13  18
ATOM     18  S   UNL     1       4.465  -4.428   6.674  0.00  0.00    -0.086 S 
BRANCH  18  19
ATOM     19  C   UNL     1       4.104  -5.869   7.714  0.00  0.00    +0.116 C 
BRANCH  19  20
ATOM     20  C   UNL     1       4.763  -5.696   9.059  0.00  0.00    +0.016 A 
ATOM     21  C   UNL     1       6.053  -6.156   9.262  0.00  0.00    +0.129 A 
ATOM     22  C   UNL     1       6.658  -5.996  10.497  0.00  0.00    +0.039 A 
ATOM     23  C   UNL     1       5.973  -5.378  11.527  0.00  0.00    +0.004 A 
ATOM     24  C   UNL     1       4.686  -4.918  11.324  0.00  0.00    +0.020 A 
ATOM     25  C   UNL     1       4.082  -5.072  10.088  0.00  0.00    +0.048 A 
ATOM     26 CL   UNL     1       2.467  -4.489   9.832  0.00  0.00    -0.083 Cl
ATOM     27  F   UNL     1       6.722  -6.761   8.256  0.00  0.00    -0.205 F 
ENDBRANCH  19  20
ENDBRANCH  18  19
ENDBRANCH  13  18
ENDBRANCH   9  12
BRANCH   1  28
ATOM     28  C   UNL     1       3.711  -0.707  -0.038  0.00  0.00    +0.149 C 
BRANCH  28  32
ATOM     29  C   UNL     1      -0.017   1.378   0.010  0.00  0.00    +0.000 A 
ATOM     30  C   UNL     1       1.171   2.086   0.002  0.00  0.00    +0.000 A 
ATOM     31  C   UNL     1       2.377   1.411  -0.013  0.00  0.00    +0.005 A 
ATOM     32  C   UNL     1       2.396   0.029  -0.020  0.00  0.00    -0.030 A 
ATOM     33  C   UNL     1       1.208  -0.679  -0.012  0.00  0.00    +0.005 A 
ATOM     34  C   UNL     1       0.002  -0.004   0.002  0.00  0.00    +0.000 A 
ENDBRANCH  28  32
ENDBRANCH   1  28
TORSDOF 6
