REMARK  Name = ZINC21055994
REMARK  14 active torsions:
REMARK  status: ('A' for Active; 'I' for Inactive)
REMARK    1  A    between atoms: C_1  and  C_2
REMARK    2  A    between atoms: C_4  and  C_21
REMARK    3  A    between atoms: C_5  and  C_9
REMARK    4  A    between atoms: C_6  and  C_8
REMARK    5  A    between atoms: C_9  and  C_11
REMARK    6  A    between atoms: C_9  and  N_12
REMARK    7  A    between atoms: N_12  and  C_13
REMARK    8  A    between atoms: C_13  and  C_14
REMARK    9  A    between atoms: C_14  and  C_15
REMARK   10  A    between atoms: C_14  and  C_16
REMARK   11  A    between atoms: C_14  and  C_17
REMARK   12  A    between atoms: C_17  and  N_18
REMARK   13  A    between atoms: N_18  and  C_19
REMARK   14  A    between atoms: N_18  and  C_20
REMARK                            x       y       z     vdW  Elec       q    Type
REMARK                         _______ _______ _______ _____ _____    ______ ____
ROOT
ATOM      1  N   UNL     1      -1.062   1.243  -0.820  0.00  0.00    +0.384 N 
ATOM      2  H   UNL     1      -1.048   1.124   0.273  0.00  0.00    -0.085 HD
ATOM      3  H   UNL     1      -0.071   1.570  -1.166  0.00  0.00    -0.085 HD
ENDROOT
BRANCH   1   4
ATOM      4  C   UNL     1      -1.401  -0.041  -1.448  0.00  0.00    -0.044 C 
ATOM      5  C   UNL     1      -0.590  -0.210  -2.734  0.00  0.00    -0.009 C 
BRANCH   4  10
ATOM      6  C   UNL     1      -0.161  -4.354   2.193  0.00  0.00    +0.044 C 
ATOM      7  C   UNL     1      -0.485  -3.229   1.244  0.00  0.00    -0.050 A 
ATOM      8  C   UNL     1      -1.655  -3.260   0.508  0.00  0.00    +0.007 A 
ATOM      9  C   UNL     1      -1.952  -2.229  -0.363  0.00  0.00    -0.048 A 
ATOM     10  C   UNL     1      -1.078  -1.166  -0.498  0.00  0.00    -0.056 A 
ATOM     11  C   UNL     1       0.094  -1.137   0.233  0.00  0.00    -0.048 A 
ATOM     12  C   UNL     1       0.389  -2.167   1.108  0.00  0.00    +0.007 A 
ATOM     13  C   UNL     1       1.050   0.019   0.081  0.00  0.00    +0.044 C 
ATOM     14  C   UNL     1      -3.227  -2.263  -1.164  0.00  0.00    +0.044 C 
ENDBRANCH   4  10
ENDBRANCH   1   4
BRANCH   1  15
ATOM     15  C   UNL     1      -2.047   2.276  -1.169  0.00  0.00    -0.077 C 
BRANCH  15  16
ATOM     16  C   UNL     1      -1.661   3.595  -0.498  0.00  0.00    -0.065 C 
ATOM     17  C   UNL     1      -1.635   3.407   1.020  0.00  0.00    +0.007 C 
ATOM     18  C   UNL     1      -0.276   4.028  -0.982  0.00  0.00    +0.007 C 
BRANCH  16  19
ATOM     19  C   UNL     1      -2.687   4.671  -0.861  0.00  0.00    -0.075 C 
BRANCH  19  20
ATOM     20  N   UNL     1      -3.989   4.324  -0.275  0.00  0.00    +0.376 N 
ATOM     21  C   UNL     1      -4.100   4.832   1.099  0.00  0.00    -0.097 C 
ATOM     22  C   UNL     1      -5.091   4.819  -1.110  0.00  0.00    -0.097 C 
ATOM     23  H   UNL     1      -4.060   3.227  -0.236  0.00  0.00    -0.083 HD
ENDBRANCH  19  20
ENDBRANCH  16  19
ENDBRANCH  15  16
ENDBRANCH   1  15
TORSDOF 6
