REMARK  Name = ZINC06136255
REMARK  8 active torsions:
REMARK  status: ('A' for Active; 'I' for Inactive)
REMARK    1  A    between atoms: C_1  and  O_2
REMARK    2  A    between atoms: O_2  and  C_3
REMARK    3  A    between atoms: C_3  and  C_4
REMARK    4  A    between atoms: C_4  and  N_5
REMARK    5  A    between atoms: C_6  and  C_10
REMARK    6  A    between atoms: C_10  and  C_12
REMARK    7  A    between atoms: C_10  and  N_63
REMARK    8  A    between atoms: N_29  and  C_32
REMARK                            x       y       z     vdW  Elec       q    Type
REMARK                         _______ _______ _______ _____ _____    ______ ____
ROOT
ATOM      1  C   UNL     1      -0.013   1.086   0.008  0.00  0.00    +0.039 C 
ENDROOT
BRANCH   1   2
ATOM      2  C   UNL     1       1.401   1.607  -0.003  0.00  0.00    +0.011 A 
ATOM      3  C   UNL     1       2.440   0.742  -0.120  0.00  0.00    +0.017 A 
ATOM      4  C   UNL     1       3.800   1.279  -0.128  0.00  0.00    +0.002 A 
ATOM      5  C   UNL     1       4.910   0.433  -0.247  0.00  0.00    +0.059 A 
ATOM      6  C   UNL     1       6.179   0.969  -0.252  0.00  0.00    +0.167 A 
ATOM      7  C   UNL     1       6.362   2.353  -0.138  0.00  0.00    +0.168 A 
ATOM      8  C   UNL     1       5.272   3.195  -0.018  0.00  0.00    +0.075 A 
ATOM      9  C   UNL     1       3.985   2.671  -0.013  0.00  0.00    +0.053 A 
ATOM     10  N   UNL     1       2.885   3.496   0.104  0.00  0.00    -0.322 N 
ATOM     11  H   UNL     1       3.018   4.484   0.190  0.00  0.00    +0.169 HD
ATOM     12  C   UNL     1       1.639   2.993   0.103  0.00  0.00    +0.251 A 
ATOM     13  O   UNL     1       0.691   3.753   0.202  0.00  0.00    -0.268 OA
ATOM     14  O   UNL     1       7.700   2.616  -0.170  0.00  0.00    -0.453 OA
ATOM     15  C   UNL     1       8.314   1.434  -0.716  0.00  0.00    +0.466 C 
ATOM     16  O   UNL     1       7.406   0.377  -0.356  0.00  0.00    -0.453 OA
ENDBRANCH   1   2
BRANCH   1  22
ATOM     17  C   UNL     1       0.034   1.167   2.428  0.00  0.00    -0.058 C 
ATOM     18  C   UNL     1      -0.670   1.746   3.658  0.00  0.00    +0.086 C 
ATOM     19  N   UNL     1      -2.055   1.256   3.702  0.00  0.00    -0.333 N 
ATOM     20  C   UNL     1      -2.789   1.648   2.491  0.00  0.00    +0.086 C 
ATOM     21  C   UNL     1      -2.085   1.069   1.261  0.00  0.00    -0.058 C 
ATOM     22  N   UNL     1      -0.701   1.587   1.216  0.00  0.00    +0.391 N 
ATOM     23  H   UNL     1      -0.730   2.613   1.182  0.00  0.00    -0.080 HD
BRANCH  19  24
ATOM     24  C   UNL     1      -2.710   1.707   4.852  0.00  0.00    +0.030 A 
ATOM     25  C   UNL     1      -3.891   2.429   4.743  0.00  0.00    +0.026 A 
ATOM     26  C   UNL     1      -4.538   2.869   5.881  0.00  0.00    +0.040 A 
ATOM     27  C   UNL     1      -4.005   2.600   7.130  0.00  0.00    +0.124 A 
ATOM     28  C   UNL     1      -2.824   1.885   7.241  0.00  0.00    +0.040 A 
ATOM     29  C   UNL     1      -2.176   1.438   6.106  0.00  0.00    +0.026 A 
ATOM     30  F   UNL     1      -4.637   3.036   8.241  0.00  0.00    -0.205 F 
ENDBRANCH  19  24
ENDBRANCH   1  22
BRANCH   1  32
ATOM     31  N   UNL     1      -1.053   0.871  -2.311  0.00  0.00    -0.228 N 
ATOM     32  C   UNL     1      -0.742   1.585  -1.213  0.00  0.00    +0.143 A 
ATOM     33  N   UNL     1      -1.200   2.797  -1.409  0.00  0.00    -0.115 NA
ATOM     34  N   UNL     1      -1.757   2.828  -2.571  0.00  0.00    -0.023 NA
ATOM     35  N   UNL     1      -1.673   1.665  -3.117  0.00  0.00    -0.044 NA
BRANCH  31  36
ATOM     36  C   UNL     1      -0.746  -0.541  -2.546  0.00  0.00    +0.175 C 
BRANCH  36  37
ATOM     37  C   UNL     1      -1.896  -1.407  -2.029  0.00  0.00    +0.183 C 
BRANCH  37  39
ATOM     38  C   UNL     1      -2.613  -3.684  -1.809  0.00  0.00    +0.194 C 
ATOM     39  O   UNL     1      -1.596  -2.785  -2.259  0.00  0.00    -0.381 OA
ENDBRANCH  37  39
ENDBRANCH  36  37
ENDBRANCH  31  36
ENDBRANCH   1  32
TORSDOF 7
