REMARK  Name = ZINC35514511
REMARK  6 active torsions:
REMARK  status: ('A' for Active; 'I' for Inactive)
REMARK    1  A    between atoms: C_1  and  C_2
REMARK    2  A    between atoms: C_2  and  C_3
REMARK    3  A    between atoms: C_2  and  C_4
REMARK    4  A    between atoms: C_4  and  N_5
REMARK    5  A    between atoms: N_16  and  C_19
REMARK    6  A    between atoms: C_19  and  C_20
REMARK                            x       y       z     vdW  Elec       q    Type
REMARK                         _______ _______ _______ _____ _____    ______ ____
ROOT
ATOM      1  N   UNL     1      -1.416  -1.993  -0.116  0.00  0.00    -0.276 N 
ATOM      2  C   UNL     1      -1.449  -2.564  -1.338  0.00  0.00    +0.270 A 
ATOM      3  O   UNL     1      -1.493  -1.869  -2.338  0.00  0.00    -0.266 OA
ATOM      4  C   UNL     1      -1.432  -3.961  -1.452  0.00  0.00    +0.101 A 
ATOM      5  C   UNL     1      -1.382  -4.792  -0.334  0.00  0.00    +0.074 A 
ATOM      6  C   UNL     1      -1.372  -6.149  -0.644  0.00  0.00    +0.035 A 
ATOM      7  C   UNL     1      -1.410  -6.541  -1.937  0.00  0.00    +0.048 A 
ATOM      8  S   UNL     1      -1.461  -5.104  -2.807  0.00  0.00    -0.090 S 
ATOM      9  N   UNL     1      -1.350  -4.161   0.924  0.00  0.00    -0.228 N 
ATOM     10  C   UNL     1      -1.361  -2.790   1.020  0.00  0.00    +0.240 A 
ATOM     11  N   UNL     1      -1.317  -2.465   2.284  0.00  0.00    -0.129 NA
ATOM     12  N   UNL     1      -1.270  -3.646   3.036  0.00  0.00    -0.202 N 
ATOM     13  C   UNL     1      -1.300  -4.679   2.167  0.00  0.00    +0.353 A 
ATOM     14  O   UNL     1      -1.273  -5.863   2.454  0.00  0.00    -0.244 OA
ENDROOT
BRANCH   1  15
ATOM     15  C   UNL     1      -1.433  -0.534   0.013  0.00  0.00    +0.131 C 
BRANCH  15  17
ATOM     16  C   UNL     1      -0.019   1.526   0.010  0.00  0.00    +0.009 C 
ATOM     17  C   UNL     1       0.002  -0.004   0.002  0.00  0.00    +0.003 C 
ATOM     18  C   UNL     1       0.742  -0.511   1.242  0.00  0.00    +0.009 C 
ENDBRANCH  15  17
ENDBRANCH   1  15
BRANCH  12  19
ATOM     19  C   UNL     1      -1.211  -3.742   4.497  0.00  0.00    +0.244 C 
BRANCH  19  20
ATOM     20  C   UNL     1       0.229  -3.753   4.942  0.00  0.00    +0.232 C 
ATOM     21  O   UNL     1       1.118  -3.687   4.120  0.00  0.00    -0.274 OA
ATOM     22  N   UNL     1       0.528  -3.837   6.254  0.00  0.00    -0.328 N 
ATOM     23  H   UNL     1      -0.184  -3.890   6.911  0.00  0.00    +0.145 HD
ATOM     24  H   UNL     1       1.454  -3.844   6.540  0.00  0.00    +0.145 HD
ENDBRANCH  19  20
ENDBRANCH  12  19
TORSDOF 4
