REMARK  Name = ZINC52305706
REMARK  10 active torsions:
REMARK  status: ('A' for Active; 'I' for Inactive)
REMARK    1  A    between atoms: C_1  and  C_2
REMARK    2  A    between atoms: C_5  and  C_27
REMARK    3  A    between atoms: N_8  and  C_10
REMARK    4  A    between atoms: C_10  and  C_11
REMARK    5  A    between atoms: C_11  and  C_12
REMARK    6  A    between atoms: C_12  and  N_13
REMARK    7  A    between atoms: N_13  and  C_14
REMARK    8  A    between atoms: C_17  and  N_24
REMARK    9  A    between atoms: C_19  and  S_20
REMARK   10  A    between atoms: S_20  and  N_23
REMARK                            x       y       z     vdW  Elec       q    Type
REMARK                         _______ _______ _______ _____ _____    ______ ____
ROOT
ATOM      1  C   UNL     1       0.839  -2.547   7.397  0.00  0.00    +0.054 A 
ATOM      2  C   UNL     1       2.023  -3.251   7.579  0.00  0.00    +0.027 A 
ATOM      3  C   UNL     1       2.429  -3.598   8.853  0.00  0.00    +0.034 A 
ATOM      4  C   UNL     1       1.659  -3.245   9.946  0.00  0.00    +0.128 A 
ATOM      5  C   UNL     1       0.480  -2.545   9.768  0.00  0.00    +0.063 A 
ATOM      6  C   UNL     1       0.071  -2.190   8.497  0.00  0.00    +0.128 A 
ENDROOT
BRANCH   6   7
ATOM      7  S   UNL     1      -1.428  -1.292   8.272  0.00  0.00    +0.058 S 
ATOM      8  O   UNL     1      -2.159  -1.969   7.259  0.00  0.00    -0.153 OA
ATOM      9  O   UNL     1      -1.961  -1.058   9.569  0.00  0.00    -0.153 OA
BRANCH   7  10
ATOM     10  N   UNL     1      -1.023   0.190   7.653  0.00  0.00    -0.203 NA
ATOM     11  H   UNL     1      -1.641   0.657   7.069  0.00  0.00    +0.144 HD
ATOM     12  H   UNL     1      -0.168   0.590   7.875  0.00  0.00    +0.144 HD
ENDBRANCH   7  10
ENDBRANCH   6   7
BRANCH   4  13
ATOM     13  N   UNL     1       2.097  -3.618  11.309  0.00  0.00    +0.056 N 
ATOM     14  O   UNL     1       3.127  -4.231  11.467  0.00  0.00    -0.126 OA
ATOM     15  O   UNL     1       1.425  -3.311  12.266  0.00  0.00    -0.126 OA
ENDBRANCH   4  13
BRANCH   1  16
ATOM     16  N   UNL     1       0.426  -2.195   6.110  0.00  0.00    -0.342 N 
ATOM     17  H   UNL     1      -0.399  -1.700   5.984  0.00  0.00    +0.146 HD
BRANCH  16  18
ATOM     18  C   UNL     1       1.238  -2.572   4.951  0.00  0.00    +0.100 C 
BRANCH  18  19
ATOM     19  C   UNL     1       0.566  -2.069   3.672  0.00  0.00    +0.000 C 
BRANCH  19  20
ATOM     20  C   UNL     1       1.413  -2.463   2.461  0.00  0.00    -0.077 C 
BRANCH  20  26
ATOM     21  C   UNL     1      -0.019   1.526   0.010  0.00  0.00    +0.005 C 
ATOM     22  C   UNL     1       0.002  -0.004   0.002  0.00  0.00    -0.031 C 
ATOM     23  C   UNL     1       0.721  -0.499  -1.257  0.00  0.00    +0.003 C 
ATOM     24  C   UNL     1       0.805  -2.027  -1.217  0.00  0.00    -0.031 C 
ATOM     25  C   UNL     1       1.518  -2.460   0.066  0.00  0.00    -0.076 C 
ATOM     26  N   UNL     1       0.768  -1.979   1.233  0.00  0.00    +0.380 N 
ATOM     27  C   UNL     1       0.744  -0.512   1.240  0.00  0.00    -0.076 C 
ATOM     28  C   UNL     1      -0.606  -2.618  -1.242  0.00  0.00    +0.005 C 
ATOM     29  H   UNL     1      -0.177  -2.330   1.192  0.00  0.00    -0.082 HD
ENDBRANCH  20  26
ENDBRANCH  19  20
ENDBRANCH  18  19
ENDBRANCH  16  18
ENDBRANCH   1  16
TORSDOF 8
