REMARK  Name = ZINC07913894
REMARK  11 active torsions:
REMARK  status: ('A' for Active; 'I' for Inactive)
REMARK    1  A    between atoms: C_1  and  C_2
REMARK    2  A    between atoms: C_2  and  C_3
REMARK    3  A    between atoms: C_3  and  N_54
REMARK    4  A    between atoms: C_4  and  C_5
REMARK    5  A    between atoms: C_4  and  N_54
REMARK    6  A    between atoms: N_7  and  C_8
REMARK    7  A    between atoms: C_13  and  C_14
REMARK    8  A    between atoms: C_15  and  C_16
REMARK    9  A    between atoms: C_15  and  N_54
REMARK   10  A    between atoms: N_21  and  C_22
REMARK   11  A    between atoms: C_22  and  C_23
REMARK                            x       y       z     vdW  Elec       q    Type
REMARK                         _______ _______ _______ _____ _____    ______ ____
ROOT
ATOM      1  N   UNL     1       2.623   1.135  -0.353  0.00  0.00    +0.391 N 
ATOM      2  H   UNL     1       2.282   0.287   0.115  0.00  0.00    -0.080 HD
ENDROOT
BRANCH   1   3
ATOM      3  C   UNL     1       3.012   0.794  -1.738  0.00  0.00    -0.078 C 
BRANCH   3   5
ATOM      4  C   UNL     1       3.843   1.673  -3.925  0.00  0.00    +0.002 C 
ATOM      5  C   UNL     1       3.383   2.058  -2.517  0.00  0.00    -0.022 C 
ENDBRANCH   3   5
ENDBRANCH   1   3
BRANCH   1   6
ATOM      6  C   UNL     1       1.543   2.144  -0.365  0.00  0.00    +0.020 C 
BRANCH   6   7
ATOM      7  C   UNL     1       0.295   1.513  -0.927  0.00  0.00    +0.201 C 
ATOM      8  O   UNL     1       0.312   0.357  -1.292  0.00  0.00    -0.278 OA
ATOM      9  N   UNL     1      -0.838   2.236  -1.029  0.00  0.00    -0.287 N 
ATOM     10  H   UNL     1      -0.871   3.138  -0.674  0.00  0.00    +0.155 HD
BRANCH   9  11
ATOM     11  C   UNL     1      -1.966   1.685  -1.646  0.00  0.00    +0.036 A 
ATOM     12  C   UNL     1      -1.832   0.595  -2.497  0.00  0.00    +0.023 A 
ATOM     13  C   UNL     1      -2.948   0.051  -3.101  0.00  0.00    +0.002 A 
ATOM     14  C   UNL     1      -4.197   0.596  -2.868  0.00  0.00    +0.000 A 
ATOM     15  C   UNL     1      -4.334   1.684  -2.026  0.00  0.00    +0.005 A 
ATOM     16  C   UNL     1      -3.222   2.230  -1.414  0.00  0.00    -0.029 A 
ATOM     17  C   UNL     1      -3.372   3.416  -0.497  0.00  0.00    +0.045 C 
ENDBRANCH   9  11
ENDBRANCH   6   7
ENDBRANCH   1   6
BRANCH   1  18
ATOM     18  C   UNL     1       3.792   1.655   0.386  0.00  0.00    +0.020 C 
BRANCH  18  19
ATOM     19  C   UNL     1       4.729   0.511   0.679  0.00  0.00    +0.204 C 
ATOM     20  O   UNL     1       4.410  -0.623   0.389  0.00  0.00    -0.277 OA
ATOM     21  N   UNL     1       5.920   0.747   1.264  0.00  0.00    -0.242 N 
ATOM     22  C   UNL     1       6.757  -0.276   1.526  0.00  0.00    +0.306 C 
ATOM     23  O   UNL     1       6.438  -1.412   1.235  0.00  0.00    -0.252 OA
ATOM     24  N   UNL     1       7.948  -0.039   2.110  0.00  0.00    -0.292 N 
ATOM     25  H   UNL     1       6.175   1.654   1.496  0.00  0.00    +0.159 HD
ATOM     26  H   UNL     1       8.203   0.868   2.342  0.00  0.00    +0.151 HD
BRANCH  24  27
ATOM     27  C   UNL     1       8.858  -1.151   2.395  0.00  0.00    +0.180 C 
BRANCH  27  28
ATOM     28  C   UNL     1      10.111  -0.622   3.044  0.00  0.00    +0.122 A 
ATOM     29  C   UNL     1      10.307  -0.469   4.366  0.00  0.00    +0.046 A 
ATOM     30  C   UNL     1      11.611   0.053   4.529  0.00  0.00    +0.041 A 
ATOM     31  C   UNL     1      12.133   0.187   3.297  0.00  0.00    +0.195 A 
ATOM     32  O   UNL     1      11.223  -0.229   2.402  0.00  0.00    -0.466 OA
ENDBRANCH  27  28
ENDBRANCH  24  27
ENDBRANCH  18  19
ENDBRANCH   1  18
TORSDOF 9
