REMARK  Name = ZINC54380973
REMARK  4 active torsions:
REMARK  status: ('A' for Active; 'I' for Inactive)
REMARK    1  A    between atoms: C_4  and  O_10
REMARK    2  A    between atoms: C_5  and  C_7
REMARK    3  A    between atoms: O_10  and  C_11
REMARK    4  A    between atoms: C_14  and  N_18
REMARK                            x       y       z     vdW  Elec       q    Type
REMARK                         _______ _______ _______ _____ _____    ______ ____
ROOT
ATOM      1  C   UNL     1      -0.003   1.313   0.160  0.00  0.00    +0.131 A 
ATOM      2  C   UNL     1       1.174   2.030  -0.003  0.00  0.00    +0.134 A 
ATOM      3  N   UNL     1       2.321   1.397  -0.167  0.00  0.00    -0.218 NA
ATOM      4  C   UNL     1       2.352   0.071  -0.176  0.00  0.00    +0.250 A 
ATOM      5  C   UNL     1       1.163  -0.653  -0.012  0.00  0.00    +0.163 A 
ATOM      6  N   UNL     1       0.014  -0.004   0.153  0.00  0.00    -0.245 NA
ENDROOT
BRANCH   5   7
ATOM      7  C   UNL     1       1.187  -2.132  -0.021  0.00  0.00    +0.118 C 
ATOM      8  N   UNL     1       0.259  -2.817   0.646  0.00  0.00    -0.385 N 
ATOM      9  N   UNL     1       2.135  -2.779  -0.696  0.00  0.00    -0.343 N 
ATOM     10  H   UNL     1      -0.473  -2.349   1.076  0.00  0.00    +0.157 HD
ATOM     11  H   UNL     1       2.810  -2.280  -1.182  0.00  0.00    +0.144 HD
ATOM     12  H   UNL     1       2.150  -3.749  -0.702  0.00  0.00    +0.144 HD
ATOM     13  H   UNL     1       0.316  -3.784   0.700  0.00  0.00    +0.157 HD
ENDBRANCH   5   7
BRANCH   4  14
ATOM     14  O   UNL     1       3.527  -0.581  -0.345  0.00  0.00    -0.434 OA
BRANCH  14  15
ATOM     15  C   UNL     1       4.654   0.164  -0.501  0.00  0.00    +0.158 A 
ATOM     16  C   UNL     1       5.058   0.554  -1.770  0.00  0.00    +0.063 A 
ATOM     17  C   UNL     1       6.204   1.312  -1.926  0.00  0.00    +0.051 A 
ATOM     18  C   UNL     1       6.946   1.682  -0.820  0.00  0.00    +0.129 A 
ATOM     19  C   UNL     1       6.545   1.294   0.446  0.00  0.00    +0.051 A 
ATOM     20  C   UNL     1       5.398   0.540   0.608  0.00  0.00    +0.063 A 
ATOM     21 BR   UNL     1       4.846   0.017   2.340  0.00  0.00    -0.046 Br
ATOM     22 BR   UNL     1       4.044   0.050  -3.284  0.00  0.00    -0.046 Br
BRANCH  18  23
ATOM     23  N   UNL     1       8.172   2.493  -0.990  0.00  0.00    +0.056 N 
ATOM     24  O   UNL     1       8.524   2.832  -2.096  0.00  0.00    -0.126 OA
ATOM     25  O   UNL     1       8.822   2.816  -0.023  0.00  0.00    -0.126 OA
ENDBRANCH  18  23
ENDBRANCH  14  15
ENDBRANCH   4  14
TORSDOF 4
