REMARK  Name = ZINC63652566
REMARK  12 active torsions:
REMARK  status: ('A' for Active; 'I' for Inactive)
REMARK    1  A    between atoms: C_1  and  C_2
REMARK    2  A    between atoms: C_2  and  C_3
REMARK    3  A    between atoms: C_3  and  C_4
REMARK    4  A    between atoms: C_4  and  N_5
REMARK    5  A    between atoms: N_8  and  C_9
REMARK    6  A    between atoms: C_9  and  C_15
REMARK    7  A    between atoms: N_17  and  C_18
REMARK    8  A    between atoms: C_18  and  C_19
REMARK    9  A    between atoms: C_19  and  C_20
REMARK   10  A    between atoms: C_19  and  N_25
REMARK   11  A    between atoms: N_25  and  C_26
REMARK   12  A    between atoms: N_25  and  C_27
REMARK                            x       y       z     vdW  Elec       q    Type
REMARK                         _______ _______ _______ _____ _____    ______ ____
ROOT
ATOM      1  C   UNL     1       2.579  -5.903  -4.248  0.00  0.00    +0.112 C 
ATOM      2  C   UNL     1       3.379  -6.445  -3.061  0.00  0.00    +0.035 C 
ATOM      3  C   UNL     1       4.801  -5.880  -3.104  0.00  0.00    +0.003 C 
ATOM      4  C   UNL     1       5.478  -6.300  -4.410  0.00  0.00    +0.000 C 
ATOM      5  C   UNL     1       4.678  -5.758  -5.596  0.00  0.00    +0.003 C 
ATOM      6  C   UNL     1       3.257  -6.323  -5.554  0.00  0.00    +0.035 C 
ENDROOT
BRANCH   1  10
ATOM      7  N   UNL     1       1.740  -2.500  -3.141  0.00  0.00    -0.299 N 
ATOM      8  C   UNL     1       1.877  -3.841  -3.156  0.00  0.00    +0.300 C 
ATOM      9  O   UNL     1       1.416  -4.509  -2.251  0.00  0.00    -0.253 OA
ATOM     10  N   UNL     1       2.526  -4.441  -4.173  0.00  0.00    -0.285 N 
ATOM     11  H   UNL     1       2.045  -1.973  -3.896  0.00  0.00    +0.150 HD
ATOM     12  H   UNL     1       2.957  -3.904  -4.857  0.00  0.00    +0.151 HD
BRANCH   7  13
ATOM     13  C   UNL     1       1.132  -1.839  -1.984  0.00  0.00    +0.106 C 
BRANCH  13  14
ATOM     14  C   UNL     1       1.209  -0.322  -2.165  0.00  0.00    +0.018 C 
BRANCH  14  16
ATOM     15  C   UNL     1       0.650   1.886  -1.137  0.00  0.00    +0.004 C 
ATOM     16  C   UNL     1       0.573   0.369  -0.956  0.00  0.00    -0.002 C 
ENDBRANCH  14  16
ENDBRANCH  13  14
ENDBRANCH   7  13
ENDBRANCH   1  10
BRANCH   1  17
ATOM     17  C   UNL     1       1.180  -6.460  -4.206  0.00  0.00    +0.237 C 
ATOM     18  O   UNL     1       0.959  -7.504  -3.630  0.00  0.00    -0.273 OA
ATOM     19  N   UNL     1       0.172  -5.797  -4.808  0.00  0.00    -0.315 N 
ATOM     20  H   UNL     1       0.359  -5.000  -5.330  0.00  0.00    +0.149 HD
BRANCH  19  21
ATOM     21  C   UNL     1      -1.204  -6.279  -4.676  0.00  0.00    +0.096 C 
BRANCH  21  22
ATOM     22  C   UNL     1      -2.130  -5.426  -5.545  0.00  0.00    +0.016 C 
BRANCH  22  23
ATOM     23  C   UNL     1      -1.769  -5.614  -6.997  0.00  0.00    +0.093 A 
ATOM     24  C   UNL     1      -2.415  -6.406  -7.871  0.00  0.00    +0.043 A 
ATOM     25  C   UNL     1      -1.744  -6.280  -9.110  0.00  0.00    +0.041 A 
ATOM     26  C   UNL     1      -0.729  -5.419  -8.918  0.00  0.00    +0.195 A 
ATOM     27  O   UNL     1      -0.753  -5.014  -7.638  0.00  0.00    -0.469 OA
ENDBRANCH  22  23
BRANCH  22  28
ATOM     28  N   UNL     1      -1.976  -4.011  -5.182  0.00  0.00    +0.384 N 
ATOM     29  C   UNL     1      -2.933  -3.201  -5.949  0.00  0.00    -0.096 C 
ATOM     30  C   UNL     1      -2.234  -3.843  -3.746  0.00  0.00    -0.096 C 
ATOM     31  H   UNL     1      -1.036  -3.709  -5.392  0.00  0.00    -0.082 HD
ENDBRANCH  22  28
ENDBRANCH  21  22
ENDBRANCH  19  21
ENDBRANCH   1  17
TORSDOF 9
