REMARK  Name = ZINC62497301
REMARK  8 active torsions:
REMARK  status: ('A' for Active; 'I' for Inactive)
REMARK    1  A    between atoms: C_1  and  C_2
REMARK    2  A    between atoms: C_2  and  C_3
REMARK    3  A    between atoms: C_6  and  C_9
REMARK    4  A    between atoms: C_9  and  C_10
REMARK    5  A    between atoms: N_14  and  C_23
REMARK    6  A    between atoms: C_17  and  N_22
REMARK    7  A    between atoms: C_23  and  C_24
REMARK    8  A    between atoms: C_24  and  O_25
REMARK                            x       y       z     vdW  Elec       q    Type
REMARK                         _______ _______ _______ _____ _____    ______ ____
ROOT
ATOM      1  C   UNL     1       3.265  -0.728   5.522  0.00  0.00    +0.263 C 
ATOM      2  C   UNL     1       3.883  -1.228   6.803  0.00  0.00    +0.261 C 
ATOM      3  O   UNL     1       3.206  -1.341   7.803  0.00  0.00    -0.271 OA
ATOM      4  N   UNL     1       5.194  -1.549   6.833  0.00  0.00    -0.263 N 
ATOM      5  C   UNL     1       5.987  -1.294   5.706  0.00  0.00    +0.080 A 
ATOM      6  C   UNL     1       7.268  -1.813   5.616  0.00  0.00    +0.050 A 
ATOM      7  C   UNL     1       8.036  -1.562   4.487  0.00  0.00    +0.027 A 
ATOM      8  C   UNL     1       7.520  -0.793   3.452  0.00  0.00    +0.026 A 
ATOM      9  C   UNL     1       6.244  -0.271   3.544  0.00  0.00    +0.049 A 
ATOM     10  C   UNL     1       5.477  -0.513   4.671  0.00  0.00    +0.143 A 
ATOM     11  O   UNL     1       4.231   0.023   4.784  0.00  0.00    -0.477 OA
ENDROOT
BRANCH   7  12
ATOM     12  N   UNL     1       9.331  -2.084   4.392  0.00  0.00    -0.358 N 
ATOM     13  H   UNL     1       9.692  -2.621   5.115  0.00  0.00    +0.142 HD
ATOM     14  H   UNL     1       9.868  -1.908   3.604  0.00  0.00    +0.142 HD
ENDBRANCH   7  12
BRANCH   1  15
ATOM     15  C   UNL     1       2.797  -1.919   4.683  0.00  0.00    +0.089 C 
BRANCH  15  19
ATOM     16  C   UNL     1       0.731  -0.503   1.223  0.00  0.00    -0.048 A 
ATOM     17  C   UNL     1       2.097  -0.710   1.176  0.00  0.00    +0.004 A 
ATOM     18  C   UNL     1       2.766  -1.167   2.296  0.00  0.00    +0.004 A 
ATOM     19  C   UNL     1       2.068  -1.419   3.463  0.00  0.00    -0.043 A 
ATOM     20  C   UNL     1       0.702  -1.212   3.510  0.00  0.00    +0.004 A 
ATOM     21  C   UNL     1       0.034  -0.750   2.391  0.00  0.00    +0.004 A 
BRANCH  16  23
ATOM     22  C   UNL     1      -0.019   1.526   0.010  0.00  0.00    +0.009 C 
ATOM     23  C   UNL     1       0.002  -0.004   0.002  0.00  0.00    +0.032 C 
ENDBRANCH  16  23
ENDBRANCH  15  19
ENDBRANCH   1  15
BRANCH   4  24
ATOM     24  C   UNL     1       5.780  -2.158   8.029  0.00  0.00    +0.141 C 
BRANCH  24  25
ATOM     25  C   UNL     1       5.674  -3.681   7.931  0.00  0.00    +0.175 C 
BRANCH  25  26
ATOM     26  O   UNL     1       6.473  -4.144   6.840  0.00  0.00    -0.393 OA
ATOM     27  H   UNL     1       6.454  -5.104   6.718  0.00  0.00    +0.209 HD
ENDBRANCH  25  26
ENDBRANCH  24  25
ENDBRANCH   4  24
TORSDOF 7
