REMARK  Name = ZINC14980937
REMARK  5 active torsions:
REMARK  status: ('A' for Active; 'I' for Inactive)
REMARK    1  A    between atoms: C_4  and  C_7
REMARK    2  A    between atoms: C_7  and  N_51
REMARK    3  A    between atoms: C_13  and  C_15
REMARK    4  A    between atoms: C_15  and  C_16
REMARK    5  A    between atoms: N_18  and  C_19
REMARK                            x       y       z     vdW  Elec       q    Type
REMARK                         _______ _______ _______ _____ _____    ______ ____
ROOT
ATOM      1  C   UNL     1      -2.096   1.466   7.320  0.00  0.00    -0.059 C 
ATOM      2  C   UNL     1      -1.226   1.912   8.496  0.00  0.00    +0.085 C 
ATOM      3  N   UNL     1      -0.468   3.106   8.134  0.00  0.00    -0.318 N 
ATOM      4  C   UNL     1      -0.273   3.486   6.867  0.00  0.00    +0.200 C 
ATOM      5  O   UNL     1       0.396   4.475   6.653  0.00  0.00    -0.278 OA
ATOM      6  C   UNL     1      -0.847   2.739   5.696  0.00  0.00    +0.028 C 
ATOM      7  H   UNL     1      -0.089   3.648   8.844  0.00  0.00    +0.149 HD
ATOM      8  N   UNL     1      -1.237   1.382   6.122  0.00  0.00    +0.389 N 
ATOM      9  H   UNL     1      -0.391   0.847   6.352  0.00  0.00    -0.081 HD
ENDROOT
BRANCH   8  10
ATOM     10  C   UNL     1      -1.958   0.695   5.026  0.00  0.00    -0.074 C 
BRANCH  10  14
ATOM     11  C   UNL     1      -1.545  -3.594   4.617  0.00  0.00    +0.000 C 
ATOM     12  C   UNL     1      -2.955  -2.999   4.598  0.00  0.00    +0.000 C 
ATOM     13  C   UNL     1      -2.875  -1.506   4.278  0.00  0.00    +0.002 C 
ATOM     14  C   UNL     1      -2.038  -0.799   5.346  0.00  0.00    -0.028 C 
ATOM     15  C   UNL     1      -0.628  -1.393   5.365  0.00  0.00    +0.002 C 
ATOM     16  C   UNL     1      -0.708  -2.887   5.685  0.00  0.00    +0.000 C 
ENDBRANCH  10  14
ENDBRANCH   8  10
BRANCH   6  17
ATOM     17  C   UNL     1       0.209   2.632   4.595  0.00  0.00    +0.089 C 
BRANCH  17  18
ATOM     18  C   UNL     1       1.391   1.849   5.106  0.00  0.00    +0.212 C 
ATOM     19  O   UNL     1       1.350   1.338   6.205  0.00  0.00    -0.276 OA
ATOM     20  N   UNL     1       2.493   1.718   4.343  0.00  0.00    -0.312 N 
ATOM     21  H   UNL     1       2.526   2.127   3.464  0.00  0.00    +0.149 HD
BRANCH  20  22
ATOM     22  C   UNL     1       3.643   0.958   4.840  0.00  0.00    +0.073 C 
ATOM     23  C   UNL     1       4.979   1.373   4.203  0.00  0.00    +0.022 C 
ATOM     24  C   UNL     1       5.340  -0.121   4.168  0.00  0.00    +0.004 C 
ATOM     25  C   UNL     1       3.828  -0.405   4.148  0.00  0.00    +0.022 C 
ENDBRANCH  20  22
ENDBRANCH  17  18
ENDBRANCH   6  17
TORSDOF 5
