REMARK  Name = ZINC09127042
REMARK  6 active torsions:
REMARK  status: ('A' for Active; 'I' for Inactive)
REMARK    1  A    between atoms: C_3  and  N_28
REMARK    2  A    between atoms: C_6  and  N_7
REMARK    3  A    between atoms: C_12  and  C_13
REMARK    4  A    between atoms: C_12  and  N_56
REMARK    5  A    between atoms: N_15  and  C_16
REMARK    6  A    between atoms: C_17  and  C_25
REMARK                            x       y       z     vdW  Elec       q    Type
REMARK                         _______ _______ _______ _____ _____    ______ ____
ROOT
ATOM      1  C   UNL     1       4.255   0.181   2.380  0.00  0.00    +0.201 C 
ATOM      2  O   UNL     1       4.505   1.075   1.600  0.00  0.00    -0.278 OA
ATOM      3  N   UNL     1       5.185  -0.213   3.273  0.00  0.00    -0.281 N 
ATOM      4  H   UNL     1       4.985  -0.928   3.897  0.00  0.00    +0.155 HD
ENDROOT
BRANCH   3   5
ATOM      5  C   UNL     1       6.427   0.403   3.299  0.00  0.00    +0.084 A 
ATOM      6  C   UNL     1       7.501   0.143   4.138  0.00  0.00    +0.068 A 
ATOM      7  C   UNL     1       8.705   0.936   3.954  0.00  0.00    -0.023 A 
ATOM      8  C   UNL     1       8.638   1.863   2.974  0.00  0.00    -0.004 A 
ATOM      9  S   UNL     1       7.012   1.688   2.295  0.00  0.00    -0.077 S 
ATOM     10  C   UNL     1       9.713   2.821   2.563  0.00  0.00    +0.043 C 
ATOM     11  C   UNL     1      10.780   2.854   3.667  0.00  0.00    +0.005 C 
ATOM     12  C   UNL     1      11.138   1.415   4.049  0.00  0.00    +0.005 C 
ATOM     13  C   UNL     1       9.967   0.766   4.789  0.00  0.00    +0.037 C 
BRANCH   6  14
ATOM     14  C   UNL     1       7.426  -0.896   5.170  0.00  0.00    +0.244 C 
ATOM     15  O   UNL     1       7.761  -2.037   4.910  0.00  0.00    -0.270 OA
ATOM     16  N   UNL     1       6.985  -0.588   6.405  0.00  0.00    -0.325 N 
ATOM     17  H   UNL     1       6.718   0.321   6.612  0.00  0.00    +0.145 HD
ATOM     18  H   UNL     1       6.935  -1.275   7.088  0.00  0.00    +0.145 HD
ENDBRANCH   6  14
ENDBRANCH   3   5
BRANCH   1  19
ATOM     19  C   UNL     1       2.905  -0.488   2.352  0.00  0.00    +0.019 C 
BRANCH  19  25
ATOM     20  N   UNL     1       0.565  -0.240  -1.156  0.00  0.00    -0.333 N 
ATOM     21  C   UNL     1      -0.050   0.175   0.113  0.00  0.00    +0.086 C 
ATOM     22  C   UNL     1       0.735  -0.430   1.279  0.00  0.00    -0.059 C 
ATOM     23  C   UNL     1       2.749  -0.403  -0.063  0.00  0.00    -0.059 C 
ATOM     24  C   UNL     1       1.964   0.203  -1.229  0.00  0.00    +0.086 C 
ATOM     25  N   UNL     1       2.135   0.040   1.206  0.00  0.00    +0.387 N 
ATOM     26  H   UNL     1       2.144   1.066   1.242  0.00  0.00    -0.081 HD
BRANCH  20  32
ATOM     27  C   UNL     1       0.450   1.021  -3.210  0.00  0.00    +0.025 A 
ATOM     28  C   UNL     1      -0.277   1.485  -4.289  0.00  0.00    +0.034 A 
ATOM     29  C   UNL     1      -1.620   1.177  -4.405  0.00  0.00    +0.126 A 
ATOM     30  C   UNL     1      -2.239   0.399  -3.444  0.00  0.00    +0.034 A 
ATOM     31  C   UNL     1      -1.518  -0.072  -2.365  0.00  0.00    +0.025 A 
ATOM     32  C   UNL     1      -0.168   0.235  -2.246  0.00  0.00    +0.030 A 
BRANCH  29  33
ATOM     33  N   UNL     1      -2.396   1.680  -5.560  0.00  0.00    +0.056 N 
ATOM     34  O   UNL     1      -3.579   1.409  -5.663  0.00  0.00    -0.126 OA
ATOM     35  O   UNL     1      -1.852   2.366  -6.407  0.00  0.00    -0.126 OA
ENDBRANCH  29  33
ENDBRANCH  20  32
ENDBRANCH  19  25
ENDBRANCH   1  19
TORSDOF 6
