REMARK  Name = ZINC39601691
REMARK  9 active torsions:
REMARK  status: ('A' for Active; 'I' for Inactive)
REMARK    1  A    between atoms: C_1  and  C_2
REMARK    2  A    between atoms: C_2  and  C_3
REMARK    3  A    between atoms: C_7  and  C_16
REMARK    4  A    between atoms: N_18  and  C_19
REMARK    5  A    between atoms: C_19  and  C_20
REMARK    6  A    between atoms: C_20  and  O_21
REMARK    7  A    between atoms: O_21  and  C_22
REMARK    8  A    between atoms: C_22  and  C_23
REMARK    9  A    between atoms: C_23  and  O_24
REMARK                            x       y       z     vdW  Elec       q    Type
REMARK                         _______ _______ _______ _____ _____    ______ ____
ROOT
ATOM      1  C   UNL     1       0.662  -0.526  -0.927  0.00  0.00    +0.215 C 
ATOM      2  O   UNL     1       1.101   0.344  -1.649  0.00  0.00    -0.276 OA
ATOM      3  N   UNL     1       0.819  -1.823  -1.262  0.00  0.00    -0.300 N 
ATOM      4  C   UNL     1       0.351  -3.016  -0.518  0.00  0.00    +0.121 C 
ATOM      5  C   UNL     1      -0.138  -3.991  -1.612  0.00  0.00    +0.100 C 
ATOM      6  C   UNL     1       0.620  -3.568  -2.882  0.00  0.00    -0.004 C 
ATOM      7  C   UNL     1       1.493  -2.376  -2.461  0.00  0.00    +0.115 C 
ATOM      8  C   UNL     1       1.495  -4.714  -3.382  0.00  0.00    -0.010 C 
ATOM      9  C   UNL     1       2.193  -4.289  -4.677  0.00  0.00    -0.082 C 
ATOM     10  N   UNL     1       1.187  -3.939  -5.686  0.00  0.00    +0.379 N 
ATOM     11  C   UNL     1       0.410  -2.777  -5.237  0.00  0.00    -0.082 C 
ATOM     12  C   UNL     1      -0.363  -3.138  -3.966  0.00  0.00    -0.010 C 
ATOM     13  H   UNL     1       1.647  -3.718  -6.556  0.00  0.00    -0.086 HD
ATOM     14  H   UNL     1       0.566  -4.722  -5.826  0.00  0.00    -0.086 HD
ENDROOT
BRANCH   5  15
ATOM     15  C   UNL     1      -1.624  -3.851  -1.815  0.00  0.00    +0.218 C 
ATOM     16  O   UNL     1      -2.165  -2.783  -1.621  0.00  0.00    -0.275 OA
ATOM     17  N   UNL     1      -2.353  -4.913  -2.211  0.00  0.00    -0.313 N 
ATOM     18  H   UNL     1      -1.921  -5.768  -2.366  0.00  0.00    +0.149 HD
BRANCH  17  19
ATOM     19  C   UNL     1      -3.799  -4.777  -2.408  0.00  0.00    +0.132 C 
BRANCH  19  20
ATOM     20  C   UNL     1      -4.381  -6.120  -2.854  0.00  0.00    +0.178 C 
BRANCH  20  21
ATOM     21  O   UNL     1      -4.231  -7.077  -1.804  0.00  0.00    -0.376 OA
BRANCH  21  22
ATOM     22  C   UNL     1      -4.746  -8.372  -2.120  0.00  0.00    +0.187 C 
BRANCH  22  23
ATOM     23  C   UNL     1      -4.532  -9.310  -0.931  0.00  0.00    +0.184 C 
BRANCH  23  24
ATOM     24  O   UNL     1      -5.309  -8.856   0.179  0.00  0.00    -0.393 OA
ATOM     25  H   UNL     1      -5.222  -9.404   0.971  0.00  0.00    +0.209 HD
ENDBRANCH  23  24
ENDBRANCH  22  23
ENDBRANCH  21  22
ENDBRANCH  20  21
ENDBRANCH  19  20
ENDBRANCH  17  19
ENDBRANCH   5  15
BRANCH   1  27
ATOM     26  C   UNL     1      -0.099   1.365   0.485  0.00  0.00    +0.013 C 
ATOM     27  C   UNL     1      -0.059  -0.159   0.344  0.00  0.00    +0.092 C 
ENDBRANCH   1  27
TORSDOF 8
