REMARK  Name = ZINC57848141
REMARK  7 active torsions:
REMARK  status: ('A' for Active; 'I' for Inactive)
REMARK    1  A    between atoms: C_1  and  C_2
REMARK    2  A    between atoms: C_2  and  C_3
REMARK    3  A    between atoms: C_2  and  C_4
REMARK    4  A    between atoms: C_7  and  C_10
REMARK    5  A    between atoms: C_10  and  C_24
REMARK    6  A    between atoms: N_13  and  C_17
REMARK    7  A    between atoms: C_17  and  C_18
REMARK                            x       y       z     vdW  Elec       q    Type
REMARK                         _______ _______ _______ _____ _____    ______ ____
ROOT
ATOM      1  C   UNL     1      -5.419  -2.005   0.043  0.00  0.00    +0.135 C 
ATOM      2  C   UNL     1      -5.481  -3.389  -0.572  0.00  0.00    +0.251 C 
ATOM      3  O   UNL     1      -5.189  -3.699  -1.707  0.00  0.00    -0.272 OA
ATOM      4  N   UNL     1      -5.928  -4.202   0.405  0.00  0.00    -0.224 N 
ATOM      5  C   UNL     1      -6.154  -3.531   1.541  0.00  0.00    +0.310 C 
ATOM      6  O   UNL     1      -6.561  -4.050   2.562  0.00  0.00    -0.252 OA
ATOM      7  N   UNL     1      -5.881  -2.219   1.425  0.00  0.00    -0.281 N 
ATOM      8  C   UNL     1      -6.353  -1.042  -0.693  0.00  0.00    +0.047 C 
ATOM      9  H   UNL     1      -5.971  -1.546   2.118  0.00  0.00    +0.152 HD
ENDROOT
BRANCH   1  13
ATOM     10  C   UNL     1      -1.412  -0.526   0.013  0.00  0.00    -0.045 A 
ATOM     11  C   UNL     1      -2.259  -0.204   1.056  0.00  0.00    +0.004 A 
ATOM     12  C   UNL     1      -3.556  -0.683   1.066  0.00  0.00    +0.006 A 
ATOM     13  C   UNL     1      -4.006  -1.482   0.032  0.00  0.00    -0.015 A 
ATOM     14  C   UNL     1      -3.159  -1.803  -1.012  0.00  0.00    +0.006 A 
ATOM     15  C   UNL     1      -1.863  -1.321  -1.024  0.00  0.00    +0.004 A 
BRANCH  10  17
ATOM     16  C   UNL     1      -0.019   1.526   0.010  0.00  0.00    +0.012 C 
ATOM     17  C   UNL     1       0.002  -0.004   0.002  0.00  0.00    +0.013 C 
ATOM     18  C   UNL     1       0.742  -0.511   1.242  0.00  0.00    +0.012 C 
ENDBRANCH  10  17
ENDBRANCH   1  13
BRANCH   4  19
ATOM     19  C   UNL     1      -6.140  -5.643   0.244  0.00  0.00    +0.121 C 
BRANCH  19  20
ATOM     20  C   UNL     1      -4.855  -6.391   0.604  0.00  0.00    +0.003 C 
ATOM     21  C   UNL     1      -3.757  -6.037  -0.404  0.00  0.00    -0.014 C 
ATOM     22  C   UNL     1      -2.499  -6.849  -0.086  0.00  0.00    -0.082 C 
ATOM     23  N   UNL     1      -2.803  -8.282  -0.173  0.00  0.00    +0.379 N 
ATOM     24  C   UNL     1      -3.802  -8.643   0.839  0.00  0.00    -0.082 C 
ATOM     25  C   UNL     1      -5.110  -7.900   0.556  0.00  0.00    -0.014 C 
ATOM     26  H   UNL     1      -3.164  -8.493  -1.091  0.00  0.00    -0.086 HD
ATOM     27  H   UNL     1      -1.959  -8.813  -0.016  0.00  0.00    -0.086 HD
ENDBRANCH  19  20
ENDBRANCH   4  19
TORSDOF 4
