REMARK  Name = ZINC25480361
REMARK  4 active torsions:
REMARK  status: ('A' for Active; 'I' for Inactive)
REMARK    1  A    between atoms: C_1  and  C_2
REMARK    2  A    between atoms: N_8  and  C_9
REMARK    3  A    between atoms: C_9  and  N_10
REMARK    4  A    between atoms: C_15  and  C_17
REMARK                            x       y       z     vdW  Elec       q    Type
REMARK                         _______ _______ _______ _____ _____    ______ ____
ROOT
ATOM      1  N   UNL     1       1.368   2.019   0.277  0.00  0.00    -0.226 N 
ATOM      2  C   UNL     1       2.139   2.436  -0.748  0.00  0.00    +0.177 A 
ATOM      3  S   UNL     1       1.697   2.453  -2.402  0.00  0.00    -0.011 S 
ATOM      4  N   UNL     1       3.320   2.837  -0.237  0.00  0.00    -0.317 N 
ATOM      5  H   UNL     1       4.107   3.219  -0.903  0.00  0.00    +0.169 HD
ATOM      6  C   UNL     1       3.279   2.665   1.134  0.00  0.00    +0.167 A 
ATOM      7  N   UNL     1       2.109   2.180   1.456  0.00  0.00    -0.149 NA
ENDROOT
BRANCH   6   8
ATOM      8  C   UNL     1       4.367   2.982   2.075  0.00  0.00    +0.056 A 
ATOM      9  C   UNL     1       4.400   2.839   3.438  0.00  0.00    +0.019 A 
ATOM     10  C   UNL     1       5.542   3.207   4.114  0.00  0.00    +0.008 A 
ATOM     11  C   UNL     1       6.597   3.698   3.413  0.00  0.00    +0.046 A 
ATOM     12  S   UNL     1       5.990   3.644   1.735  0.00  0.00    -0.094 S 
ENDBRANCH   6   8
BRANCH   1  13
ATOM     13  C   UNL     1       0.002   1.499   0.177  0.00  0.00    +0.233 C 
BRANCH  13  20
ATOM     14  C   UNL     1      -1.983  -0.034   1.534  0.00  0.00    +0.026 C 
ATOM     15  C   UNL     1      -1.317  -0.531   0.250  0.00  0.00    +0.081 C 
ATOM     16  C   UNL     1      -1.229  -2.059   0.278  0.00  0.00    +0.178 C 
ATOM     17  O   UNL     1      -0.539  -2.514  -0.890  0.00  0.00    -0.377 OA
ATOM     18  C   UNL     1       0.784  -1.986  -1.018  0.00  0.00    +0.175 C 
ATOM     19  C   UNL     1       0.717  -0.457  -1.060  0.00  0.00    +0.114 C 
ATOM     20  N   UNL     1       0.038   0.031   0.150  0.00  0.00    -0.276 NA
ENDBRANCH  13  20
ENDBRANCH   1  13
TORSDOF 3
