REMARK  Name = ZINC62804808
REMARK  6 active torsions:
REMARK  status: ('A' for Active; 'I' for Inactive)
REMARK    1  A    between atoms: C_1  and  C_2
REMARK    2  A    between atoms: C_2  and  N_3
REMARK    3  A    between atoms: N_3  and  C_4
REMARK    4  A    between atoms: C_12  and  O_14
REMARK    5  A    between atoms: O_14  and  C_15
REMARK    6  A    between atoms: C_15  and  C_16
REMARK                            x       y       z     vdW  Elec       q    Type
REMARK                         _______ _______ _______ _____ _____    ______ ____
ROOT
ATOM      1  C   UNL     1       0.710  -1.947  -1.215  0.00  0.00    +0.001 C 
ATOM      2  C   UNL     1      -0.710  -2.518  -1.441  0.00  0.00    +0.218 C 
ATOM      3  O   UNL     1      -0.762  -2.688  -2.867  0.00  0.00    -0.493 OA
ATOM      4  C   UNL     1       0.497  -2.893  -3.342  0.00  0.00    +0.126 A 
ATOM      5  C   UNL     1       1.456  -2.472  -2.426  0.00  0.00    -0.016 A 
ATOM      6  C   UNL     1       2.800  -2.577  -2.709  0.00  0.00    +0.009 A 
ATOM      7  C   UNL     1       3.213  -3.114  -3.915  0.00  0.00    +0.046 A 
ATOM      8  C   UNL     1       2.269  -3.545  -4.836  0.00  0.00    +0.124 A 
ATOM      9  C   UNL     1       0.916  -3.436  -4.552  0.00  0.00    +0.091 A 
ENDROOT
BRANCH   1  10
ATOM     10  N   UNL     1       0.690  -0.478  -1.207  0.00  0.00    +0.386 N 
ATOM     11  H   UNL     1       0.202  -0.144  -2.024  0.00  0.00    -0.085 HD
ATOM     12  H   UNL     1       1.636  -0.129  -1.214  0.00  0.00    -0.085 HD
BRANCH  10  14
ATOM     13  C   UNL     1      -0.019   1.526   0.010  0.00  0.00    -0.017 C 
ATOM     14  C   UNL     1       0.002  -0.004   0.002  0.00  0.00    -0.085 C 
ENDBRANCH  10  14
ENDBRANCH   1  10
BRANCH   8  15
ATOM     15  O   UNL     1       2.672  -4.076  -6.020  0.00  0.00    -0.487 OA
BRANCH  15  16
ATOM     16  C   UNL     1       4.080  -4.159  -6.248  0.00  0.00    +0.271 C 
BRANCH  16  17
ATOM     17  C   UNL     1       4.334  -4.770  -7.603  0.00  0.00    +0.028 A 
ATOM     18  C   UNL     1       4.469  -4.156  -8.803  0.00  0.00    +0.016 A 
ATOM     19  C   UNL     1       4.701  -4.926  -9.928  0.00  0.00    +0.028 A 
ATOM     20  C   UNL     1       4.785  -6.274  -9.796  0.00  0.00    +0.078 A 
ATOM     21  S   UNL     1       4.542  -6.488  -8.040  0.00  0.00    -0.078 S 
ATOM     22 CL   UNL     1       5.065  -7.477 -11.016  0.00  0.00    -0.076 Cl
ENDBRANCH  16  17
ENDBRANCH  15  16
ENDBRANCH   8  15
TORSDOF 5
