REMARK  Name = ZINC01460200
REMARK  5 active torsions:
REMARK  status: ('A' for Active; 'I' for Inactive)
REMARK    1  A    between atoms: C_1  and  C_2
REMARK    2  A    between atoms: C_4  and  C_32
REMARK    3  A    between atoms: C_4  and  C_33
REMARK    4  A    between atoms: C_27  and  N_31
REMARK    5  A    between atoms: C_28  and  C_29
REMARK                            x       y       z     vdW  Elec       q    Type
REMARK                         _______ _______ _______ _____ _____    ______ ____
ROOT
ATOM      1  C   UNL     1      -5.606  -5.473  -2.654  0.00  0.00    +0.044 C 
ATOM      2  C   UNL     1      -4.750  -4.750  -1.647  0.00  0.00    -0.043 C 
ATOM      3  C   UNL     1      -5.096  -4.743  -0.370  0.00  0.00    +0.002 C 
ATOM      4  C   UNL     1      -4.358  -4.076   0.751  0.00  0.00    +0.055 C 
ATOM      5  N   UNL     1      -3.151  -3.391   0.271  0.00  0.00    -0.260 N 
ATOM      6  C   UNL     1      -2.799  -3.406  -1.072  0.00  0.00    +0.049 A 
ATOM      7  C   UNL     1      -3.532  -4.054  -2.084  0.00  0.00    -0.001 A 
ATOM      8  C   UNL     1      -3.030  -3.966  -3.372  0.00  0.00    +0.010 A 
ATOM      9  C   UNL     1      -1.862  -3.265  -3.621  0.00  0.00    +0.001 A 
ATOM     10  C   UNL     1      -1.139  -2.624  -2.614  0.00  0.00    +0.007 A 
ATOM     11  C   UNL     1      -1.631  -2.706  -1.329  0.00  0.00    -0.001 A 
ATOM     12  C   UNL     1      -1.193  -2.184   0.001  0.00  0.00    +0.148 C 
ATOM     13  C   UNL     1      -2.247  -2.686   0.976  0.00  0.00    +0.241 C 
ATOM     14  O   UNL     1      -2.269  -2.487   2.172  0.00  0.00    -0.273 OA
ATOM     15  C   UNL     1       0.151  -2.736   0.384  0.00  0.00    +0.104 A 
ATOM     16  C   UNL     1       1.257  -1.937   0.358  0.00  0.00    +0.152 A 
ATOM     17  C   UNL     1       2.543  -2.531   0.753  0.00  0.00    +0.060 A 
ATOM     18  C   UNL     1       3.716  -1.773   0.752  0.00  0.00    +0.015 A 
ATOM     19  C   UNL     1       4.904  -2.357   1.130  0.00  0.00    +0.001 A 
ATOM     20  C   UNL     1       4.938  -3.691   1.510  0.00  0.00    +0.004 A 
ATOM     21  C   UNL     1       3.787  -4.450   1.515  0.00  0.00    +0.047 A 
ATOM     22  C   UNL     1       2.576  -3.881   1.135  0.00  0.00    +0.143 A 
ATOM     23  O   UNL     1       1.448  -4.620   1.137  0.00  0.00    -0.422 OA
ATOM     24  C   UNL     1       0.281  -4.078   0.775  0.00  0.00    +0.346 A 
ATOM     25  O   UNL     1      -0.715  -4.780   0.787  0.00  0.00    -0.245 OA
ATOM     26  O   UNL     1       1.185  -0.646  -0.013  0.00  0.00    -0.440 OA
ATOM     27  C   UNL     1       0.002  -0.004   0.002  0.00  0.00    +0.199 C 
ATOM     28  C   UNL     1      -1.172  -0.683   0.015  0.00  0.00    +0.110 C 
ATOM     29  C   UNL     1      -3.956  -5.131   1.783  0.00  0.00    +0.036 C 
ATOM     30  C   UNL     1      -5.281  -3.053   1.417  0.00  0.00    +0.036 C 
ENDROOT
BRANCH  27  31
ATOM     31  N   UNL     1      -0.017   1.368   0.010  0.00  0.00    -0.328 N 
ATOM     32  H   UNL     1       0.817   1.865   0.004  0.00  0.00    +0.145 HD
ATOM     33  H   UNL     1      -0.863   1.842   0.016  0.00  0.00    +0.145 HD
ENDBRANCH  27  31
BRANCH  28  34
ATOM     34  C   UNL     1      -2.407   0.042   0.037  0.00  0.00    +0.102 C 
ATOM     35  N   UNL     1      -3.387   0.616   0.055  0.00  0.00    -0.191 NA
ENDBRANCH  28  34
TORSDOF 2
