REMARK  Name = ZINC58157562
REMARK  6 active torsions:
REMARK  status: ('A' for Active; 'I' for Inactive)
REMARK    1  A    between atoms: C_1  and  C_2
REMARK    2  A    between atoms: N_7  and  C_8
REMARK    3  A    between atoms: C_8  and  C_9
REMARK    4  A    between atoms: N_11  and  C_12
REMARK    5  A    between atoms: C_12  and  C_13
REMARK    6  A    between atoms: C_15  and  C_18
REMARK                            x       y       z     vdW  Elec       q    Type
REMARK                         _______ _______ _______ _____ _____    ______ ____
ROOT
ATOM      1  C   UNL     1      -1.393   0.178   2.916  0.00  0.00    +0.233 C 
ATOM      2  O   UNL     1      -2.317  -0.202   2.228  0.00  0.00    -0.274 OA
ATOM      3  N   UNL     1      -1.636   0.792   4.091  0.00  0.00    -0.305 N 
ATOM      4  H   UNL     1      -0.897   1.096   4.641  0.00  0.00    +0.149 HD
ENDROOT
BRANCH   1   5
ATOM      5  C   UNL     1       0.026  -0.038   2.458  0.00  0.00    +0.221 C 
BRANCH   5  12
ATOM      6  C   UNL     1      -0.018   1.503   0.010  0.00  0.00    +0.064 C 
ATOM      7  C   UNL     1       0.002  -0.004   0.002  0.00  0.00    +0.027 A 
ATOM      8  C   UNL     1       0.006  -0.694  -1.142  0.00  0.00    +0.071 A 
ATOM      9  S   UNL     1       0.032  -2.377  -0.554  0.00  0.00    -0.035 S 
ATOM     10  C   UNL     1       0.035  -2.069   1.099  0.00  0.00    +0.291 A 
ATOM     11  O   UNL     1       0.050  -2.869   2.018  0.00  0.00    -0.259 OA
ATOM     12  N   UNL     1       0.023  -0.721   1.162  0.00  0.00    -0.298 N 
ENDBRANCH   5  12
ENDBRANCH   1   5
BRANCH   3  13
ATOM     13  C   UNL     1      -3.016   1.002   4.536  0.00  0.00    +0.203 C 
BRANCH  13  14
ATOM     14  C   UNL     1      -3.012   1.704   5.869  0.00  0.00    +0.245 A 
ATOM     15  N   UNL     1      -3.033   2.994   6.049  0.00  0.00    -0.190 NA
ATOM     16  C   UNL     1      -3.022   3.276   7.365  0.00  0.00    +0.209 A 
ATOM     17  N   UNL     1      -2.994   2.147   8.035  0.00  0.00    -0.055 NA
ATOM     18  O   UNL     1      -2.993   1.107   7.068  0.00  0.00    -0.336 OA
BRANCH  16  19
ATOM     19  C   UNL     1      -3.039   4.630   7.958  0.00  0.00    +0.060 A 
ATOM     20  C   UNL     1      -3.024   4.994   9.278  0.00  0.00    +0.019 A 
ATOM     21  C   UNL     1      -3.044   6.333   9.595  0.00  0.00    +0.008 A 
ATOM     22  C   UNL     1      -3.078   7.251   8.593  0.00  0.00    +0.046 A 
ATOM     23  S   UNL     1      -3.076   6.216   7.138  0.00  0.00    -0.093 S 
ENDBRANCH  16  19
ENDBRANCH  13  14
ENDBRANCH   3  13
TORSDOF 5
