REMARK  Name = ZINC62185917
REMARK  6 active torsions:
REMARK  status: ('A' for Active; 'I' for Inactive)
REMARK    1  A    between atoms: C_1  and  C_2
REMARK    2  A    between atoms: C_7  and  C_8
REMARK    3  A    between atoms: C_11  and  C_16
REMARK    4  A    between atoms: C_13  and  N_15
REMARK    5  A    between atoms: C_16  and  N_17
REMARK    6  A    between atoms: C_20  and  C_23
REMARK                            x       y       z     vdW  Elec       q    Type
REMARK                         _______ _______ _______ _____ _____    ______ ____
ROOT
ATOM      1  C   UNL     1      -0.733   1.512   0.467  0.00  0.00    +0.044 C 
ATOM      2  C   UNL     1      -0.585   0.015   0.373  0.00  0.00    -0.044 A 
ATOM      3  C   UNL     1      -0.567  -0.602  -0.865  0.00  0.00    +0.004 A 
ATOM      4  C   UNL     1      -0.433  -1.974  -0.951  0.00  0.00    +0.006 A 
ATOM      5  C   UNL     1      -0.316  -2.738   0.199  0.00  0.00    -0.020 A 
ATOM      6  C   UNL     1      -0.330  -2.123   1.438  0.00  0.00    +0.125 A 
ATOM      7  C   UNL     1      -0.461  -0.741   1.521  0.00  0.00    -0.006 A 
ATOM      8  C   UNL     1      -0.475  -0.066   2.868  0.00  0.00    +0.048 C 
ATOM      9  O   UNL     1      -0.206  -2.833   2.590  0.00  0.00    -0.491 OA
ATOM     10  C   UNL     1      -0.435  -4.241   2.535  0.00  0.00    +0.229 C 
ATOM     11  C   UNL     1       0.374  -4.818   1.367  0.00  0.00    -0.000 C 
ATOM     12  C   UNL     1      -0.177  -4.233   0.064  0.00  0.00    -0.036 C 
ENDROOT
BRANCH  12  13
ATOM     13  N   UNL     1      -1.492  -4.823  -0.218  0.00  0.00    +0.383 N 
ATOM     14  H   UNL     1      -1.855  -4.440  -1.079  0.00  0.00    -0.089 HD
ATOM     15  H   UNL     1      -1.400  -5.824  -0.308  0.00  0.00    -0.089 HD
ATOM     16  H   UNL     1      -2.126  -4.610   0.538  0.00  0.00    -0.089 HD
ENDBRANCH  12  13
BRANCH  11  17
ATOM     17  C   UNL     1       0.237  -6.342   1.348  0.00  0.00    -0.073 C 
BRANCH  17  18
ATOM     18  N   UNL     1       0.865  -6.905   2.550  0.00  0.00    +0.380 N 
ATOM     19  C   UNL     1       0.599  -8.348   2.609  0.00  0.00    -0.079 C 
ATOM     20  C   UNL     1       1.181  -8.925   3.901  0.00  0.00    -0.016 C 
ATOM     21  C   UNL     1       2.693  -8.682   3.927  0.00  0.00    -0.018 C 
ATOM     22  C   UNL     1       2.960  -7.180   3.791  0.00  0.00    -0.016 C 
ATOM     23  C   UNL     1       2.312  -6.667   2.503  0.00  0.00    -0.079 C 
ATOM     24  C   UNL     1       3.270  -9.186   5.252  0.00  0.00    +0.007 C 
ATOM     25  H   UNL     1       0.479  -6.461   3.370  0.00  0.00    -0.082 HD
ENDBRANCH  17  18
ENDBRANCH  11  17
TORSDOF 3
