REMARK  Name = ZINC20762153
REMARK  9 active torsions:
REMARK  status: ('A' for Active; 'I' for Inactive)
REMARK    1  A    between atoms: C_1  and  C_2
REMARK    2  A    between atoms: C_2  and  C_3
REMARK    3  A    between atoms: C_3  and  C_5
REMARK    4  A    between atoms: C_3  and  C_6
REMARK    5  A    between atoms: C_6  and  C_8
REMARK    6  A    between atoms: C_6  and  N_12
REMARK    7  A    between atoms: C_8  and  O_10
REMARK    8  A    between atoms: O_10  and  C_11
REMARK    9  A    between atoms: N_27  and  C_30
REMARK                            x       y       z     vdW  Elec       q    Type
REMARK                         _______ _______ _______ _____ _____    ______ ____
ROOT
ATOM      1  N   UNL     1      -0.110  -0.853  -4.034  0.00  0.00    -0.286 N 
ATOM      2  C   UNL     1       0.088  -2.183  -3.946  0.00  0.00    +0.304 C 
ATOM      3  O   UNL     1      -0.271  -2.787  -2.954  0.00  0.00    -0.253 OA
ATOM      4  N   UNL     1       0.685  -2.843  -4.958  0.00  0.00    -0.274 N 
ATOM      5  C   UNL     1       1.742  -2.202  -5.756  0.00  0.00    +0.116 C 
ATOM      6  C   UNL     1       3.055  -2.969  -5.558  0.00  0.00    +0.074 C 
ATOM      7  C   UNL     1       2.778  -4.446  -5.656  0.00  0.00    +0.040 A 
ATOM      8  C   UNL     1       1.556  -5.010  -5.535  0.00  0.00    +0.060 A 
ATOM      9  N   UNL     1       1.693  -6.330  -5.673  0.00  0.00    -0.348 N 
ATOM     10  H   UNL     1       4.620  -5.370  -6.004  0.00  0.00    +0.166 HD
ATOM     11  C   UNL     1       2.954  -6.611  -5.878  0.00  0.00    +0.171 A 
ATOM     12  N   UNL     1       3.662  -5.458  -5.875  0.00  0.00    -0.349 N 
ATOM     13  C   UNL     1       0.298  -4.223  -5.288  0.00  0.00    +0.077 C 
ATOM     14  C   UNL     1      -0.571  -4.230  -6.544  0.00  0.00    +0.014 C 
ATOM     15  C   UNL     1      -1.880  -3.490  -6.258  0.00  0.00    -0.077 C 
ATOM     16  N   UNL     1      -2.590  -4.151  -5.157  0.00  0.00    +0.378 N 
ATOM     17  C   UNL     1      -1.789  -4.071  -3.929  0.00  0.00    -0.077 C 
ATOM     18  C   UNL     1      -0.476  -4.834  -4.121  0.00  0.00    +0.014 C 
ATOM     19  C   UNL     1      -3.882  -3.488  -4.941  0.00  0.00    -0.096 C 
ATOM     20  H   UNL     1       0.112  -0.382  -4.852  0.00  0.00    +0.151 HD
ATOM     21  H   UNL     1      -2.746  -5.120  -5.392  0.00  0.00    -0.082 HD
ATOM     22  H   UNL     1       0.973  -6.979  -5.629  0.00  0.00    +0.166 HD
ENDROOT
BRANCH   1  23
ATOM     23  C   UNL     1      -0.661  -0.118  -2.893  0.00  0.00    +0.186 C 
BRANCH  23  24
ATOM     24  C   UNL     1       0.470   0.262  -1.936  0.00  0.00    +0.017 C 
ATOM     25  C   UNL     1       1.522   1.079  -2.689  0.00  0.00    +0.010 C 
BRANCH  24  27
ATOM     26  C   UNL     1       0.112  -1.736  -0.480  0.00  0.00    +0.004 C 
ATOM     27  C   UNL     1       1.114  -1.009  -1.378  0.00  0.00    +0.002 C 
ENDBRANCH  24  27
ENDBRANCH  23  24
BRANCH  23  28
ATOM     28  C   UNL     1      -1.345   1.133  -3.383  0.00  0.00    +0.328 C 
ATOM     29  O   UNL     1      -1.284   1.436  -4.551  0.00  0.00    -0.249 OA
BRANCH  28  30
ATOM     30  O   UNL     1      -2.022   1.909  -2.523  0.00  0.00    -0.467 OA
ATOM     31  C   UNL     1      -2.738   3.017  -3.073  0.00  0.00    +0.280 C 
ENDBRANCH  28  30
ENDBRANCH  23  28
ENDBRANCH   1  23
TORSDOF 5
