REMARK  Name = ZINC13457185
REMARK  9 active torsions:
REMARK  status: ('A' for Active; 'I' for Inactive)
REMARK    1  A    between atoms: C_1  and  C_2
REMARK    2  A    between atoms: C_2  and  C_3
REMARK    3  A    between atoms: C_2  and  C_4
REMARK    4  A    between atoms: C_4  and  C_6
REMARK    5  A    between atoms: C_4  and  N_11
REMARK    6  A    between atoms: C_12  and  C_14
REMARK    7  A    between atoms: C_14  and  O_15
REMARK    8  A    between atoms: O_15  and  C_16
REMARK    9  A    between atoms: C_21  and  C_22
REMARK                            x       y       z     vdW  Elec       q    Type
REMARK                         _______ _______ _______ _____ _____    ______ ____
ROOT
ATOM      1  N   UNL     1       0.038   1.636   2.453  0.00  0.00    -0.305 N 
ATOM      2  C   UNL     1      -0.124   0.413   2.997  0.00  0.00    +0.251 C 
ATOM      3  O   UNL     1      -0.909  -0.370   2.506  0.00  0.00    -0.272 OA
ATOM      4  H   UNL     1       0.667   2.261   2.846  0.00  0.00    +0.149 HD
ENDROOT
BRANCH   1   5
ATOM      5  C   UNL     1      -0.735   2.019   1.269  0.00  0.00    +0.112 C 
BRANCH   5   6
ATOM      6  C   UNL     1      -0.864   3.520   1.218  0.00  0.00    +0.010 A 
ATOM      7  C   UNL     1      -1.934   4.273   0.864  0.00  0.00    +0.013 A 
ATOM      8  C   UNL     1      -1.824   5.651   0.895  0.00  0.00    +0.008 A 
ATOM      9  C   UNL     1      -0.646   6.207   1.270  0.00  0.00    +0.045 A 
ATOM     10  S   UNL     1       0.355   4.767   1.602  0.00  0.00    -0.100 S 
ENDBRANCH   5   6
BRANCH   5  12
ATOM     11  C   UNL     1       0.002  -0.004   0.002  0.00  0.00    +0.009 C 
ATOM     12  C   UNL     1      -0.019   1.526   0.010  0.00  0.00    +0.008 C 
ATOM     13  C   UNL     1       1.417   2.055  -0.000  0.00  0.00    +0.009 C 
ENDBRANCH   5  12
ENDBRANCH   1   5
BRANCH   2  14
ATOM     14  C   UNL     1       0.672   0.018   4.214  0.00  0.00    +0.324 C 
BRANCH  14  15
ATOM     15  O   UNL     1       0.326  -1.314   4.598  0.00  0.00    -0.482 OA
BRANCH  15  16
ATOM     16  C   UNL     1       0.957  -1.825   5.684  0.00  0.00    +0.135 A 
ATOM     17  C   UNL     1       1.891  -1.063   6.370  0.00  0.00    +0.047 A 
ATOM     18  C   UNL     1       2.532  -1.585   7.476  0.00  0.00    +0.018 A 
ATOM     19  C   UNL     1       2.249  -2.871   7.909  0.00  0.00    +0.014 A 
ATOM     20  C   UNL     1       1.324  -3.642   7.240  0.00  0.00    +0.033 A 
ATOM     21  C   UNL     1       0.663  -3.124   6.122  0.00  0.00    +0.106 A 
ATOM     22  I   UNL     1       3.233  -3.646   9.589  0.00  0.00    -0.044 I 
BRANCH  21  23
ATOM     23  C   UNL     1      -0.332  -3.941   5.405  0.00  0.00    +0.390 C 
ATOM     24  O   UNL     1      -0.901  -3.489   4.431  0.00  0.00    -0.240 OA
ATOM     25  O   UNL     1      -0.612  -5.189   5.830  0.00  0.00    -0.240 OA
ENDBRANCH  21  23
ENDBRANCH  15  16
ENDBRANCH  14  15
ENDBRANCH   2  14
TORSDOF 7
