REMARK  Name = ZINC08709400
REMARK  7 active torsions:
REMARK  status: ('A' for Active; 'I' for Inactive)
REMARK    1  A    between atoms: C_1  and  C_2
REMARK    2  A    between atoms: C_5  and  C_9
REMARK    3  A    between atoms: C_6  and  C_8
REMARK    4  A    between atoms: N_11  and  C_12
REMARK    5  A    between atoms: C_12  and  C_13
REMARK    6  A    between atoms: C_16  and  S_18
REMARK    7  A    between atoms: S_18  and  N_21
REMARK                            x       y       z     vdW  Elec       q    Type
REMARK                         _______ _______ _______ _____ _____    ______ ____
ROOT
ATOM      1  C   UNL     1       5.421  -1.450  -1.702  0.00  0.00    +0.245 C 
ATOM      2  O   UNL     1       6.190  -1.727  -0.802  0.00  0.00    -0.270 OA
ATOM      3  N   UNL     1       4.117  -1.242  -1.433  0.00  0.00    -0.307 N 
ATOM      4  H   UNL     1       3.503  -1.022  -2.151  0.00  0.00    +0.149 HD
ENDROOT
BRANCH   1   9
ATOM      5  C   UNL     1       7.348  -1.024  -7.107  0.00  0.00    +0.044 C 
ATOM      6  C   UNL     1       6.843  -1.136  -5.692  0.00  0.00    -0.050 A 
ATOM      7  C   UNL     1       5.486  -1.051  -5.436  0.00  0.00    +0.004 A 
ATOM      8  C   UNL     1       5.018  -1.153  -4.143  0.00  0.00    +0.013 A 
ATOM      9  C   UNL     1       5.916  -1.341  -3.091  0.00  0.00    +0.040 A 
ATOM     10  C   UNL     1       7.284  -1.421  -3.355  0.00  0.00    -0.038 A 
ATOM     11  C   UNL     1       7.739  -1.322  -4.654  0.00  0.00    +0.007 A 
ATOM     12  C   UNL     1       8.261  -1.618  -2.226  0.00  0.00    +0.044 C 
ENDBRANCH   1   9
BRANCH   3  13
ATOM     13  C   UNL     1       3.626  -1.350  -0.057  0.00  0.00    +0.147 C 
BRANCH  13  14
ATOM     14  C   UNL     1       2.145  -1.074  -0.029  0.00  0.00    +0.009 A 
ATOM     15  C   UNL     1       1.112  -1.942  -0.162  0.00  0.00    +0.015 A 
ATOM     16  C   UNL     1      -0.182  -1.458  -0.102  0.00  0.00    +0.036 A 
ATOM     17  C   UNL     1      -0.379  -0.131   0.089  0.00  0.00    +0.142 A 
ATOM     18  S   UNL     1       1.295   0.481   0.190  0.00  0.00    -0.072 S 
BRANCH  17  19
ATOM     19  S   UNL     1      -1.895   0.761   0.200  0.00  0.00    +0.062 S 
ATOM     20  O   UNL     1      -1.603   2.105  -0.158  0.00  0.00    -0.153 OA
ATOM     21  O   UNL     1      -2.872  -0.014  -0.481  0.00  0.00    -0.153 OA
BRANCH  19  22
ATOM     22  N   UNL     1      -2.335   0.781   1.796  0.00  0.00    -0.203 NA
ATOM     23  H   UNL     1      -1.776   0.345   2.459  0.00  0.00    +0.144 HD
ATOM     24  H   UNL     1      -3.151   1.229   2.069  0.00  0.00    +0.144 HD
ENDBRANCH  19  22
ENDBRANCH  17  19
ENDBRANCH  13  14
ENDBRANCH   3  13
TORSDOF 5
