REMARK  Name = ZINC03847185
REMARK  6 active torsions:
REMARK  status: ('A' for Active; 'I' for Inactive)
REMARK    1  A    between atoms: C_1  and  O_2
REMARK    2  A    between atoms: O_2  and  C_3
REMARK    3  A    between atoms: C_8  and  O_9
REMARK    4  A    between atoms: C_12  and  C_14
REMARK    5  A    between atoms: C_17  and  O_21
REMARK    6  A    between atoms: C_18  and  O_20
REMARK                            x       y       z     vdW  Elec       q    Type
REMARK                         _______ _______ _______ _____ _____    ______ ____
ROOT
ATOM      1  C   UNL     1       7.809   0.676  -2.034  0.00  0.00    +0.161 A 
ATOM      2  C   UNL     1       6.881   0.188  -1.129  0.00  0.00    +0.050 A 
ATOM      3  C   UNL     1       6.017   1.057  -0.494  0.00  0.00    +0.008 A 
ATOM      4  C   UNL     1       6.069   2.418  -0.756  0.00  0.00    -0.037 A 
ATOM      5  C   UNL     1       6.989   2.911  -1.657  0.00  0.00    -0.016 A 
ATOM      6  C   UNL     1       7.862   2.039  -2.298  0.00  0.00    +0.160 A 
ATOM      7  C   UNL     1       7.080   4.380  -1.978  0.00  0.00    -0.043 C 
ATOM      8  C   UNL     1       5.034   4.678  -0.743  0.00  0.00    -0.069 C 
ATOM      9  C   UNL     1       5.106   3.326  -0.034  0.00  0.00    +0.032 C 
ATOM     10  N   UNL     1       6.406   5.177  -0.945  0.00  0.00    +0.382 N 
ATOM     11  H   UNL     1       6.371   6.160  -1.240  0.00  0.00    -0.085 HD
ATOM     12  H   UNL     1       6.928   5.103  -0.063  0.00  0.00    -0.085 HD
ENDROOT
BRANCH   9  13
ATOM     13  C   UNL     1       3.738   2.693  -0.020  0.00  0.00    -0.038 A 
ATOM     14  C   UNL     1       3.098   2.410  -1.212  0.00  0.00    +0.008 A 
ATOM     15  C   UNL     1       1.843   1.830  -1.205  0.00  0.00    +0.049 A 
ATOM     16  C   UNL     1       1.224   1.533  -0.001  0.00  0.00    +0.158 A 
ATOM     17  C   UNL     1       1.866   1.824   1.198  0.00  0.00    +0.158 A 
ATOM     18  C   UNL     1       3.126   2.399   1.184  0.00  0.00    +0.053 A 
BRANCH  17  19
ATOM     19  O   UNL     1       1.260   1.539   2.382  0.00  0.00    -0.503 OA
ATOM     20  H   UNL     1       1.455   0.654   2.721  0.00  0.00    +0.292 HD
ENDBRANCH  17  19
BRANCH  16  21
ATOM     21  O   UNL     1      -0.011   0.963   0.007  0.00  0.00    -0.503 OA
ATOM     22  H   UNL     1       0.002  -0.004   0.002  0.00  0.00    +0.292 HD
ENDBRANCH  16  21
ENDBRANCH   9  13
BRANCH   1  24
ATOM     23  C   UNL     1       8.552  -1.562  -2.340  0.00  0.00    +0.277 C 
ATOM     24  O   UNL     1       8.665  -0.174  -2.661  0.00  0.00    -0.491 OA
ENDBRANCH   1  24
BRANCH   6  25
ATOM     25  O   UNL     1       8.772   2.523  -3.186  0.00  0.00    -0.503 OA
ATOM     26  H   UNL     1       9.619   2.767  -2.788  0.00  0.00    +0.292 HD
ENDBRANCH   6  25
TORSDOF 5
