REMARK  Name = ZINC40922568
REMARK  11 active torsions:
REMARK  status: ('A' for Active; 'I' for Inactive)
REMARK    1  A    between atoms: C_1  and  C_2
REMARK    2  A    between atoms: C_2  and  C_4
REMARK    3  A    between atoms: C_2  and  N_14
REMARK    4  A    between atoms: C_9  and  O_10
REMARK    5  A    between atoms: O_10  and  C_11
REMARK    6  A    between atoms: C_11  and  C_12
REMARK    7  A    between atoms: C_11  and  C_13
REMARK    8  A    between atoms: C_15  and  C_17
REMARK    9  A    between atoms: C_17  and  C_18
REMARK   10  A    between atoms: C_17  and  C_19
REMARK   11  A    between atoms: C_17  and  N_20
REMARK                            x       y       z     vdW  Elec       q    Type
REMARK                         _______ _______ _______ _____ _____    ______ ____
ROOT
ATOM      1  C   UNL     1       0.188   1.480  -0.097  0.00  0.00    +0.033 C 
ATOM      2  C   UNL     1      -0.028  -0.030   0.024  0.00  0.00    +0.104 C 
ENDROOT
BRANCH   2   3
ATOM      3  C   UNL     1      -1.505  -0.327   0.024  0.00  0.00    +0.014 A 
ATOM      4  C   UNL     1      -2.184  -0.462   1.220  0.00  0.00    +0.009 A 
ATOM      5  C   UNL     1      -3.539  -0.735   1.220  0.00  0.00    +0.001 A 
ATOM      6  C   UNL     1      -4.218  -0.875   0.024  0.00  0.00    +0.004 A 
ATOM      7  C   UNL     1      -3.545  -0.741  -1.174  0.00  0.00    +0.046 A 
ATOM      8  C   UNL     1      -2.186  -0.461  -1.177  0.00  0.00    +0.126 A 
BRANCH   8   9
ATOM      9  O   UNL     1      -1.522  -0.324  -2.355  0.00  0.00    -0.489 OA
BRANCH   9  10
ATOM     10  C   UNL     1      -2.256  -0.597  -3.550  0.00  0.00    +0.167 C 
ATOM     11  C   UNL     1      -3.027   0.656  -3.973  0.00  0.00    +0.051 C 
ATOM     12  C   UNL     1      -1.288  -1.000  -4.663  0.00  0.00    +0.051 C 
ENDBRANCH   9  10
ENDBRANCH   8   9
ENDBRANCH   2   3
BRANCH   2  13
ATOM     13  N   UNL     1       0.567  -0.509   1.275  0.00  0.00    -0.310 N 
ATOM     14  C   UNL     1       1.877  -0.823   1.321  0.00  0.00    +0.202 C 
ATOM     15  O   UNL     1       2.563  -0.709   0.328  0.00  0.00    -0.277 OA
ATOM     16  H   UNL     1       0.018  -0.600   2.069  0.00  0.00    +0.149 HD
BRANCH  14  17
ATOM     17  C   UNL     1       2.488  -1.316   2.607  0.00  0.00    +0.001 C 
ATOM     18  C   UNL     1       3.724  -2.162   2.293  0.00  0.00    -0.001 C 
ATOM     19  C   UNL     1       2.894  -0.119   3.470  0.00  0.00    -0.001 C 
BRANCH  17  20
ATOM     20  N   UNL     1       1.507  -2.133   3.334  0.00  0.00    +0.387 N 
ATOM     21  H   UNL     1       1.239  -2.922   2.765  0.00  0.00    -0.089 HD
ATOM     22  H   UNL     1       1.916  -2.463   4.195  0.00  0.00    -0.089 HD
ATOM     23  H   UNL     1       0.692  -1.575   3.541  0.00  0.00    -0.089 HD
ENDBRANCH  17  20
ENDBRANCH  14  17
ENDBRANCH   2  13
TORSDOF 6
