REMARK  Name = ZINC37137860
REMARK  9 active torsions:
REMARK  status: ('A' for Active; 'I' for Inactive)
REMARK    1  A    between atoms: C_1  and  C_2
REMARK    2  A    between atoms: C_2  and  C_3
REMARK    3  A    between atoms: C_3  and  C_5
REMARK    4  A    between atoms: C_3  and  C_6
REMARK    5  A    between atoms: C_6  and  C_8
REMARK    6  A    between atoms: C_6  and  N_9
REMARK    7  A    between atoms: N_9  and  C_10
REMARK    8  A    between atoms: C_13  and  S_17
REMARK    9  A    between atoms: S_17  and  N_20
REMARK                            x       y       z     vdW  Elec       q    Type
REMARK                         _______ _______ _______ _____ _____    ______ ____
ROOT
ATOM      1  C   UNL     1      -3.043  -3.773  -0.865  0.00  0.00    +0.042 A 
ATOM      2  C   UNL     1      -1.994  -4.518  -1.387  0.00  0.00    +0.026 A 
ATOM      3  C   UNL     1      -2.248  -5.723  -2.012  0.00  0.00    +0.030 A 
ATOM      4  C   UNL     1      -3.546  -6.188  -2.120  0.00  0.00    +0.106 A 
ATOM      5  C   UNL     1      -4.594  -5.449  -1.602  0.00  0.00    +0.045 A 
ATOM      6  C   UNL     1      -4.346  -4.246  -0.970  0.00  0.00    +0.041 A 
ATOM      7 BR   UNL     1      -5.779  -3.239  -0.255  0.00  0.00    -0.048 Br
ENDROOT
BRANCH   4   8
ATOM      8  S   UNL     1      -3.865  -7.725  -2.920  0.00  0.00    +0.056 S 
ATOM      9  O   UNL     1      -5.211  -7.676  -3.372  0.00  0.00    -0.153 OA
ATOM     10  O   UNL     1      -2.774  -7.960  -3.799  0.00  0.00    -0.153 OA
BRANCH   8  11
ATOM     11  N   UNL     1      -3.799  -8.904  -1.758  0.00  0.00    -0.204 NA
ATOM     12  H   UNL     1      -3.610  -8.667  -0.837  0.00  0.00    +0.144 HD
ATOM     13  H   UNL     1      -3.950  -9.832  -2.000  0.00  0.00    +0.144 HD
ENDBRANCH   8  11
ENDBRANCH   4   8
BRANCH   1  14
ATOM     14  N   UNL     1      -2.790  -2.554  -0.231  0.00  0.00    -0.340 N 
ATOM     15  H   UNL     1      -3.523  -2.037   0.137  0.00  0.00    +0.146 HD
BRANCH  14  16
ATOM     16  C   UNL     1      -1.416  -2.058  -0.121  0.00  0.00    +0.070 C 
ATOM     17  C   UNL     1      -0.749  -2.670   1.112  0.00  0.00    +0.028 C 
BRANCH  16  18
ATOM     18  C   UNL     1      -1.433  -0.534   0.013  0.00  0.00    +0.006 C 
ATOM     19  C   UNL     1      -2.110  -0.145   1.329  0.00  0.00    +0.009 C 
BRANCH  18  21
ATOM     20  C   UNL     1      -0.019   1.526   0.010  0.00  0.00    +0.004 C 
ATOM     21  C   UNL     1       0.002  -0.004   0.002  0.00  0.00    +0.002 C 
ENDBRANCH  18  21
ENDBRANCH  16  18
ENDBRANCH  14  16
ENDBRANCH   1  14
TORSDOF 6
