REMARK  Name = ZINC44737501
REMARK  6 active torsions:
REMARK  status: ('A' for Active; 'I' for Inactive)
REMARK    1  A    between atoms: C_1  and  C_2
REMARK    2  A    between atoms: C_9  and  C_11
REMARK    3  A    between atoms: C_11  and  C_13
REMARK    4  A    between atoms: C_11  and  N_14
REMARK    5  A    between atoms: C_15  and  C_17
REMARK    6  A    between atoms: C_28  and  C_30
REMARK                            x       y       z     vdW  Elec       q    Type
REMARK                         _______ _______ _______ _____ _____    ______ ____
ROOT
ATOM      1  C   UNL     1      -1.061  -8.340   1.660  0.00  0.00    +0.100 C 
ATOM      2  C   UNL     1      -0.440  -9.067   0.446  0.00  0.00    +0.121 C 
ATOM      3  N   UNL     1       0.116 -10.322   1.006  0.00  0.00    -0.300 N 
ATOM      4  C   UNL     1      -0.890 -10.759   2.003  0.00  0.00    +0.115 C 
ATOM      5  C   UNL     1      -1.359  -9.454   2.678  0.00  0.00    -0.004 C 
ATOM      6  C   UNL     1      -0.575  -9.217   3.965  0.00  0.00    -0.010 C 
ATOM      7  C   UNL     1      -0.931 -10.306   4.981  0.00  0.00    -0.082 C 
ATOM      8  N   UNL     1      -2.373 -10.274   5.250  0.00  0.00    +0.379 N 
ATOM      9  C   UNL     1      -3.118 -10.595   4.027  0.00  0.00    -0.082 C 
ATOM     10  C   UNL     1      -2.855  -9.518   2.970  0.00  0.00    -0.010 C 
ATOM     11  C   UNL     1       1.275 -10.929   0.682  0.00  0.00    +0.219 C 
ATOM     12  O   UNL     1       2.035 -10.404  -0.104  0.00  0.00    -0.275 OA
ATOM     13  H   UNL     1      -2.596 -10.951   5.965  0.00  0.00    -0.086 HD
ATOM     14  H   UNL     1      -2.635  -9.353   5.570  0.00  0.00    -0.086 HD
ENDROOT
BRANCH  11  15
ATOM     15  C   UNL     1       1.627 -12.259   1.296  0.00  0.00    +0.079 C 
ATOM     16  C   UNL     1       3.150 -12.438   1.302  0.00  0.00    +0.017 C 
ATOM     17  C   UNL     1       3.485 -13.708   2.087  0.00  0.00    +0.027 C 
ATOM     18  C   UNL     1       2.642 -14.852   1.605  0.00  0.00    -0.031 C 
ATOM     19  C   UNL     1       1.563 -14.712   0.903  0.00  0.00    -0.030 C 
ATOM     20  C   UNL     1       1.006 -13.387   0.469  0.00  0.00    +0.039 C 
ENDBRANCH  11  15
BRANCH   1  22
ATOM     21  N   UNL     1      -0.531  -6.246   2.864  0.00  0.00    -0.305 N 
ATOM     22  C   UNL     1      -0.082  -7.351   2.237  0.00  0.00    +0.219 C 
ATOM     23  O   UNL     1       1.110  -7.548   2.136  0.00  0.00    -0.275 OA
ATOM     24  H   UNL     1      -1.485  -6.088   2.945  0.00  0.00    +0.149 HD
BRANCH  21  25
ATOM     25  C   UNL     1       0.421  -5.284   3.425  0.00  0.00    +0.136 C 
ATOM     26  C   UNL     1       0.860  -4.306   2.333  0.00  0.00    +0.036 C 
BRANCH  25  35
ATOM     27  C   UNL     1      -1.582  -1.343   9.412  0.00  0.00    +0.044 C 
ATOM     28  C   UNL     1      -1.639  -2.142   8.136  0.00  0.00    -0.048 A 
ATOM     29  C   UNL     1      -2.865  -2.408   7.543  0.00  0.00    +0.005 A 
ATOM     30  C   UNL     1      -2.938  -3.130   6.386  0.00  0.00    +0.030 A 
ATOM     31  C   UNL     1      -1.769  -3.607   5.788  0.00  0.00    +0.089 A 
ATOM     32  C   UNL     1      -0.527  -3.338   6.387  0.00  0.00    +0.067 A 
ATOM     33  C   UNL     1      -0.472  -2.598   7.561  0.00  0.00    +0.031 A 
ATOM     34  N   UNL     1       0.423  -3.929   5.578  0.00  0.00    -0.340 N 
ATOM     35  C   UNL     1      -0.237  -4.521   4.546  0.00  0.00    +0.128 A 
ATOM     36  N   UNL     1      -1.519  -4.334   4.669  0.00  0.00    -0.231 NA
ATOM     37  H   UNL     1       1.382  -3.923   5.719  0.00  0.00    +0.167 HD
ENDBRANCH  25  35
ENDBRANCH  21  25
ENDBRANCH   1  22
TORSDOF 4
