REMARK  Name = ZINC48155990
REMARK  9 active torsions:
REMARK  status: ('A' for Active; 'I' for Inactive)
REMARK    1  A    between atoms: C_1  and  C_2
REMARK    2  A    between atoms: C_5  and  C_9
REMARK    3  A    between atoms: C_6  and  N_8
REMARK    4  A    between atoms: N_12  and  C_14
REMARK    5  A    between atoms: C_14  and  C_15
REMARK    6  A    between atoms: N_17  and  C_18
REMARK    7  A    between atoms: N_20  and  C_23
REMARK    8  A    between atoms: C_23  and  C_24
REMARK    9  A    between atoms: C_23  and  C_25
REMARK                            x       y       z     vdW  Elec       q    Type
REMARK                         _______ _______ _______ _____ _____    ______ ____
ROOT
ATOM      1  C   UNL     1       0.059  -4.216   0.059  0.00  0.00    +0.023 A 
ATOM      2  C   UNL     1       0.940  -5.012   0.816  0.00  0.00    +0.143 A 
ATOM      3  N   UNL     1       0.646  -6.266   0.595  0.00  0.00    -0.179 NA
ATOM      4  N   UNL     1      -0.426  -6.320  -0.304  0.00  0.00    -0.262 N 
ATOM      5  C   UNL     1      -0.776  -5.056  -0.618  0.00  0.00    +0.117 A 
ENDROOT
BRANCH   1  10
ATOM      6  C   UNL     1      -0.018   1.503   0.010  0.00  0.00    +0.063 C 
ATOM      7  C   UNL     1       0.002  -0.004   0.002  0.00  0.00    +0.014 A 
ATOM      8  C   UNL     1       0.005  -0.676  -1.204  0.00  0.00    +0.021 A 
ATOM      9  C   UNL     1       0.024  -2.063  -1.212  0.00  0.00    +0.013 A 
ATOM     10  C   UNL     1       0.039  -2.732   0.011  0.00  0.00    +0.023 A 
ATOM     11  C   UNL     1       0.035  -1.981   1.194  0.00  0.00    +0.102 A 
ATOM     12  N   UNL     1       0.022  -0.659   1.148  0.00  0.00    -0.347 N 
ATOM     13  H   UNL     1       0.023  -0.158   1.978  0.00  0.00    +0.167 HD
BRANCH  11  14
ATOM     14  N   UNL     1       0.049  -2.629   2.422  0.00  0.00    -0.344 N 
ATOM     15  H   UNL     1       0.063  -3.598   2.460  0.00  0.00    +0.144 HD
ATOM     16  H   UNL     1       0.046  -2.112   3.243  0.00  0.00    +0.144 HD
ENDBRANCH  11  14
ENDBRANCH   1  10
BRANCH   4  17
ATOM     17  C   UNL     1      -1.060  -7.539  -0.813  0.00  0.00    +0.239 C 
BRANCH  17  18
ATOM     18  C   UNL     1      -0.014  -8.427  -1.436  0.00  0.00    +0.240 C 
ATOM     19  O   UNL     1       1.147  -8.077  -1.453  0.00  0.00    -0.273 OA
ATOM     20  N   UNL     1      -0.369  -9.611  -1.974  0.00  0.00    -0.266 N 
ATOM     21  H   UNL     1      -1.298  -9.891  -1.960  0.00  0.00    +0.156 HD
BRANCH  20  22
ATOM     22  C   UNL     1       0.606 -10.439  -2.554  0.00  0.00    +0.167 A 
ATOM     23  C   UNL     1       1.938 -10.188  -2.644  0.00  0.00    +0.154 A 
ATOM     24  N   UNL     1       2.480 -11.263  -3.280  0.00  0.00    -0.247 N 
ATOM     25  N   UNL     1       1.532 -12.092  -3.546  0.00  0.00    -0.064 NA
ATOM     26  N   UNL     1       0.407 -11.636  -3.124  0.00  0.00    -0.114 NA
BRANCH  24  27
ATOM     27  C   UNL     1       3.897 -11.445  -3.604  0.00  0.00    +0.103 C 
ATOM     28  C   UNL     1       4.209 -10.752  -4.933  0.00  0.00    +0.032 C 
ATOM     29  C   UNL     1       4.757 -10.834  -2.496  0.00  0.00    +0.032 C 
ENDBRANCH  24  27
ENDBRANCH  20  22
ENDBRANCH  17  18
ENDBRANCH   4  17
TORSDOF 6
