REMARK  Name = ZINC67563187
REMARK  4 active torsions:
REMARK  status: ('A' for Active; 'I' for Inactive)
REMARK    1  A    between atoms: C_1  and  C_2
REMARK    2  A    between atoms: C_5  and  C_11
REMARK    3  A    between atoms: N_17  and  C_26
REMARK    4  A    between atoms: N_22  and  C_25
REMARK                            x       y       z     vdW  Elec       q    Type
REMARK                         _______ _______ _______ _____ _____    ______ ____
ROOT
ATOM      1  C   UNL     1      -3.472  -0.730   1.422  0.00  0.00    +0.236 C 
ATOM      2  O   UNL     1      -3.653  -1.733   2.080  0.00  0.00    -0.274 OA
ATOM      3  N   UNL     1      -4.502  -0.158   0.769  0.00  0.00    -0.298 N 
ATOM      4  C   UNL     1      -4.250   1.035  -0.011  0.00  0.00    +0.109 C 
ATOM      5  C   UNL     1      -4.466   2.288   0.875  0.00  0.00    +0.034 C 
ATOM      6  C   UNL     1      -5.901   2.438   1.184  0.00  0.00    +0.086 C 
ATOM      7  N   UNL     1      -6.473   1.329   1.946  0.00  0.00    -0.298 NA
ATOM      8  C   UNL     1      -6.941   0.286   1.057  0.00  0.00    +0.034 C 
ATOM      9  C   UNL     1      -5.838  -0.779   0.875  0.00  0.00    +0.130 C 
ATOM     10  C   UNL     1      -7.282   0.875  -0.316  0.00  0.00    +0.005 C 
ATOM     11  C   UNL     1      -7.810  -0.237  -1.225  0.00  0.00    -0.077 C 
ATOM     12  N   UNL     1      -9.017  -0.827  -0.632  0.00  0.00    +0.378 N 
ATOM     13  C   UNL     1      -8.684  -1.455   0.652  0.00  0.00    -0.077 C 
ATOM     14  C   UNL     1      -8.189  -0.389   1.633  0.00  0.00    +0.005 C 
ATOM     15  C   UNL     1      -9.564  -1.840  -1.544  0.00  0.00    -0.096 C 
ATOM     16  C   UNL     1      -7.554   1.796   2.824  0.00  0.00    +0.105 C 
ATOM     17  H   UNL     1      -9.705  -0.104  -0.483  0.00  0.00    -0.082 HD
ENDROOT
BRANCH   1  21
ATOM     18  C   UNL     1      -0.019   1.526   0.010  0.00  0.00    +0.028 C 
ATOM     19  C   UNL     1       0.002  -0.004   0.002  0.00  0.00    +0.071 C 
ATOM     20  C   UNL     1      -1.435  -0.536   0.016  0.00  0.00    +0.053 C 
ATOM     21  C   UNL     1      -2.095  -0.124   1.337  0.00  0.00    +0.160 C 
ATOM     22  N   UNL     1      -1.277  -0.604   2.452  0.00  0.00    -0.315 N 
ATOM     23  C   UNL     1       0.050  -0.754   2.330  0.00  0.00    +0.131 C 
ATOM     24  S   UNL     1       0.943  -1.306   3.683  0.00  0.00    -0.019 S 
ATOM     25  N   UNL     1       0.707  -0.490   1.189  0.00  0.00    -0.324 N 
ATOM     26  H   UNL     1      -1.704  -0.817   3.297  0.00  0.00    +0.148 HD
ATOM     27  H   UNL     1       1.667  -0.624   1.150  0.00  0.00    +0.148 HD
ENDBRANCH   1  21
TORSDOF 1
