REMARK  Name = ZINC66202774
REMARK  14 active torsions:
REMARK  status: ('A' for Active; 'I' for Inactive)
REMARK    1  A    between atoms: C_1  and  C_2
REMARK    2  A    between atoms: C_2  and  C_3
REMARK    3  A    between atoms: C_3  and  C_5
REMARK    4  A    between atoms: C_3  and  N_6
REMARK    5  A    between atoms: N_6  and  C_7
REMARK    6  A    between atoms: N_6  and  C_8
REMARK    7  A    between atoms: C_8  and  C_9
REMARK    8  A    between atoms: C_9  and  N_10
REMARK    9  A    between atoms: N_13  and  N_14
REMARK   10  A    between atoms: C_15  and  C_17
REMARK   11  A    between atoms: C_17  and  O_18
REMARK   12  A    between atoms: O_18  and  C_19
REMARK   13  A    between atoms: C_22  and  C_26
REMARK   14  A    between atoms: C_23  and  C_25
REMARK                            x       y       z     vdW  Elec       q    Type
REMARK                         _______ _______ _______ _____ _____    ______ ____
ROOT
ATOM      1  N   UNL     1       3.381   3.408  -0.538  0.00  0.00    -0.300 N 
ATOM      2  C   UNL     1       4.536   4.066  -0.313  0.00  0.00    +0.316 C 
ATOM      3  O   UNL     1       5.589   3.458  -0.303  0.00  0.00    -0.251 OA
ATOM      4  N   UNL     1       4.523   5.396  -0.099  0.00  0.00    -0.218 N 
ATOM      5  H   UNL     1       2.541   3.893  -0.546  0.00  0.00    +0.150 HD
ATOM      6  H   UNL     1       5.355   5.869   0.063  0.00  0.00    +0.174 HD
ENDROOT
BRANCH   4   7
ATOM      7  N   UNL     1       3.310   6.096  -0.111  0.00  0.00    -0.230 N 
ATOM      8  C   UNL     1       3.297   7.427   0.103  0.00  0.00    +0.267 C 
ATOM      9  O   UNL     1       4.337   8.018   0.305  0.00  0.00    -0.271 OA
ATOM     10  H   UNL     1       2.479   5.623  -0.273  0.00  0.00    +0.173 HD
BRANCH   8  11
ATOM     11  C   UNL     1       1.992   8.180   0.090  0.00  0.00    +0.326 C 
BRANCH  11  12
ATOM     12  O   UNL     1       2.239   9.565   0.339  0.00  0.00    -0.483 OA
BRANCH  12  13
ATOM     13  C   UNL     1       1.159  10.390   0.361  0.00  0.00    +0.121 A 
ATOM     14  C   UNL     1      -0.113   9.876   0.153  0.00  0.00    +0.046 A 
ATOM     15  C   UNL     1      -1.209  10.716   0.176  0.00  0.00    +0.007 A 
ATOM     16  C   UNL     1      -1.039  12.069   0.407  0.00  0.00    -0.047 A 
ATOM     17  C   UNL     1       0.227  12.584   0.615  0.00  0.00    -0.044 A 
ATOM     18  C   UNL     1       1.326  11.747   0.598  0.00  0.00    +0.049 A 
ATOM     19  C   UNL     1       0.408  14.059   0.865  0.00  0.00    +0.044 C 
ATOM     20  C   UNL     1      -2.237  12.983   0.432  0.00  0.00    +0.044 C 
ENDBRANCH  12  13
ENDBRANCH  11  12
ENDBRANCH   8  11
ENDBRANCH   4   7
BRANCH   1  21
ATOM     21  C   UNL     1       3.395   1.962  -0.771  0.00  0.00    +0.087 C 
BRANCH  21  22
ATOM     22  C   UNL     1       1.964   1.468  -0.998  0.00  0.00    -0.060 C 
BRANCH  22  23
ATOM     23  N   UNL     1       1.978   0.018  -1.231  0.00  0.00    +0.381 N 
ATOM     24  C   UNL     1       2.671  -0.268  -2.494  0.00  0.00    -0.096 C 
ATOM     25  H   UNL     1       2.460  -0.440  -0.472  0.00  0.00    -0.082 HD
BRANCH  23  26
ATOM     26  C   UNL     1       0.598  -0.479  -1.306  0.00  0.00    -0.072 C 
ATOM     27  C   UNL     1      -0.092   0.115  -2.535  0.00  0.00    -0.013 C 
BRANCH  26  29
ATOM     28  C   UNL     1       1.185  -2.604  -0.130  0.00  0.00    +0.002 C 
ATOM     29  C   UNL     1       0.610  -2.005  -1.415  0.00  0.00    -0.019 C 
ENDBRANCH  26  29
ENDBRANCH  23  26
ENDBRANCH  22  23
ENDBRANCH  21  22
ENDBRANCH   1  21
TORSDOF 9
