REMARK  Name = ZINC43367033
REMARK  7 active torsions:
REMARK  status: ('A' for Active; 'I' for Inactive)
REMARK    1  A    between atoms: C_1  and  C_2
REMARK    2  A    between atoms: C_5  and  C_7
REMARK    3  A    between atoms: C_7  and  C_9
REMARK    4  A    between atoms: C_7  and  O_13
REMARK    5  A    between atoms: C_9  and  C_11
REMARK    6  A    between atoms: C_9  and  N_12
REMARK    7  A    between atoms: O_13  and  C_14
REMARK                            x       y       z     vdW  Elec       q    Type
REMARK                         _______ _______ _______ _____ _____    ______ ____
ROOT
ATOM      1  C   UNL     1       1.675  -3.243  -0.012  0.00  0.00    +0.224 C 
ENDROOT
BRANCH   1   6
ATOM      2  C   UNL     1      -0.213   1.422   0.322  0.00  0.00    +0.086 C 
ATOM      3  C   UNL     1      -0.133  -0.080   0.230  0.00  0.00    +0.102 A 
ATOM      4  C   UNL     1      -1.180  -0.923   0.209  0.00  0.00    +0.045 A 
ATOM      5  C   UNL     1      -0.651  -2.231   0.115  0.00  0.00    +0.049 A 
ATOM      6  C   UNL     1       0.688  -2.108   0.084  0.00  0.00    +0.144 A 
ATOM      7  O   UNL     1       0.996  -0.802   0.148  0.00  0.00    -0.461 OA
ENDBRANCH   1   6
BRANCH   1   8
ATOM      8  C   UNL     1       2.158  -3.378  -1.458  0.00  0.00    -0.029 C 
ATOM      9  C   UNL     1       3.160  -4.529  -1.555  0.00  0.00    -0.010 C 
BRANCH   8  10
ATOM     10  N   UNL     1       1.011  -3.651  -2.334  0.00  0.00    +0.382 N 
ATOM     11  H   UNL     1       0.350  -2.892  -2.269  0.00  0.00    -0.089 HD
ATOM     12  H   UNL     1       1.329  -3.740  -3.287  0.00  0.00    -0.089 HD
ATOM     13  H   UNL     1       0.566  -4.510  -2.046  0.00  0.00    -0.089 HD
ENDBRANCH   8  10
ENDBRANCH   1   8
BRANCH   1  14
ATOM     14  O   UNL     1       2.791  -2.976   0.840  0.00  0.00    -0.483 OA
BRANCH  14  15
ATOM     15  C   UNL     1       3.309  -4.029   1.526  0.00  0.00    +0.123 A 
ATOM     16  C   UNL     1       4.312  -3.822   2.462  0.00  0.00    +0.047 A 
ATOM     17  C   UNL     1       4.837  -4.893   3.159  0.00  0.00    +0.025 A 
ATOM     18  C   UNL     1       4.364  -6.172   2.924  0.00  0.00    +0.059 A 
ATOM     19  C   UNL     1       3.363  -6.381   1.990  0.00  0.00    +0.063 A 
ATOM     20  C   UNL     1       2.832  -5.311   1.295  0.00  0.00    +0.067 A 
ATOM     21 CL   UNL     1       2.771  -7.986   1.697  0.00  0.00    -0.082 Cl
ATOM     22 CL   UNL     1       5.026  -7.516   3.800  0.00  0.00    -0.082 Cl
ENDBRANCH  14  15
ENDBRANCH   1  14
TORSDOF 5
