REMARK  Name = ZINC58971834
REMARK  2 active torsions:
REMARK  status: ('A' for Active; 'I' for Inactive)
REMARK    1  A    between atoms: C_4  and  C_7
REMARK    2  A    between atoms: C_12  and  C_14
REMARK                            x       y       z     vdW  Elec       q    Type
REMARK                         _______ _______ _______ _____ _____    ______ ____
ROOT
ATOM      1  C   UNL     1       2.603  -0.448  -1.852  0.00  0.00    +0.079 C 
ATOM      2  C   UNL     1       3.846   0.180  -1.188  0.00  0.00    +0.024 C 
ATOM      3  C   UNL     1       4.948  -0.883  -1.437  0.00  0.00    +0.021 C 
ATOM      4  C   UNL     1       4.141  -2.201  -1.318  0.00  0.00    +0.108 C 
ATOM      5  N   UNL     1       2.833  -1.898  -1.926  0.00  0.00    -0.298 N 
ATOM      6  C   UNL     1       1.987  -2.802  -2.460  0.00  0.00    +0.219 C 
ATOM      7  O   UNL     1       1.005  -2.429  -3.066  0.00  0.00    -0.275 OA
ENDROOT
BRANCH   6   8
ATOM      8  C   UNL     1       2.262  -4.275  -2.303  0.00  0.00    +0.078 C 
ATOM      9  C   UNL     1       3.229  -4.733  -3.397  0.00  0.00    +0.032 C 
ATOM     10  C   UNL     1       3.533  -6.223  -3.214  0.00  0.00    +0.110 C 
ATOM     11  N   UNL     1       2.265  -6.964  -3.183  0.00  0.00    -0.286 N 
ATOM     12  C   UNL     1       1.228  -6.548  -2.229  0.00  0.00    +0.110 C 
ATOM     13  C   UNL     1       0.950  -5.054  -2.423  0.00  0.00    +0.032 C 
ATOM     14  C   UNL     1       2.057  -8.005  -4.013  0.00  0.00    +0.300 C 
ATOM     15  O   UNL     1       2.882  -8.279  -4.862  0.00  0.00    -0.253 OA
ATOM     16  N   UNL     1       0.933  -8.741  -3.902  0.00  0.00    -0.313 N 
ATOM     17  H   UNL     1       0.242  -8.480  -3.274  0.00  0.00    +0.146 HD
ATOM     18  H   UNL     1       0.816  -9.532  -4.451  0.00  0.00    +0.146 HD
ENDBRANCH   6   8
BRANCH   1  22
ATOM     19  C   UNL     1      -1.398   0.800  -0.774  0.00  0.00    +0.000 C 
ATOM     20  C   UNL     1      -0.219   1.617  -0.241  0.00  0.00    +0.000 C 
ATOM     21  C   UNL     1       1.024   1.330  -1.086  0.00  0.00    +0.005 C 
ATOM     22  C   UNL     1       1.360  -0.161  -1.008  0.00  0.00    +0.010 C 
ATOM     23  C   UNL     1       0.181  -0.978  -1.540  0.00  0.00    +0.005 C 
ATOM     24  C   UNL     1      -1.062  -0.690  -0.696  0.00  0.00    +0.000 C 
ENDBRANCH   1  22
TORSDOF 2
