REMARK  Name = ZINC67602416
REMARK  12 active torsions:
REMARK  status: ('A' for Active; 'I' for Inactive)
REMARK    1  A    between atoms: C_1  and  C_2
REMARK    2  A    between atoms: C_6  and  C_28
REMARK    3  A    between atoms: C_7  and  O_8
REMARK    4  A    between atoms: O_8  and  C_9
REMARK    5  A    between atoms: C_9  and  C_10
REMARK    6  A    between atoms: C_10  and  C_12
REMARK    7  A    between atoms: C_10  and  O_27
REMARK    8  A    between atoms: C_12  and  N_13
REMARK    9  A    between atoms: N_16  and  C_17
REMARK   10  A    between atoms: C_17  and  C_18
REMARK   11  A    between atoms: N_24  and  C_25
REMARK   12  A    between atoms: N_24  and  C_26
REMARK                            x       y       z     vdW  Elec       q    Type
REMARK                         _______ _______ _______ _____ _____    ______ ____
ROOT
ATOM      1  N   UNL     1      -2.201   2.278   6.025  0.00  0.00    -0.297 N 
ATOM      2  C   UNL     1      -3.264   2.776   6.686  0.00  0.00    +0.300 C 
ATOM      3  O   UNL     1      -4.390   2.543   6.291  0.00  0.00    -0.253 OA
ATOM      4  N   UNL     1      -3.079   3.532   7.787  0.00  0.00    -0.295 N 
ATOM      5  H   UNL     1      -1.302   2.464   6.340  0.00  0.00    +0.150 HD
ATOM      6  H   UNL     1      -2.181   3.717   8.103  0.00  0.00    +0.151 HD
ENDROOT
BRANCH   1   7
ATOM      7  C   UNL     1      -2.401   1.456   4.828  0.00  0.00    +0.140 C 
BRANCH   7   8
ATOM      8  C   UNL     1      -1.043   1.022   4.274  0.00  0.00    +0.169 C 
BRANCH   8   9
ATOM      9  O   UNL     1      -0.396   0.166   5.217  0.00  0.00    -0.387 OA
ATOM     10  H   UNL     1      -0.891  -0.639   5.421  0.00  0.00    +0.210 HD
ENDBRANCH   8   9
BRANCH   8  11
ATOM     11  C   UNL     1      -1.246   0.270   2.957  0.00  0.00    +0.261 C 
BRANCH  11  12
ATOM     12  O   UNL     1       0.025  -0.033   2.381  0.00  0.00    -0.489 OA
BRANCH  12  19
ATOM     13  C   UNL     1      -0.018   1.503   0.010  0.00  0.00    +0.047 C 
ATOM     14  C   UNL     1       0.002  -0.004   0.002  0.00  0.00    -0.009 A 
ATOM     15  C   UNL     1       0.006  -0.689  -1.198  0.00  0.00    +0.007 A 
ATOM     16  C   UNL     1       0.024  -2.071  -1.206  0.00  0.00    +0.001 A 
ATOM     17  C   UNL     1       0.040  -2.772  -0.014  0.00  0.00    +0.007 A 
ATOM     18  C   UNL     1       0.036  -2.092   1.188  0.00  0.00    -0.009 A 
ATOM     19  C   UNL     1       0.023  -0.705   1.199  0.00  0.00    +0.126 A 
ATOM     20  C   UNL     1       0.052  -2.856   2.487  0.00  0.00    +0.047 C 
ENDBRANCH  12  19
ENDBRANCH  11  12
ENDBRANCH   8  11
ENDBRANCH   7   8
ENDBRANCH   1   7
BRANCH   4  21
ATOM     21  C   UNL     1      -4.235   4.073   8.506  0.00  0.00    +0.142 C 
BRANCH  21  22
ATOM     22  C   UNL     1      -3.760   4.875   9.690  0.00  0.00    -0.014 A 
ATOM     23  C   UNL     1      -3.569   4.263  10.922  0.00  0.00    +0.010 A 
ATOM     24  C   UNL     1      -3.132   5.035  11.982  0.00  0.00    +0.042 A 
ATOM     25  C   UNL     1      -2.899   6.392  11.780  0.00  0.00    +0.098 A 
ATOM     26  N   UNL     1      -3.092   6.939  10.590  0.00  0.00    -0.349 N 
ATOM     27  C   UNL     1      -3.504   6.225   9.559  0.00  0.00    +0.089 A 
ATOM     28  N   UNL     1      -2.459   7.181  12.837  0.00  0.00    -0.323 N 
ATOM     29  C   UNL     1      -2.244   6.582  14.157  0.00  0.00    +0.130 C 
ATOM     30  C   UNL     1      -2.212   8.610  12.632  0.00  0.00    +0.130 C 
ATOM     31  H   UNL     1      -2.924   7.887  10.472  0.00  0.00    +0.167 HD
ENDBRANCH  21  22
ENDBRANCH   4  21
TORSDOF 8
