REMARK  Name = ZINC39666889
REMARK  9 active torsions:
REMARK  status: ('A' for Active; 'I' for Inactive)
REMARK    1  A    between atoms: C_1  and  C_2
REMARK    2  A    between atoms: C_2  and  C_3
REMARK    3  A    between atoms: C_3  and  C_4
REMARK    4  A    between atoms: C_3  and  C_6
REMARK    5  A    between atoms: C_4  and  C_5
REMARK    6  A    between atoms: C_6  and  N_7
REMARK    7  A    between atoms: C_8  and  C_10
REMARK    8  A    between atoms: C_21  and  C_23
REMARK    9  A    between atoms: C_26  and  C_28
REMARK                            x       y       z     vdW  Elec       q    Type
REMARK                         _______ _______ _______ _____ _____    ______ ____
ROOT
ATOM      1  C   UNL     1      -4.099  -5.392   0.150  0.00  0.00    +0.100 C 
ATOM      2  C   UNL     1      -4.867  -5.075   1.453  0.00  0.00    +0.121 C 
ATOM      3  N   UNL     1      -5.498  -6.360   1.837  0.00  0.00    -0.294 N 
ATOM      4  C   UNL     1      -4.471  -7.383   1.526  0.00  0.00    +0.115 C 
ATOM      5  C   UNL     1      -3.841  -6.907   0.202  0.00  0.00    -0.004 C 
ATOM      6  C   UNL     1      -4.512  -7.599  -0.980  0.00  0.00    -0.010 C 
ATOM      7  C   UNL     1      -4.194  -9.096  -0.938  0.00  0.00    -0.082 C 
ATOM      8  N   UNL     1      -2.740  -9.291  -0.993  0.00  0.00    +0.379 N 
ATOM      9  C   UNL     1      -2.111  -8.703   0.196  0.00  0.00    -0.082 C 
ATOM     10  C   UNL     1      -2.341  -7.189   0.202  0.00  0.00    -0.010 C 
ATOM     11  C   UNL     1      -6.728  -6.554   2.353  0.00  0.00    +0.282 C 
ATOM     12  O   UNL     1      -7.105  -7.680   2.620  0.00  0.00    -0.267 OA
ATOM     13  H   UNL     1      -2.535 -10.278  -1.026  0.00  0.00    -0.086 HD
ATOM     14  H   UNL     1      -2.374  -8.846  -1.821  0.00  0.00    -0.086 HD
ENDROOT
BRANCH  11  15
ATOM     15  C   UNL     1      -7.611  -5.410   2.593  0.00  0.00    +0.190 A 
ATOM     16  C   UNL     1      -8.883  -5.466   3.118  0.00  0.00    +0.055 A 
ATOM     17  C   UNL     1      -9.356  -4.151   3.173  0.00  0.00    +0.050 A 
ATOM     18  C   UNL     1      -8.365  -3.348   2.684  0.00  0.00    +0.136 A 
ATOM     19  O   UNL     1      -7.317  -4.116   2.344  0.00  0.00    -0.450 OA
BRANCH  18  20
ATOM     20  C   UNL     1      -8.432  -1.878   2.557  0.00  0.00    +0.017 A 
ATOM     21  C   UNL     1      -9.581  -1.192   2.959  0.00  0.00    +0.014 A 
ATOM     22  C   UNL     1      -9.638   0.180   2.839  0.00  0.00    +0.039 A 
ATOM     23  C   UNL     1      -8.559   0.879   2.320  0.00  0.00    +0.123 A 
ATOM     24  C   UNL     1      -7.417   0.203   1.919  0.00  0.00    +0.039 A 
ATOM     25  C   UNL     1      -7.346  -1.169   2.040  0.00  0.00    +0.014 A 
ATOM     26  F   UNL     1      -8.620   2.223   2.204  0.00  0.00    -0.205 F 
ENDBRANCH  18  20
ENDBRANCH  11  15
BRANCH   1  28
ATOM     27  N   UNL     1      -2.253  -4.286  -1.069  0.00  0.00    -0.315 N 
ATOM     28  C   UNL     1      -2.795  -4.639   0.113  0.00  0.00    +0.218 C 
ATOM     29  O   UNL     1      -2.232  -4.349   1.148  0.00  0.00    -0.275 OA
ATOM     30  H   UNL     1      -2.703  -4.518  -1.897  0.00  0.00    +0.149 HD
BRANCH  27  31
ATOM     31  C   UNL     1      -0.985  -3.554  -1.105  0.00  0.00    +0.107 C 
BRANCH  31  32
ATOM     32  C   UNL     1      -0.529  -3.393  -2.557  0.00  0.00    +0.006 C 
BRANCH  32  34
ATOM     33  C   UNL     1       1.116  -2.263  -4.060  0.00  0.00    +0.004 C 
ATOM     34  C   UNL     1       0.732  -2.528  -2.603  0.00  0.00    +0.002 C 
ENDBRANCH  32  34
BRANCH  32  35
ATOM     35  C   UNL     1      -0.226  -4.769  -3.152  0.00  0.00    +0.002 C 
ATOM     36  C   UNL     1       0.888  -5.439  -2.346  0.00  0.00    +0.004 C 
ENDBRANCH  32  35
ENDBRANCH  31  32
ENDBRANCH  27  31
ENDBRANCH   1  28
TORSDOF 7
