REMARK  Name = ZINC14548543
REMARK  3 active torsions:
REMARK  status: ('A' for Active; 'I' for Inactive)
REMARK    1  A    between atoms: C_3  and  C_6
REMARK    2  A    between atoms: C_17  and  N_23
REMARK    3  A    between atoms: C_19  and  O_22
REMARK                            x       y       z     vdW  Elec       q    Type
REMARK                         _______ _______ _______ _____ _____    ______ ____
ROOT
ATOM      1  C   UNL     1       0.002  -0.004   0.002  0.00  0.00    +0.112 C 
ATOM      2  C   UNL     1       0.247  -0.503  -1.424  0.00  0.00    +0.029 C 
ATOM      3  C   UNL     1      -1.010  -0.157  -2.272  0.00  0.00    +0.033 C 
ATOM      4  C   UNL     1      -1.973  -1.285  -1.956  0.00  0.00    -0.030 C 
ATOM      5  C   UNL     1      -1.325  -2.328  -1.500  0.00  0.00    -0.023 C 
ATOM      6  C   UNL     1       0.158  -2.044  -1.437  0.00  0.00    +0.049 C 
ATOM      7  C   UNL     1       0.758  -2.642  -0.199  0.00  0.00    -0.014 A 
ATOM      8  C   UNL     1       0.890  -4.025  -0.141  0.00  0.00    +0.039 A 
ATOM      9  C   UNL     1       1.428  -4.636   0.972  0.00  0.00    +0.130 A 
ATOM     10  C   UNL     1       1.844  -3.873   2.048  0.00  0.00    +0.080 A 
ATOM     11  C   UNL     1       1.720  -2.497   2.002  0.00  0.00    +0.140 A 
ATOM     12  C   UNL     1       1.175  -1.876   0.873  0.00  0.00    +0.074 A 
ATOM     13  N   UNL     1       1.074  -0.482   0.876  0.00  0.00    -0.333 N 
ATOM     14  H   UNL     1       1.955  -0.055   0.634  0.00  0.00    +0.147 HD
ENDROOT
BRANCH   1  17
ATOM     15  C   UNL     1      -0.861   3.706   0.029  0.00  0.00    +0.008 A 
ATOM     16  C   UNL     1      -1.083   2.342   0.019  0.00  0.00    +0.013 A 
ATOM     17  C   UNL     1      -0.018   1.503   0.010  0.00  0.00    +0.010 A 
ATOM     18  S   UNL     1       1.353   2.646   0.003  0.00  0.00    -0.100 S 
ATOM     19  C   UNL     1       0.415   4.165   0.020  0.00  0.00    +0.045 A 
ENDBRANCH   1  17
BRANCH   9  20
ATOM     20  N   UNL     1       1.560  -6.110   1.014  0.00  0.00    +0.057 N 
ATOM     21  O   UNL     1       1.193  -6.782   0.067  0.00  0.00    -0.126 OA
ATOM     22  O   UNL     1       2.035  -6.650   1.997  0.00  0.00    -0.126 OA
ENDBRANCH   9  20
BRANCH  11  23
ATOM     23  O   UNL     1       2.129  -1.744   3.058  0.00  0.00    -0.505 OA
ATOM     24  H   UNL     1       1.441  -1.587   3.719  0.00  0.00    +0.292 HD
ENDBRANCH  11  23
TORSDOF 3
