REMARK  Name = ZINC53865739
REMARK  9 active torsions:
REMARK  status: ('A' for Active; 'I' for Inactive)
REMARK    1  A    between atoms: C_1  and  C_2
REMARK    2  A    between atoms: C_2  and  C_3
REMARK    3  A    between atoms: C_2  and  C_4
REMARK    4  A    between atoms: C_2  and  C_5
REMARK    5  A    between atoms: C_9  and  N_22
REMARK    6  A    between atoms: C_11  and  C_14
REMARK    7  A    between atoms: C_14  and  N_15
REMARK    8  A    between atoms: N_15  and  C_16
REMARK    9  A    between atoms: N_15  and  C_17
REMARK                            x       y       z     vdW  Elec       q    Type
REMARK                         _______ _______ _______ _____ _____    ______ ____
ROOT
ATOM      1  C   UNL     1       0.718  -0.497  -1.257  0.00  0.00    -0.005 C 
ATOM      2  C   UNL     1       0.739  -2.027  -1.265  0.00  0.00    +0.002 C 
ATOM      3  C   UNL     1       1.455  -2.521  -2.524  0.00  0.00    -0.016 C 
ATOM      4  C   UNL     1       2.890  -1.991  -2.535  0.00  0.00    -0.074 C 
ATOM      5  C   UNL     1       2.870  -0.461  -2.526  0.00  0.00    -0.042 C 
ATOM      6  C   UNL     1       2.154   0.032  -1.268  0.00  0.00    +0.004 C 
ENDROOT
BRANCH   1   8
ATOM      7  C   UNL     1      -0.019   1.526   0.010  0.00  0.00    +0.011 C 
ATOM      8  C   UNL     1       0.002  -0.004   0.002  0.00  0.00    -0.035 C 
ATOM      9  C   UNL     1       0.742  -0.511   1.242  0.00  0.00    +0.011 C 
ATOM     10  C   UNL     1      -1.433  -0.534   0.013  0.00  0.00    +0.011 C 
ENDBRANCH   1   8
BRANCH   4  11
ATOM     11  N   UNL     1       3.601  -2.478  -1.345  0.00  0.00    +0.380 N 
ATOM     12  H   UNL     1       3.615  -3.487  -1.350  0.00  0.00    -0.090 HD
ATOM     13  H   UNL     1       4.548  -2.128  -1.352  0.00  0.00    -0.090 HD
ATOM     14  H   UNL     1       3.129  -2.152  -0.515  0.00  0.00    -0.090 HD
ENDBRANCH   4  11
BRANCH   5  15
ATOM     15  C   UNL     1       4.305   0.068  -2.537  0.00  0.00    -0.077 C 
BRANCH  15  16
ATOM     16  N   UNL     1       4.286   1.533  -2.650  0.00  0.00    +0.380 N 
ATOM     17  C   UNL     1       3.720   1.917  -3.950  0.00  0.00    -0.096 C 
ATOM     18  H   UNL     1       3.720   1.920  -1.910  0.00  0.00    -0.082 HD
BRANCH  16  19
ATOM     19  C   UNL     1       5.656   2.050  -2.540  0.00  0.00    -0.069 C 
ATOM     20  C   UNL     1       6.238   1.716  -1.151  0.00  0.00    -0.015 C 
ATOM     21  C   UNL     1       7.084   2.960  -0.784  0.00  0.00    -0.002 C 
ATOM     22  C   UNL     1       6.230   4.129  -1.334  0.00  0.00    -0.002 C 
ATOM     23  C   UNL     1       5.651   3.585  -2.657  0.00  0.00    -0.015 C 
ENDBRANCH  16  19
ENDBRANCH  15  16
ENDBRANCH   5  15
TORSDOF 5
