REMARK  Name = ZINC20027349
REMARK  5 active torsions:
REMARK  status: ('A' for Active; 'I' for Inactive)
REMARK    1  A    between atoms: C_1  and  C_2
REMARK    2  A    between atoms: C_7  and  C_8
REMARK    3  A    between atoms: N_9  and  C_12
REMARK    4  A    between atoms: C_12  and  C_13
REMARK    5  A    between atoms: C_16  and  C_20
REMARK                            x       y       z     vdW  Elec       q    Type
REMARK                         _______ _______ _______ _____ _____    ______ ____
ROOT
ATOM      1  C   UNL     1      -1.478  -1.297   1.426  0.00  0.00    +0.007 A 
ATOM      2  C   UNL     1      -0.988  -2.492   1.921  0.00  0.00    +0.009 A 
ATOM      3  C   UNL     1      -1.266  -2.870   3.219  0.00  0.00    +0.012 A 
ATOM      4  C   UNL     1      -2.051  -2.051   4.029  0.00  0.00    +0.015 A 
ATOM      5  C   UNL     1      -2.547  -0.849   3.525  0.00  0.00    +0.050 A 
ATOM      6  C   UNL     1      -2.258  -0.478   2.225  0.00  0.00    +0.129 A 
ATOM      7  F   UNL     1      -2.737   0.686   1.733  0.00  0.00    -0.205 F 
ENDROOT
BRANCH   4   8
ATOM      8  C   UNL     1      -2.358  -2.455   5.420  0.00  0.00    +0.094 C 
ATOM      9  N   UNL     1      -3.092  -1.688   6.175  0.00  0.00    -0.387 N 
ATOM     10  N   UNL     1      -1.867  -3.643   5.917  0.00  0.00    -0.345 N 
ATOM     11  H   UNL     1      -3.320  -1.988   7.208  0.00  0.00    +0.157 HD
ATOM     12  H   UNL     1      -2.094  -3.943   6.950  0.00  0.00    +0.144 HD
ATOM     13  H   UNL     1      -1.247  -4.291   5.280  0.00  0.00    +0.144 HD
ATOM     14  H   UNL     1      -3.484  -0.740   5.779  0.00  0.00    +0.157 HD
ENDBRANCH   4   8
BRANCH   1  15
ATOM     15  C   UNL     1      -1.166  -0.888   0.009  0.00  0.00    +0.161 C 
BRANCH  15  24
ATOM     16  C   UNL     1       5.598  -0.581  -0.053  0.00  0.00    +0.044 C 
ATOM     17  C   UNL     1       4.093  -0.506  -0.039  0.00  0.00    -0.045 A 
ATOM     18  C   UNL     1       3.477   0.713  -0.027  0.00  0.00    +0.033 A 
ATOM     19  C   UNL     1       2.082   0.788  -0.014  0.00  0.00    +0.089 A 
ATOM     20  C   UNL     1       1.326  -0.397  -0.013  0.00  0.00    +0.069 A 
ATOM     21  C   UNL     1       1.969  -1.626  -0.025  0.00  0.00    +0.031 A 
ATOM     22  C   UNL     1       3.347  -1.676  -0.038  0.00  0.00    -0.045 A 
ATOM     23  C   UNL     1       4.048  -3.010  -0.051  0.00  0.00    +0.044 C 
ATOM     24  N   UNL     1       0.002  -0.004   0.002  0.00  0.00    -0.326 N 
ATOM     25  C   UNL     1      -0.016   1.356   0.009  0.00  0.00    +0.200 A 
ATOM     26  N   UNL     1       1.199   1.820   0.000  0.00  0.00    -0.236 NA
ENDBRANCH  15  24
ENDBRANCH   1  15
TORSDOF 3
