REMARK  Name = ZINC07665017
REMARK  5 active torsions:
REMARK  status: ('A' for Active; 'I' for Inactive)
REMARK    1  A    between atoms: C_3  and  N_17
REMARK    2  A    between atoms: C_6  and  C_7
REMARK    3  A    between atoms: C_7  and  S_8
REMARK    4  A    between atoms: S_8  and  C_9
REMARK    5  A    between atoms: N_10  and  C_11
REMARK                            x       y       z     vdW  Elec       q    Type
REMARK                         _______ _______ _______ _____ _____    ______ ____
ROOT
ATOM      1  S   UNL     1      -1.828  -1.075  -1.697  0.00  0.00    -0.088 S 
ENDROOT
BRANCH   1   2
ATOM      2  C   UNL     1      -3.334  -1.974  -1.519  0.00  0.00    +0.126 C 
ATOM      3  N   UNL     1      -3.994  -2.356  -2.577  0.00  0.00    -0.365 N 
ATOM      4  N   UNL     1      -3.812  -2.273  -0.265  0.00  0.00    -0.339 N 
ATOM      5  H   UNL     1      -3.321  -1.989   0.522  0.00  0.00    +0.144 HD
ATOM      6  H   UNL     1      -4.641  -2.768  -0.167  0.00  0.00    +0.144 HD
ATOM      7  H   UNL     1      -4.823  -2.850  -2.479  0.00  0.00    +0.162 HD
BRANCH   3   8
ATOM      8  C   UNL     1      -3.484  -2.037  -3.913  0.00  0.00    +0.081 C 
ATOM      9  C   UNL     1      -3.998  -0.653  -4.359  0.00  0.00    +0.024 C 
ATOM     10  C   UNL     1      -4.264  -0.817  -5.876  0.00  0.00    +0.002 C 
ATOM     11  C   UNL     1      -4.837  -2.253  -5.969  0.00  0.00    +0.002 C 
ATOM     12  C   UNL     1      -4.017  -3.055  -4.937  0.00  0.00    +0.024 C 
ENDBRANCH   3   8
ENDBRANCH   1   2
BRANCH   1  13
ATOM     13  C   UNL     1      -1.293  -0.775   0.010  0.00  0.00    +0.112 C 
BRANCH  13  19
ATOM     14  C   UNL     1      -0.017   1.378   0.010  0.00  0.00    +0.007 A 
ATOM     15  C   UNL     1       1.171   2.086   0.002  0.00  0.00    +0.033 A 
ATOM     16  C   UNL     1       2.377   1.411  -0.013  0.00  0.00    +0.126 A 
ATOM     17  C   UNL     1       2.396   0.029  -0.020  0.00  0.00    +0.033 A 
ATOM     18  C   UNL     1       1.208  -0.679  -0.012  0.00  0.00    +0.007 A 
ATOM     19  C   UNL     1       0.002  -0.004   0.002  0.00  0.00    -0.037 A 
BRANCH  16  20
ATOM     20  N   UNL     1       3.649   2.168  -0.022  0.00  0.00    +0.056 N 
ATOM     21  O   UNL     1       3.633   3.377  -0.016  0.00  0.00    -0.126 OA
ATOM     22  O   UNL     1       4.704   1.578  -0.035  0.00  0.00    -0.126 OA
ENDBRANCH  16  20
ENDBRANCH  13  19
ENDBRANCH   1  13
TORSDOF 5
