REMARK  Name = ZINC44531362
REMARK  7 active torsions:
REMARK  status: ('A' for Active; 'I' for Inactive)
REMARK    1  A    between atoms: C_1  and  C_2
REMARK    2  A    between atoms: C_2  and  N_3
REMARK    3  A    between atoms: C_7  and  C_9
REMARK    4  A    between atoms: C_9  and  C_11
REMARK    5  A    between atoms: C_9  and  N_12
REMARK    6  A    between atoms: C_16  and  C_19
REMARK    7  A    between atoms: C_19  and  N_20
REMARK                            x       y       z     vdW  Elec       q    Type
REMARK                         _______ _______ _______ _____ _____    ______ ____
ROOT
ATOM      1  C   UNL     1      -4.507  -4.156   0.023  0.00  0.00    +0.140 C 
ATOM      2  C   UNL     1      -5.247  -3.649  -1.217  0.00  0.00    +0.034 C 
ENDROOT
BRANCH   1   7
ATOM      3  N   UNL     1      -1.372  -0.511   0.012  0.00  0.00    -0.299 N 
ATOM      4  C   UNL     1      -1.601  -1.839   0.007  0.00  0.00    +0.306 C 
ATOM      5  O   UNL     1      -0.666  -2.617  -0.006  0.00  0.00    -0.252 OA
ATOM      6  N   UNL     1      -2.865  -2.306   0.017  0.00  0.00    -0.239 N 
ATOM      7  C   UNL     1      -3.093  -3.634   0.012  0.00  0.00    +0.237 C 
ATOM      8  O   UNL     1      -2.161  -4.409  -0.001  0.00  0.00    -0.274 OA
ATOM      9  H   UNL     1      -2.118   0.109   0.023  0.00  0.00    +0.150 HD
ATOM     10  H   UNL     1      -3.611  -1.686   0.028  0.00  0.00    +0.159 HD
BRANCH   3  12
ATOM     11  C   UNL     1      -0.019   1.526   0.010  0.00  0.00    +0.024 C 
ATOM     12  C   UNL     1       0.002  -0.004   0.002  0.00  0.00    +0.102 C 
ENDBRANCH   3  12
ENDBRANCH   1   7
BRANCH   1  13
ATOM     13  N   UNL     1      -4.487  -5.625   0.015  0.00  0.00    -0.292 NA
ATOM     14  C   UNL     1      -3.822  -6.135  -1.191  0.00  0.00    +0.085 C 
ATOM     15  C   UNL     1      -3.691  -7.657  -1.097  0.00  0.00    +0.016 C 
ATOM     16  C   UNL     1      -5.084  -8.277  -0.958  0.00  0.00    +0.004 C 
ATOM     17  C   UNL     1      -5.773  -7.693   0.278  0.00  0.00    -0.014 C 
ATOM     18  C   UNL     1      -5.844  -6.170   0.144  0.00  0.00    +0.086 C 
BRANCH  17  19
ATOM     19  C   UNL     1      -7.188  -8.263   0.392  0.00  0.00    -0.082 C 
BRANCH  19  20
ATOM     20  N   UNL     1      -7.115  -9.710   0.636  0.00  0.00    +0.378 N 
ATOM     21  H   UNL     1      -8.048 -10.086   0.711  0.00  0.00    -0.090 HD
ATOM     22  H   UNL     1      -6.633 -10.156  -0.130  0.00  0.00    -0.090 HD
ATOM     23  H   UNL     1      -6.613  -9.881   1.495  0.00  0.00    -0.090 HD
ENDBRANCH  19  20
ENDBRANCH  17  19
ENDBRANCH   1  13
TORSDOF 5
