REMARK  Name = ZINC62241769
REMARK  7 active torsions:
REMARK  status: ('A' for Active; 'I' for Inactive)
REMARK    1  A    between atoms: C_1  and  C_2
REMARK    2  A    between atoms: C_2  and  O_3
REMARK    3  A    between atoms: O_3  and  C_4
REMARK    4  A    between atoms: C_9  and  N_10
REMARK    5  A    between atoms: C_11  and  C_17
REMARK    6  A    between atoms: C_12  and  C_15
REMARK    7  A    between atoms: C_15  and  N_16
REMARK                            x       y       z     vdW  Elec       q    Type
REMARK                         _______ _______ _______ _____ _____    ______ ____
ROOT
ATOM      1  N   UNL     1       1.939  -1.474  -3.437  0.00  0.00    -0.209 N 
ATOM      2  C   UNL     1       2.683  -1.842  -4.525  0.00  0.00    +0.096 A 
ATOM      3  C   UNL     1       3.005  -0.678  -5.165  0.00  0.00    +0.074 A 
ATOM      4  N   UNL     1       2.456   0.308  -4.451  0.00  0.00    -0.135 NA
ATOM      5  N   UNL     1       1.832  -0.191  -3.445  0.00  0.00    -0.060 NA
ENDROOT
BRANCH   1  11
ATOM      6  C   UNL     1       0.052  -2.207  -2.108  0.00  0.00    +0.146 A 
ATOM      7  C   UNL     1      -0.490  -3.071  -1.169  0.00  0.00    +0.048 A 
ATOM      8  C   UNL     1       0.294  -4.060  -0.605  0.00  0.00    +0.004 A 
ATOM      9  C   UNL     1       1.621  -4.190  -0.975  0.00  0.00    +0.002 A 
ATOM     10  C   UNL     1       2.169  -3.333  -1.909  0.00  0.00    +0.031 A 
ATOM     11  C   UNL     1       1.387  -2.341  -2.484  0.00  0.00    +0.109 A 
BRANCH   6  12
ATOM     12  O   UNL     1      -0.718  -1.234  -2.663  0.00  0.00    -0.490 OA
BRANCH  12  14
ATOM     13  C   UNL     1      -2.780  -0.010  -2.959  0.00  0.00    +0.048 C 
ATOM     14  C   UNL     1      -2.077  -1.156  -2.229  0.00  0.00    +0.226 C 
ENDBRANCH  12  14
ENDBRANCH   6  12
ENDBRANCH   1  11
BRANCH   2  15
ATOM     15  C   UNL     1       3.060  -3.216  -4.926  0.00  0.00    +0.002 A 
ATOM     16  C   UNL     1       4.400  -3.541  -5.137  0.00  0.00    +0.010 A 
ATOM     17  C   UNL     1       4.745  -4.824  -5.510  0.00  0.00    +0.001 A 
ATOM     18  C   UNL     1       3.766  -5.786  -5.676  0.00  0.00    +0.000 A 
ATOM     19  C   UNL     1       2.435  -5.470  -5.470  0.00  0.00    +0.001 A 
ATOM     20  C   UNL     1       2.077  -4.192  -5.090  0.00  0.00    +0.010 A 
ENDBRANCH   2  15
BRANCH   3  21
ATOM     21  C   UNL     1       3.820  -0.535  -6.425  0.00  0.00    -0.026 C 
BRANCH  21  22
ATOM     22  N   UNL     1       2.920  -0.466  -7.584  0.00  0.00    +0.382 N 
ATOM     23  H   UNL     1       3.459  -0.290  -8.418  0.00  0.00    -0.090 HD
ATOM     24  H   UNL     1       2.428  -1.342  -7.680  0.00  0.00    -0.090 HD
ATOM     25  H   UNL     1       2.255   0.281  -7.450  0.00  0.00    -0.090 HD
ENDBRANCH  21  22
ENDBRANCH   3  21
TORSDOF 6
