REMARK  Name = ZINC39763567
REMARK  8 active torsions:
REMARK  status: ('A' for Active; 'I' for Inactive)
REMARK    1  A    between atoms: C_1  and  C_2
REMARK    2  A    between atoms: C_2  and  N_3
REMARK    3  A    between atoms: C_7  and  C_9
REMARK    4  A    between atoms: C_9  and  C_11
REMARK    5  A    between atoms: C_9  and  S_12
REMARK    6  A    between atoms: S_12  and  C_13
REMARK    7  A    between atoms: C_17  and  C_22
REMARK    8  A    between atoms: N_18  and  C_19
REMARK                            x       y       z     vdW  Elec       q    Type
REMARK                         _______ _______ _______ _____ _____    ______ ____
ROOT
ATOM      1  C   UNL     1       2.515  -6.021  -5.938  0.00  0.00    +0.238 C 
ATOM      2  N   UNL     1       3.946  -5.787  -5.681  0.00  0.00    -0.237 N 
ATOM      3  N   UNL     1       4.394  -4.919  -6.683  0.00  0.00    -0.169 NA
ATOM      4  C   UNL     1       3.427  -4.602  -7.504  0.00  0.00    +0.147 C 
ATOM      5  N   UNL     1       2.226  -5.224  -7.142  0.00  0.00    -0.282 N 
ATOM      6  H   UNL     1       4.474  -6.162  -4.958  0.00  0.00    +0.171 HD
ENDROOT
BRANCH   4   7
ATOM      7  C   UNL     1       3.574  -3.748  -8.607  0.00  0.00    +0.022 C 
ATOM      8  C   UNL     1       4.756  -3.177  -9.080  0.00  0.00    +0.006 A 
ATOM      9  C   UNL     1       6.096  -3.260  -8.645  0.00  0.00    +0.010 A 
ATOM     10  C   UNL     1       7.064  -2.583  -9.313  0.00  0.00    +0.001 A 
ATOM     11  C   UNL     1       6.770  -1.799 -10.431  0.00  0.00    +0.002 A 
ATOM     12  C   UNL     1       5.506  -1.674 -10.904  0.00  0.00    +0.026 A 
ATOM     13  C   UNL     1       4.440  -2.352 -10.258  0.00  0.00    +0.043 A 
ATOM     14  N   UNL     1       3.148  -2.394 -10.517  0.00  0.00    -0.380 N 
ATOM     15  C   UNL     1       2.485  -3.259  -9.536  0.00  0.00    +0.152 C 
ATOM     16  H   UNL     1       2.706  -1.929 -11.245  0.00  0.00    +0.160 HD
ENDBRANCH   4   7
BRANCH   5  17
ATOM     17  C   UNL     1       0.935  -5.107  -7.825  0.00  0.00    +0.078 C 
ATOM     18  C   UNL     1      -0.266  -5.814  -7.193  0.00  0.00    +0.024 C 
ATOM     19  C   UNL     1       0.361  -6.368  -8.474  0.00  0.00    +0.024 C 
ENDBRANCH   5  17
BRANCH   1  20
ATOM     20  S   UNL     1       1.516  -5.442  -4.539  0.00  0.00    -0.106 S 
BRANCH  20  21
ATOM     21  C   UNL     1       1.972  -3.694  -4.368  0.00  0.00    +0.133 C 
ATOM     22  C   UNL     1       3.444  -3.588  -3.967  0.00  0.00    +0.029 C 
BRANCH  21  27
ATOM     23  N   UNL     1      -0.096   0.178  -2.409  0.00  0.00    -0.299 N 
ATOM     24  C   UNL     1       0.126  -1.151  -2.383  0.00  0.00    +0.306 C 
ATOM     25  O   UNL     1      -0.364  -1.833  -1.504  0.00  0.00    -0.252 OA
ATOM     26  N   UNL     1       0.892  -1.724  -3.332  0.00  0.00    -0.239 N 
ATOM     27  C   UNL     1       1.115  -3.053  -3.307  0.00  0.00    +0.233 C 
ATOM     28  O   UNL     1       0.626  -3.733  -2.430  0.00  0.00    -0.274 OA
ATOM     29  H   UNL     1       0.295   0.722  -3.110  0.00  0.00    +0.150 HD
ATOM     30  H   UNL     1       1.284  -1.180  -4.034  0.00  0.00    +0.159 HD
BRANCH  23  32
ATOM     31  C   UNL     1      -1.021   2.306  -1.636  0.00  0.00    +0.024 C 
ATOM     32  C   UNL     1      -0.929   0.801  -1.377  0.00  0.00    +0.102 C 
ENDBRANCH  23  32
ENDBRANCH  21  27
ENDBRANCH  20  21
ENDBRANCH   1  20
TORSDOF 6
