REMARK  Name = ZINC57926955
REMARK  2 active torsions:
REMARK  status: ('A' for Active; 'I' for Inactive)
REMARK    1  A    between atoms: C_1  and  C_2
REMARK    2  A    between atoms: C_2  and  C_3
REMARK                            x       y       z     vdW  Elec       q    Type
REMARK                         _______ _______ _______ _____ _____    ______ ____
ROOT
ATOM      1  C   UNL     1       0.742  -0.511   1.242  0.00  0.00    +0.157 C 
ATOM      2  C   UNL     1       0.662  -2.015   1.297  0.00  0.00    +0.237 C 
ATOM      3  O   UNL     1      -0.251  -2.546   1.894  0.00  0.00    -0.273 OA
ATOM      4  N   UNL     1       1.591  -2.777   0.691  0.00  0.00    -0.282 N 
ATOM      5  C   UNL     1       2.731  -2.199   0.115  0.00  0.00    +0.058 A 
ATOM      6  C   UNL     1       3.578  -2.955  -0.679  0.00  0.00    +0.074 A 
ATOM      7  C   UNL     1       4.697  -2.370  -1.251  0.00  0.00    +0.168 A 
ATOM      8  C   UNL     1       4.971  -1.023  -1.030  0.00  0.00    +0.168 A 
ATOM      9  C   UNL     1       4.126  -0.265  -0.233  0.00  0.00    +0.074 A 
ATOM     10  C   UNL     1       3.012  -0.852   0.341  0.00  0.00    +0.053 A 
ATOM     11  N   UNL     1       2.154  -0.107   1.171  0.00  0.00    -0.331 N 
ATOM     12  O   UNL     1       6.115  -0.694  -1.700  0.00  0.00    -0.453 OA
ATOM     13  C   UNL     1       6.760  -1.946  -1.996  0.00  0.00    +0.466 C 
ATOM     14  O   UNL     1       5.671  -2.886  -2.058  0.00  0.00    -0.453 OA
ATOM     15  H   UNL     1       1.471  -3.738   0.653  0.00  0.00    +0.155 HD
ATOM     16  H   UNL     1       2.483   0.649   1.682  0.00  0.00    +0.147 HD
ENDROOT
BRANCH   1  18
ATOM     17  C   UNL     1      -0.019   1.526   0.010  0.00  0.00    +0.006 C 
ATOM     18  C   UNL     1       0.002  -0.004   0.002  0.00  0.00    +0.028 C 
ENDBRANCH   1  18
TORSDOF 1
