REMARK  Name = ZINC43284235
REMARK  7 active torsions:
REMARK  status: ('A' for Active; 'I' for Inactive)
REMARK    1  A    between atoms: C_1  and  C_2
REMARK    2  A    between atoms: C_2  and  C_4
REMARK    3  A    between atoms: C_2  and  N_22
REMARK    4  A    between atoms: C_4  and  C_6
REMARK    5  A    between atoms: C_4  and  S_12
REMARK    6  A    between atoms: S_12  and  C_13
REMARK    7  A    between atoms: C_19  and  N_21
REMARK                            x       y       z     vdW  Elec       q    Type
REMARK                         _______ _______ _______ _____ _____    ______ ____
ROOT
ATOM      1  C   UNL     1       0.849  -0.513   1.170  0.00  0.00    +0.076 C 
ENDROOT
BRANCH   1   2
ATOM      2  C   UNL     1       0.955  -1.990   0.889  0.00  0.00    +0.003 A 
ATOM      3  C   UNL     1       0.604  -3.036   1.676  0.00  0.00    +0.013 A 
ATOM      4  C   UNL     1       0.794  -4.322   1.207  0.00  0.00    +0.023 A 
ATOM      5  C   UNL     1       1.325  -4.499  -0.029  0.00  0.00    +0.055 A 
ATOM      6  S   UNL     1       1.568  -2.815  -0.570  0.00  0.00    -0.085 S 
ATOM      7 BR   UNL     1       1.704  -6.111  -0.943  0.00  0.00    -0.043 Br
ENDBRANCH   1   2
BRANCH   1   9
ATOM      8  C   UNL     1      -0.210   1.630   0.443  0.00  0.00    -0.013 C 
ATOM      9  C   UNL     1      -0.058   0.141   0.126  0.00  0.00    -0.060 C 
BRANCH   9  10
ATOM     10  N   UNL     1      -1.378  -0.502   0.153  0.00  0.00    +0.381 N 
ATOM     11  H   UNL     1      -1.787  -0.394   1.069  0.00  0.00    -0.090 HD
ATOM     12  H   UNL     1      -1.977  -0.071  -0.536  0.00  0.00    -0.090 HD
ATOM     13  H   UNL     1      -1.278  -1.485  -0.057  0.00  0.00    -0.090 HD
ENDBRANCH   9  10
ENDBRANCH   1   9
BRANCH   1  14
ATOM     14  S   UNL     1       2.499   0.237   1.092  0.00  0.00    -0.081 S 
BRANCH  14  15
ATOM     15  C   UNL     1       3.339  -0.435   2.488  0.00  0.00    +0.171 A 
ATOM     16  N   UNL     1       4.658  -0.150   2.674  0.00  0.00    -0.302 N 
ATOM     17  H   UNL     1       5.124   0.418   2.041  0.00  0.00    +0.171 HD
ATOM     18  C   UNL     1       5.317  -0.656   3.737  0.00  0.00    +0.254 A 
ATOM     19  O   UNL     1       6.499  -0.405   3.912  0.00  0.00    -0.268 OA
ATOM     20  C   UNL     1       4.623  -1.472   4.636  0.00  0.00    +0.113 A 
ATOM     21  C   UNL     1       3.280  -1.731   4.402  0.00  0.00    +0.124 A 
ATOM     22  N   UNL     1       2.677  -1.198   3.333  0.00  0.00    -0.209 NA
BRANCH  21  23
ATOM     23  N   UNL     1       2.567  -2.533   5.271  0.00  0.00    -0.343 N 
ATOM     24  H   UNL     1       3.005  -2.916   6.047  0.00  0.00    +0.144 HD
ATOM     25  H   UNL     1       1.629  -2.713   5.106  0.00  0.00    +0.144 HD
ENDBRANCH  21  23
ENDBRANCH  14  15
ENDBRANCH   1  14
TORSDOF 6
