REMARK  Name = ZINC65879717
REMARK  5 active torsions:
REMARK  status: ('A' for Active; 'I' for Inactive)
REMARK    1  A    between atoms: C_3  and  N_8
REMARK    2  A    between atoms: C_9  and  C_11
REMARK    3  A    between atoms: C_11  and  C_12
REMARK    4  A    between atoms: C_12  and  C_13
REMARK    5  A    between atoms: C_12  and  N_18
REMARK                            x       y       z     vdW  Elec       q    Type
REMARK                         _______ _______ _______ _____ _____    ______ ____
ROOT
ATOM      1  C   UNL     1       4.704   5.570  -0.330  0.00  0.00    +0.120 C 
ENDROOT
BRANCH   1   2
ATOM      2  N   UNL     1       4.120   6.047   0.926  0.00  0.00    -0.292 N 
ATOM      3  C   UNL     1       3.369   7.166   0.938  0.00  0.00    +0.298 C 
ATOM      4  O   UNL     1       3.177   7.780  -0.094  0.00  0.00    -0.253 OA
ATOM      5  N   UNL     1       2.831   7.605   2.093  0.00  0.00    -0.313 N 
ATOM      6  H   UNL     1       4.273   5.557   1.749  0.00  0.00    +0.151 HD
ATOM      7  H   UNL     1       2.984   7.115   2.916  0.00  0.00    +0.146 HD
ATOM      8  H   UNL     1       2.291   8.410   2.102  0.00  0.00    +0.146 HD
ENDBRANCH   1   2
BRANCH   1   9
ATOM      9  C   UNL     1       6.012   6.277  -0.575  0.00  0.00    +0.010 A 
ATOM     10  C   UNL     1       6.518   6.758  -1.737  0.00  0.00    +0.013 A 
ATOM     11  C   UNL     1       7.753   7.379  -1.725  0.00  0.00    +0.008 A 
ATOM     12  C   UNL     1       8.422   7.488  -0.551  0.00  0.00    +0.045 A 
ATOM     13  S   UNL     1       7.295   6.706   0.591  0.00  0.00    -0.100 S 
ENDBRANCH   1   9
BRANCH   1  14
ATOM     14  C   UNL     1       4.948   4.063  -0.239  0.00  0.00    +0.123 C 
BRANCH  14  16
ATOM     15  N   UNL     1       3.597   2.002  -0.021  0.00  0.00    -0.270 N 
ATOM     16  C   UNL     1       3.628   3.346  -0.116  0.00  0.00    +0.220 C 
ATOM     17  O   UNL     1       2.594   3.979  -0.103  0.00  0.00    -0.275 OA
ATOM     18  H   UNL     1       4.425   1.501   0.042  0.00  0.00    +0.156 HD
BRANCH  15  21
ATOM     19  C   UNL     1       1.131  -0.711  -0.018  0.00  0.00    +0.006 A 
ATOM     20  C   UNL     1       2.351  -0.057  -0.024  0.00  0.00    +0.044 A 
ATOM     21  C   UNL     1       2.374   1.332  -0.015  0.00  0.00    +0.126 A 
ATOM     22  N   UNL     1       1.247   2.026  -0.000  0.00  0.00    -0.225 NA
ATOM     23  C   UNL     1       0.069   1.431   0.006  0.00  0.00    +0.108 A 
ATOM     24  C   UNL     1      -0.029   0.052  -0.003  0.00  0.00    +0.035 A 
ATOM     25 BR   UNL     1      -1.506   2.478   0.028  0.00  0.00    -0.029 Br
ENDBRANCH  15  21
ENDBRANCH  14  16
ENDBRANCH   1  14
TORSDOF 5
