REMARK  Name = ZINC44494049
REMARK  7 active torsions:
REMARK  status: ('A' for Active; 'I' for Inactive)
REMARK    1  A    between atoms: C_1  and  C_2
REMARK    2  A    between atoms: C_2  and  C_4
REMARK    3  A    between atoms: C_2  and  N_16
REMARK    4  A    between atoms: C_7  and  S_10
REMARK    5  A    between atoms: S_10  and  N_13
REMARK    6  A    between atoms: N_13  and  C_14
REMARK    7  A    between atoms: N_13  and  C_15
REMARK                            x       y       z     vdW  Elec       q    Type
REMARK                         _______ _______ _______ _____ _____    ______ ____
ROOT
ATOM      1  C   UNL     1       0.731  -0.503   1.223  0.00  0.00    -0.061 A 
ATOM      2  C   UNL     1       0.081  -0.558   2.442  0.00  0.00    +0.004 A 
ATOM      3  C   UNL     1       0.749  -1.016   3.562  0.00  0.00    +0.029 A 
ATOM      4  C   UNL     1       2.068  -1.420   3.463  0.00  0.00    +0.105 A 
ATOM      5  C   UNL     1       2.718  -1.365   2.244  0.00  0.00    +0.029 A 
ATOM      6  C   UNL     1       2.048  -0.911   1.123  0.00  0.00    +0.004 A 
ENDROOT
BRANCH   4   7
ATOM      7  S   UNL     1       2.921  -2.002   4.890  0.00  0.00    +0.060 S 
ATOM      8  O   UNL     1       4.306  -1.804   4.645  0.00  0.00    -0.153 OA
ATOM      9  O   UNL     1       2.259  -1.441   6.016  0.00  0.00    -0.153 OA
BRANCH   7  10
ATOM     10  N   UNL     1       2.683  -3.639   4.969  0.00  0.00    -0.183 NA
ATOM     11  C   UNL     1       3.620  -4.548   4.305  0.00  0.00    +0.131 C 
ATOM     12  C   UNL     1       1.534  -4.178   5.702  0.00  0.00    +0.131 C 
ENDBRANCH   7  10
ENDBRANCH   4   7
BRANCH   1  14
ATOM     13  C   UNL     1      -0.019   1.526   0.010  0.00  0.00    -0.008 C 
ATOM     14  C   UNL     1       0.002  -0.004   0.002  0.00  0.00    -0.041 C 
BRANCH  14  15
ATOM     15  N   UNL     1      -1.376  -0.512   0.012  0.00  0.00    +0.385 N 
ATOM     16  C   UNL     1      -1.340  -1.989   0.081  0.00  0.00    -0.077 C 
ATOM     17  C   UNL     1      -2.661  -2.483   0.613  0.00  0.00    -0.003 C 
ATOM     18  C   UNL     1      -3.646  -2.826  -0.518  0.00  0.00    +0.079 C 
ATOM     19  N   UNL     1      -3.609  -1.831  -1.615  0.00  0.00    -0.318 NA
ATOM     20  C   UNL     1      -3.521  -0.464  -1.154  0.00  0.00    +0.062 C 
ATOM     21  C   UNL     1      -2.040  -0.042  -1.125  0.00  0.00    -0.063 C 
ATOM     22  H   UNL     1      -2.869  -2.041  -2.268  0.00  0.00    +0.122 HD
ATOM     23  H   UNL     1      -1.846  -0.161   0.833  0.00  0.00    -0.081 HD
ENDBRANCH  14  15
ENDBRANCH   1  14
TORSDOF 4
