REMARK  Name = ZINC24752298
REMARK  12 active torsions:
REMARK  status: ('A' for Active; 'I' for Inactive)
REMARK    1  A    between atoms: C_1  and  C_2
REMARK    2  A    between atoms: C_2  and  C_3
REMARK    3  A    between atoms: C_2  and  C_4
REMARK    4  A    between atoms: C_4  and  N_5
REMARK    5  A    between atoms: N_5  and  C_6
REMARK    6  A    between atoms: C_7  and  N_22
REMARK    7  A    between atoms: N_8  and  C_15
REMARK    8  A    between atoms: C_15  and  C_16
REMARK    9  A    between atoms: C_23  and  C_25
REMARK   10  A    between atoms: C_25  and  O_26
REMARK   11  A    between atoms: O_26  and  C_27
REMARK   12  A    between atoms: C_27  and  C_29
REMARK                            x       y       z     vdW  Elec       q    Type
REMARK                         _______ _______ _______ _____ _____    ______ ____
ROOT
ATOM      1  N   UNL     1       4.598  -7.359   0.124  0.00  0.00    -0.261 N 
ATOM      2  C   UNL     1       3.466  -6.653  -0.078  0.00  0.00    +0.258 C 
ATOM      3  O   UNL     1       2.408  -7.230  -0.221  0.00  0.00    -0.272 OA
ENDROOT
BRANCH   1   4
ATOM      4  C   UNL     1       4.571  -8.769   0.062  0.00  0.00    +0.140 A 
ATOM      5  C   UNL     1       3.796  -9.495   0.942  0.00  0.00    +0.128 A 
ATOM      6  N   UNL     1       3.786 -10.868   0.853  0.00  0.00    -0.276 N 
ATOM      7  C   UNL     1       4.532 -11.495  -0.075  0.00  0.00    +0.331 A 
ATOM      8  O   UNL     1       4.513 -12.710  -0.135  0.00  0.00    -0.246 OA
ATOM      9  N   UNL     1       5.297 -10.804  -0.938  0.00  0.00    -0.273 N 
ATOM     10  H   UNL     1       5.899 -11.337  -1.689  0.00  0.00    +0.173 HD
ATOM     11  C   UNL     1       5.338  -9.458  -0.896  0.00  0.00    +0.277 A 
ATOM     12  O   UNL     1       6.035  -8.840  -1.684  0.00  0.00    -0.266 OA
BRANCH   5  13
ATOM     13  N   UNL     1       3.039  -8.855   1.894  0.00  0.00    -0.343 N 
ATOM     14  H   UNL     1       2.424  -9.441   2.593  0.00  0.00    +0.144 HD
ATOM     15  H   UNL     1       3.049  -7.757   1.958  0.00  0.00    +0.144 HD
ENDBRANCH   5  13
BRANCH   6  16
ATOM     16  C   UNL     1       2.964 -11.652   1.778  0.00  0.00    +0.163 C 
BRANCH  16  17
ATOM     17  C   UNL     1       3.768 -11.982   3.009  0.00  0.00    -0.028 A 
ATOM     18  C   UNL     1       4.512 -13.146   3.057  0.00  0.00    +0.005 A 
ATOM     19  C   UNL     1       5.254 -13.446   4.184  0.00  0.00    +0.000 A 
ATOM     20  C   UNL     1       5.243 -12.588   5.267  0.00  0.00    +0.000 A 
ATOM     21  C   UNL     1       4.495 -11.426   5.221  0.00  0.00    +0.000 A 
ATOM     22  C   UNL     1       3.758 -11.123   4.092  0.00  0.00    +0.005 A 
ENDBRANCH  16  17
ENDBRANCH   6  16
ENDBRANCH   1   4
BRANCH   1  23
ATOM     23  C   UNL     1       5.855  -6.663   0.408  0.00  0.00    +0.117 C 
BRANCH  23  25
ATOM     24  C   UNL     1       6.049  -7.657   2.692  0.00  0.00    +0.009 C 
ATOM     25  C   UNL     1       5.938  -6.351   1.904  0.00  0.00    +0.001 C 
ATOM     26  C   UNL     1       7.170  -5.484   2.176  0.00  0.00    +0.009 C 
ENDBRANCH  23  25
ENDBRANCH   1  23
BRANCH   2  27
ATOM     27  C   UNL     1       3.515  -5.148  -0.125  0.00  0.00    +0.328 C 
BRANCH  27  28
ATOM     28  O   UNL     1       2.179  -4.627  -0.352  0.00  0.00    -0.452 OA
BRANCH  28  29
ATOM     29  C   UNL     1       2.049  -3.288  -0.421  0.00  0.00    +0.340 C 
ATOM     30  O   UNL     1       3.024  -2.575  -0.296  0.00  0.00    -0.245 OA
BRANCH  29  31
ATOM     31  C   UNL     1       0.718  -2.686  -0.650  0.00  0.00    +0.073 A 
ATOM     32  C   UNL     1      -0.395  -3.472  -0.915  0.00  0.00    +0.085 A 
ATOM     33  C   UNL     1      -1.635  -2.859  -1.125  0.00  0.00    +0.250 A 
ATOM     34  N   UNL     1      -1.793  -1.557  -1.082  0.00  0.00    -0.322 N 
ATOM     35  C   UNL     1      -0.780  -0.722  -0.834  0.00  0.00    +0.050 A 
ATOM     36  C   UNL     1       0.521  -1.236  -0.607  0.00  0.00    +0.012 A 
ATOM     37  C   UNL     1       1.580  -0.360  -0.348  0.00  0.00    +0.011 A 
ATOM     38  C   UNL     1       1.351   0.983  -0.317  0.00  0.00    +0.001 A 
ATOM     39  C   UNL     1       0.074   1.494  -0.540  0.00  0.00    +0.002 A 
ATOM     40  C   UNL     1      -0.978   0.669  -0.794  0.00  0.00    +0.026 A 
ATOM     41  O   UNL     1      -2.714  -3.639  -1.383  0.00  0.00    -0.268 OA
ATOM     42  H   UNL     1      -2.787  -1.117  -1.253  0.00  0.00    +0.169 HD
ENDBRANCH  29  31
ENDBRANCH  28  29
ENDBRANCH  27  28
ENDBRANCH   2  27
TORSDOF 10
