REMARK  Name = ZINC61669248
REMARK  5 active torsions:
REMARK  status: ('A' for Active; 'I' for Inactive)
REMARK    1  A    between atoms: C_1  and  O_2
REMARK    2  A    between atoms: O_2  and  C_3
REMARK    3  A    between atoms: C_6  and  C_10
REMARK    4  A    between atoms: C_12  and  C_15
REMARK    5  A    between atoms: C_20  and  N_21
REMARK                            x       y       z     vdW  Elec       q    Type
REMARK                         _______ _______ _______ _____ _____    ______ ____
ROOT
ATOM      1  C   UNL     1       2.526  -2.452  -4.412  0.00  0.00    +0.259 A 
ATOM      2  N   UNL     1       2.677  -3.748  -4.560  0.00  0.00    -0.187 NA
ATOM      3  C   UNL     1       3.234  -4.010  -5.753  0.00  0.00    +0.204 A 
ATOM      4  N   UNL     1       3.444  -2.877  -6.380  0.00  0.00    -0.056 NA
ATOM      5  O   UNL     1       2.982  -1.845  -5.521  0.00  0.00    -0.332 OA
ENDROOT
BRANCH   1   9
ATOM      6  C   UNL     1       0.861  -0.509  -1.019  0.00  0.00    +0.155 A 
ATOM      7  C   UNL     1       1.297   0.242  -2.104  0.00  0.00    +0.049 A 
ATOM      8  C   UNL     1       1.838  -0.385  -3.205  0.00  0.00    +0.017 A 
ATOM      9  C   UNL     1       1.947  -1.777  -3.232  0.00  0.00    +0.042 A 
ATOM     10  C   UNL     1       1.508  -2.530  -2.140  0.00  0.00    +0.055 A 
ATOM     11  C   UNL     1       0.973  -1.895  -1.038  0.00  0.00    +0.165 A 
ATOM     12  F   UNL     1       0.553  -2.621   0.021  0.00  0.00    -0.202 F 
BRANCH   6  14
ATOM     13  C   UNL     1       0.244   1.539   0.018  0.00  0.00    +0.277 C 
ATOM     14  O   UNL     1       0.329   0.113   0.065  0.00  0.00    -0.492 OA
ENDBRANCH   6  14
ENDBRANCH   1   9
BRANCH   3  15
ATOM     15  C   UNL     1       3.560  -5.359  -6.275  0.00  0.00    +0.043 A 
ATOM     16  C   UNL     1       2.621  -6.385  -6.197  0.00  0.00    +0.013 A 
ATOM     17  C   UNL     1       2.928  -7.638  -6.686  0.00  0.00    +0.001 A 
ATOM     18  C   UNL     1       4.167  -7.882  -7.254  0.00  0.00    +0.002 A 
ATOM     19  C   UNL     1       5.107  -6.873  -7.337  0.00  0.00    +0.023 A 
ATOM     20  C   UNL     1       4.810  -5.606  -6.855  0.00  0.00    +0.035 A 
BRANCH  20  21
ATOM     21  N   UNL     1       5.754  -4.585  -6.943  0.00  0.00    -0.357 N 
ATOM     22  H   UNL     1       5.583  -3.728  -6.522  0.00  0.00    +0.142 HD
ATOM     23  H   UNL     1       6.583  -4.731  -7.426  0.00  0.00    +0.142 HD
ENDBRANCH  20  21
ENDBRANCH   3  15
TORSDOF 4
