REMARK  Name = ZINC66145066
REMARK  8 active torsions:
REMARK  status: ('A' for Active; 'I' for Inactive)
REMARK    1  A    between atoms: C_1  and  C_2
REMARK    2  A    between atoms: N_7  and  C_26
REMARK    3  A    between atoms: C_9  and  C_10
REMARK    4  A    between atoms: N_12  and  N_13
REMARK    5  A    between atoms: N_13  and  C_14
REMARK    6  A    between atoms: C_14  and  N_16
REMARK    7  A    between atoms: N_16  and  C_17
REMARK    8  A    between atoms: C_23  and  C_25
REMARK                            x       y       z     vdW  Elec       q    Type
REMARK                         _______ _______ _______ _____ _____    ______ ____
ROOT
ATOM      1  C   UNL     1      -3.100   0.760   0.020  0.00  0.00    +0.281 C 
ATOM      2  O   UNL     1      -2.353   1.719   0.021  0.00  0.00    -0.267 OA
ATOM      3  N   UNL     1      -4.435   0.945   0.027  0.00  0.00    -0.230 N 
ATOM      4  H   UNL     1      -5.032   0.180   0.026  0.00  0.00    +0.173 HD
ENDROOT
BRANCH   1  13
ATOM      5  C   UNL     1      -0.018   1.503   0.010  0.00  0.00    +0.090 C 
ATOM      6  C   UNL     1       0.002  -0.004   0.002  0.00  0.00    +0.144 A 
ATOM      7  C   UNL     1      -1.086  -0.814   0.003  0.00  0.00    +0.081 A 
ATOM      8  C   UNL     1      -0.588  -2.201  -0.007  0.00  0.00    +0.181 A 
ATOM      9  C   UNL     1      -1.590  -3.284  -0.008  0.00  0.00    +0.296 A 
ATOM     10  O   UNL     1      -1.242  -4.450  -0.015  0.00  0.00    -0.264 OA
ATOM     11  N   UNL     1      -2.899  -2.960   0.000  0.00  0.00    -0.230 N 
ATOM     12  N   UNL     1      -3.347  -1.641   0.009  0.00  0.00    -0.163 NA
ATOM     13  C   UNL     1      -2.546  -0.608   0.011  0.00  0.00    +0.160 A 
ATOM     14  C   UNL     1      -3.890  -4.039  -0.001  0.00  0.00    +0.176 C 
ATOM     15  N   UNL     1       0.715  -2.138  -0.013  0.00  0.00    -0.072 NA
ATOM     16  O   UNL     1       1.098  -0.774  -0.013  0.00  0.00    -0.359 OA
ENDBRANCH   1  13
BRANCH   3  17
ATOM     17  N   UNL     1      -4.962   2.244   0.036  0.00  0.00    -0.246 N 
ATOM     18  H   UNL     1      -4.366   3.009   0.037  0.00  0.00    +0.172 HD
BRANCH  17  19
ATOM     19  C   UNL     1      -6.297   2.429   0.043  0.00  0.00    +0.147 C 
ATOM     20  S   UNL     1      -6.941   4.016   0.055  0.00  0.00    -0.017 S 
BRANCH  19  21
ATOM     21  N   UNL     1      -7.125   1.366   0.042  0.00  0.00    -0.322 N 
ATOM     22  H   UNL     1      -6.761   0.467   0.036  0.00  0.00    +0.148 HD
BRANCH  21  23
ATOM     23  C   UNL     1      -8.576   1.568   0.050  0.00  0.00    +0.075 C 
ATOM     24  C   UNL     1      -9.071   1.770  -1.384  0.00  0.00    +0.022 C 
ATOM     25  C   UNL     1      -8.732   0.533  -2.219  0.00  0.00    +0.002 C 
ATOM     26  C   UNL     1      -9.415  -0.694  -1.613  0.00  0.00    +0.000 C 
ATOM     27  C   UNL     1      -8.920  -0.896  -0.179  0.00  0.00    +0.005 C 
ATOM     28  C   UNL     1      -9.259   0.340   0.656  0.00  0.00    +0.006 C 
ATOM     29  C   UNL     1      -8.764   0.138   2.090  0.00  0.00    +0.009 C 
ENDBRANCH  21  23
ENDBRANCH  19  21
ENDBRANCH  17  19
ENDBRANCH   3  17
TORSDOF 5
