REMARK  Name = ZINC50952105
REMARK  5 active torsions:
REMARK  status: ('A' for Active; 'I' for Inactive)
REMARK    1  A    between atoms: C_3  and  N_11
REMARK    2  A    between atoms: C_4  and  C_8
REMARK    3  A    between atoms: C_12  and  C_14
REMARK    4  A    between atoms: C_14  and  C_15
REMARK    5  A    between atoms: C_15  and  C_16
REMARK                            x       y       z     vdW  Elec       q    Type
REMARK                         _______ _______ _______ _____ _____    ______ ____
ROOT
ATOM      1  N   UNL     1       3.425   2.073  -0.039  0.00  0.00    -0.285 N 
ATOM      2  C   UNL     1       3.343   3.412  -0.171  0.00  0.00    +0.217 C 
ATOM      3  O   UNL     1       2.259   3.954  -0.181  0.00  0.00    -0.275 OA
ATOM      4  H   UNL     1       4.292   1.647   0.051  0.00  0.00    +0.155 HD
ENDROOT
BRANCH   1   7
ATOM      5  C   UNL     1      -0.032   0.999  -0.648  0.00  0.00    +0.017 A 
ATOM      6  C   UNL     1       1.117   1.765  -0.656  0.00  0.00    +0.025 A 
ATOM      7  C   UNL     1       2.267   1.302  -0.032  0.00  0.00    +0.048 A 
ATOM      8  C   UNL     1       2.255   0.051   0.607  0.00  0.00    +0.085 A 
ATOM      9  C   UNL     1       1.085  -0.714   0.606  0.00  0.00    +0.032 A 
ATOM     10  C   UNL     1      -0.047  -0.237  -0.019  0.00  0.00    +0.019 A 
ATOM     11 BR   UNL     1      -1.629  -1.272  -0.019  0.00  0.00    -0.050 Br
BRANCH   8  12
ATOM     12  C   UNL     1       3.468  -0.452   1.272  0.00  0.00    +0.388 C 
ATOM     13  O   UNL     1       3.484  -1.581   1.742  0.00  0.00    -0.241 OA
ATOM     14  O   UNL     1       4.460   0.259   1.353  0.00  0.00    -0.241 OA
ENDBRANCH   8  12
ENDBRANCH   1   7
BRANCH   2  15
ATOM     15  C   UNL     1       4.599   4.234  -0.306  0.00  0.00    +0.096 C 
BRANCH  15  16
ATOM     16  C   UNL     1       4.228   5.712  -0.440  0.00  0.00    +0.012 C 
BRANCH  16  17
ATOM     17  C   UNL     1       5.503   6.547  -0.577  0.00  0.00    -0.014 C 
ATOM     18  C   UNL     1       6.315   6.459   0.719  0.00  0.00    -0.016 C 
ATOM     19  C   UNL     1       7.547   7.359   0.604  0.00  0.00    -0.082 C 
ATOM     20  N   UNL     1       7.125   8.747   0.384  0.00  0.00    +0.379 N 
ATOM     21  C   UNL     1       6.408   8.853  -0.893  0.00  0.00    -0.082 C 
ATOM     22  C   UNL     1       5.131   8.010  -0.836  0.00  0.00    -0.016 C 
ATOM     23  H   UNL     1       6.517   9.036   1.135  0.00  0.00    -0.086 HD
ATOM     24  H   UNL     1       7.938   9.345   0.362  0.00  0.00    -0.086 HD
ENDBRANCH  16  17
ENDBRANCH  15  16
ENDBRANCH   2  15
TORSDOF 5
