REMARK  Name = ZINC35501315
REMARK  5 active torsions:
REMARK  status: ('A' for Active; 'I' for Inactive)
REMARK    1  A    between atoms: C_1  and  C_2
REMARK    2  A    between atoms: C_6  and  C_7
REMARK    3  A    between atoms: C_7  and  C_9
REMARK    4  A    between atoms: C_7  and  N_20
REMARK    5  A    between atoms: N_20  and  C_21
REMARK                            x       y       z     vdW  Elec       q    Type
REMARK                         _______ _______ _______ _____ _____    ______ ____
ROOT
ATOM      1  C   UNL     1       0.030  -0.363   2.516  0.00  0.00    +0.028 C 
ENDROOT
BRANCH   1   2
ATOM      2  C   UNL     1       1.410  -0.545   3.093  0.00  0.00    -0.032 A 
ATOM      3  C   UNL     1       1.721  -1.698   3.789  0.00  0.00    +0.053 A 
ATOM      4  C   UNL     1       2.990  -1.869   4.320  0.00  0.00    +0.162 A 
ATOM      5  C   UNL     1       3.951  -0.879   4.148  0.00  0.00    +0.163 A 
ATOM      6  C   UNL     1       3.634   0.277   3.450  0.00  0.00    +0.069 A 
ATOM      7  C   UNL     1       2.367   0.439   2.919  0.00  0.00    +0.047 A 
ATOM      8 CL   UNL     1       1.974   1.883   2.039  0.00  0.00    -0.083 Cl
ATOM      9  O   UNL     1       5.205  -1.030   4.654  0.00  0.00    -0.485 OA
ATOM     10  C   UNL     1       5.376  -2.031   5.664  0.00  0.00    +0.270 C 
ATOM     11  C   UNL     1       4.666  -3.309   5.198  0.00  0.00    +0.270 C 
ATOM     12  O   UNL     1       3.280  -3.008   5.006  0.00  0.00    -0.485 OA
ENDBRANCH   1   2
BRANCH   1  18
ATOM     13  C   UNL     1      -0.018   1.503   0.010  0.00  0.00    +0.047 C 
ATOM     14  C   UNL     1       0.002  -0.004   0.002  0.00  0.00    -0.011 A 
ATOM     15  C   UNL     1       0.009  -0.840  -1.138  0.00  0.00    +0.044 A 
ATOM     16  C   UNL     1       0.029  -2.109  -0.691  0.00  0.00    +0.195 A 
ATOM     17  O   UNL     1       0.034  -2.085   0.652  0.00  0.00    -0.469 OA
ATOM     18  C   UNL     1       0.023  -0.811   1.078  0.00  0.00    +0.098 A 
ENDBRANCH   1  18
BRANCH   1  19
ATOM     19  N   UNL     1      -0.931  -1.166   3.284  0.00  0.00    +0.387 N 
ATOM     20  C   UNL     1      -1.012  -0.651   4.658  0.00  0.00    -0.099 C 
ATOM     21  H   UNL     1      -1.840  -1.109   2.849  0.00  0.00    -0.085 HD
ATOM     22  H   UNL     1      -0.627  -2.127   3.303  0.00  0.00    -0.085 HD
ENDBRANCH   1  19
TORSDOF 3
