REMARK  Name = ZINC01792498
REMARK  7 active torsions:
REMARK  status: ('A' for Active; 'I' for Inactive)
REMARK    1  A    between atoms: C_3  and  C_8
REMARK    2  A    between atoms: N_12  and  C_16
REMARK    3  A    between atoms: C_16  and  C_17
REMARK    4  A    between atoms: C_17  and  C_18
REMARK    5  A    between atoms: N_20  and  C_21
REMARK    6  A    between atoms: C_24  and  O_29
REMARK    7  A    between atoms: C_25  and  C_27
REMARK                            x       y       z     vdW  Elec       q    Type
REMARK                         _______ _______ _______ _____ _____    ______ ____
ROOT
ATOM      1  C   UNL     1       0.850   0.945  -0.537  0.00  0.00    +0.124 C 
ENDROOT
BRANCH   1   6
ATOM      2  C   UNL     1      -0.791   4.405  -3.692  0.00  0.00    +0.028 C 
ATOM      3  C   UNL     1      -0.642   3.165  -3.163  0.00  0.00    +0.077 C 
ATOM      4  C   UNL     1       0.136   2.730  -1.983  0.00  0.00    +0.258 C 
ATOM      5  O   UNL     1       0.775   3.518  -1.312  0.00  0.00    -0.269 OA
ATOM      6  N   UNL     1       0.100   1.440  -1.694  0.00  0.00    -0.255 N 
ATOM      7  C   UNL     1      -0.606   0.569  -2.443  0.00  0.00    +0.121 C 
ATOM      8  S   UNL     1      -0.770  -1.123  -2.236  0.00  0.00    -0.027 S 
ATOM      9  S   UNL     1      -1.333   1.607  -3.702  0.00  0.00    -0.061 S 
BRANCH   2  12
ATOM     10  C   UNL     1      -2.530   3.639  -6.924  0.00  0.00    +0.002 A 
ATOM     11  C   UNL     1      -1.857   3.466  -5.733  0.00  0.00    +0.008 A 
ATOM     12  C   UNL     1      -1.504   4.581  -4.965  0.00  0.00    -0.023 A 
ATOM     13  C   UNL     1      -1.829   5.865  -5.418  0.00  0.00    +0.023 A 
ATOM     14  C   UNL     1      -2.498   6.021  -6.613  0.00  0.00    +0.018 A 
ATOM     15  C   UNL     1      -2.848   4.912  -7.365  0.00  0.00    +0.015 A 
ATOM     16 BR   UNL     1      -2.938   7.754  -7.228  0.00  0.00    -0.050 Br
ENDBRANCH   2  12
ENDBRANCH   1   6
BRANCH   1  17
ATOM     17  C   UNL     1      -0.041   0.993   0.706  0.00  0.00    +0.115 C 
BRANCH  17  18
ATOM     18  C   UNL     1       0.730   0.484   1.896  0.00  0.00    +0.219 C 
ATOM     19  O   UNL     1       1.879   0.118   1.763  0.00  0.00    -0.275 OA
ATOM     20  N   UNL     1       0.144   0.434   3.109  0.00  0.00    -0.285 N 
ATOM     21  H   UNL     1      -0.790   0.679   3.206  0.00  0.00    +0.155 HD
BRANCH  20  22
ATOM     22  C   UNL     1       0.882   0.029   4.229  0.00  0.00    +0.034 A 
ATOM     23  C   UNL     1       0.640   0.613   5.468  0.00  0.00    +0.027 A 
ATOM     24  C   UNL     1       1.361   0.220   6.576  0.00  0.00    +0.048 A 
ATOM     25  C   UNL     1       2.335  -0.761   6.462  0.00  0.00    +0.131 A 
ATOM     26  C   UNL     1       2.586  -1.353   5.217  0.00  0.00    +0.106 A 
ATOM     27  C   UNL     1       1.847  -0.955   4.100  0.00  0.00    +0.042 A 
BRANCH  26  28
ATOM     28  C   UNL     1       3.619  -2.397   5.088  0.00  0.00    +0.390 C 
ATOM     29  O   UNL     1       4.257  -2.745   6.062  0.00  0.00    -0.240 OA
ATOM     30  O   UNL     1       3.857  -2.964   3.889  0.00  0.00    -0.240 OA
ENDBRANCH  26  28
BRANCH  25  31
ATOM     31  O   UNL     1       3.044  -1.146   7.554  0.00  0.00    -0.506 OA
ATOM     32  H   UNL     1       2.645  -1.878   8.043  0.00  0.00    +0.292 HD
ENDBRANCH  25  31
ENDBRANCH  20  22
ENDBRANCH  17  18
ENDBRANCH   1  17
TORSDOF 7
