REMARK  Name = ZINC41640172
REMARK  6 active torsions:
REMARK  status: ('A' for Active; 'I' for Inactive)
REMARK    1  A    between atoms: C_4  and  C_7
REMARK    2  A    between atoms: C_7  and  C_9
REMARK    3  A    between atoms: C_7  and  N_14
REMARK    4  A    between atoms: N_14  and  C_15
REMARK    5  A    between atoms: C_15  and  C_16
REMARK    6  A    between atoms: C_21  and  O_22
REMARK                            x       y       z     vdW  Elec       q    Type
REMARK                         _______ _______ _______ _____ _____    ______ ____
ROOT
ATOM      1  C   UNL     1       3.711  -0.707  -0.038  0.00  0.00    +0.027 C 
ENDROOT
BRANCH   1   5
ATOM      2  C   UNL     1      -0.017   1.378   0.010  0.00  0.00    +0.000 A 
ATOM      3  C   UNL     1       1.171   2.086   0.002  0.00  0.00    +0.000 A 
ATOM      4  C   UNL     1       2.377   1.411  -0.013  0.00  0.00    +0.002 A 
ATOM      5  C   UNL     1       2.396   0.029  -0.020  0.00  0.00    -0.054 A 
ATOM      6  C   UNL     1       1.208  -0.679  -0.012  0.00  0.00    +0.002 A 
ATOM      7  C   UNL     1       0.002  -0.004   0.002  0.00  0.00    +0.000 A 
ENDBRANCH   1   5
BRANCH   1   8
ATOM      8  C   UNL     1       4.044  -1.175   1.356  0.00  0.00    +0.095 A 
ATOM      9  C   UNL     1       4.893  -0.570   2.207  0.00  0.00    +0.043 A 
ATOM     10  C   UNL     1       4.904  -1.342   3.391  0.00  0.00    +0.041 A 
ATOM     11  C   UNL     1       4.061  -2.372   3.193  0.00  0.00    +0.195 A 
ATOM     12  O   UNL     1       3.539  -2.262   1.961  0.00  0.00    -0.469 OA
ENDBRANCH   1   8
BRANCH   1  13
ATOM     13  N   UNL     1       3.611  -1.868  -0.933  0.00  0.00    +0.391 N 
ATOM     14  H   UNL     1       2.943  -2.525  -0.558  0.00  0.00    -0.084 HD
ATOM     15  H   UNL     1       3.308  -1.563  -1.846  0.00  0.00    -0.084 HD
BRANCH  13  16
ATOM     16  C   UNL     1       4.925  -2.515  -1.043  0.00  0.00    -0.042 C 
BRANCH  16  17
ATOM     17  C   UNL     1       4.823  -3.706  -1.961  0.00  0.00    -0.023 A 
ATOM     18  C   UNL     1       4.711  -4.978  -1.434  0.00  0.00    +0.005 A 
ATOM     19  C   UNL     1       4.617  -6.071  -2.276  0.00  0.00    +0.000 A 
ATOM     20  C   UNL     1       4.635  -5.893  -3.647  0.00  0.00    +0.004 A 
ATOM     21  C   UNL     1       4.746  -4.624  -4.179  0.00  0.00    +0.045 A 
ATOM     22  C   UNL     1       4.835  -3.525  -3.337  0.00  0.00    +0.118 A 
BRANCH  22  23
ATOM     23  O   UNL     1       4.939  -2.274  -3.858  0.00  0.00    -0.507 OA
ATOM     24  H   UNL     1       5.849  -1.986  -4.010  0.00  0.00    +0.292 HD
ENDBRANCH  22  23
ENDBRANCH  16  17
ENDBRANCH  13  16
ENDBRANCH   1  13
TORSDOF 6
