REMARK  Name = ZINC03831165
REMARK  12 active torsions:
REMARK  status: ('A' for Active; 'I' for Inactive)
REMARK    1  A    between atoms: C_1  and  C_2
REMARK    2  A    between atoms: C_2  and  C_3
REMARK    3  A    between atoms: C_2  and  C_4
REMARK    4  A    between atoms: C_2  and  N_5
REMARK    5  A    between atoms: N_5  and  C_6
REMARK    6  A    between atoms: C_6  and  C_7
REMARK    7  A    between atoms: C_7  and  C_9
REMARK    8  A    between atoms: C_7  and  O_25
REMARK    9  A    between atoms: C_9  and  O_10
REMARK   10  A    between atoms: O_10  and  C_11
REMARK   11  A    between atoms: C_18  and  O_24
REMARK   12  A    between atoms: C_20  and  O_23
REMARK                            x       y       z     vdW  Elec       q    Type
REMARK                         _______ _______ _______ _____ _____    ______ ____
ROOT
ATOM      1  C   UNL     1       6.140   0.101  -3.887  0.00  0.00    +0.124 A 
ATOM      2  C   UNL     1       6.778   0.818  -2.889  0.00  0.00    +0.046 A 
ATOM      3  C   UNL     1       8.087   1.220  -3.065  0.00  0.00    +0.004 A 
ATOM      4  C   UNL     1       8.750   0.909  -4.235  0.00  0.00    +0.004 A 
ATOM      5  C   UNL     1       8.114   0.191  -5.240  0.00  0.00    -0.038 A 
ATOM      6  C   UNL     1       6.813  -0.222  -5.064  0.00  0.00    +0.000 A 
ATOM      7  C   UNL     1       6.069  -1.021  -6.101  0.00  0.00    +0.073 C 
ATOM      8  C   UNL     1       6.761  -0.918  -7.459  0.00  0.00    +0.148 C 
ATOM      9  C   UNL     1       8.246  -1.252  -7.271  0.00  0.00    +0.148 C 
ATOM     10  C   UNL     1       8.896  -0.105  -6.492  0.00  0.00    +0.069 C 
ENDROOT
BRANCH   9  11
ATOM     11  O   UNL     1       8.376  -2.475  -6.544  0.00  0.00    -0.389 OA
ATOM     12  H   UNL     1       9.291  -2.746  -6.389  0.00  0.00    +0.210 HD
ENDBRANCH   9  11
BRANCH   8  13
ATOM     13  O   UNL     1       6.171  -1.845  -8.372  0.00  0.00    -0.389 OA
ATOM     14  H   UNL     1       5.227  -1.700  -8.524  0.00  0.00    +0.210 HD
ENDBRANCH   8  13
BRANCH   1  15
ATOM     15  O   UNL     1       4.852  -0.296  -3.716  0.00  0.00    -0.489 OA
BRANCH  15  16
ATOM     16  C   UNL     1       4.219   0.067  -2.487  0.00  0.00    +0.258 C 
BRANCH  16  17
ATOM     17  C   UNL     1       2.784  -0.463  -2.476  0.00  0.00    +0.135 C 
BRANCH  17  18
ATOM     18  O   UNL     1       2.803  -1.892  -2.484  0.00  0.00    -0.390 OA
ATOM     19  H   UNL     1       3.258  -2.283  -1.725  0.00  0.00    +0.210 HD
ENDBRANCH  17  18
BRANCH  17  20
ATOM     20  C   UNL     1       2.068   0.031  -1.217  0.00  0.00    -0.047 C 
BRANCH  20  21
ATOM     21  N   UNL     1       0.690  -0.478  -1.207  0.00  0.00    +0.384 N 
ATOM     22  H   UNL     1       0.703  -1.487  -1.212  0.00  0.00    -0.085 HD
ATOM     23  H   UNL     1       0.202  -0.144  -2.024  0.00  0.00    -0.085 HD
BRANCH  21  25
ATOM     24  C   UNL     1      -0.019   1.526   0.010  0.00  0.00    -0.011 C 
ATOM     25  C   UNL     1       0.002  -0.004   0.002  0.00  0.00    -0.077 C 
ATOM     26  C   UNL     1       0.742  -0.511   1.242  0.00  0.00    -0.011 C 
ATOM     27  C   UNL     1      -1.433  -0.534   0.013  0.00  0.00    -0.011 C 
ENDBRANCH  21  25
ENDBRANCH  20  21
ENDBRANCH  17  20
ENDBRANCH  16  17
ENDBRANCH  15  16
ENDBRANCH   1  15
TORSDOF 9
