REMARK  Name = ZINC38192497
REMARK  4 active torsions:
REMARK  status: ('A' for Active; 'I' for Inactive)
REMARK    1  A    between atoms: C_4  and  C_23
REMARK    2  A    between atoms: C_7  and  C_11
REMARK    3  A    between atoms: N_12  and  N_13
REMARK    4  A    between atoms: N_24  and  N_25
REMARK                            x       y       z     vdW  Elec       q    Type
REMARK                         _______ _______ _______ _____ _____    ______ ____
ROOT
ATOM      1  C   UNL     1      -0.014   1.389   0.118  0.00  0.00    +0.001 A 
ATOM      2  C   UNL     1       1.143   2.105   0.076  0.00  0.00    +0.009 A 
ATOM      3  C   UNL     1       2.377   1.434   0.024  0.00  0.00    -0.008 A 
ATOM      4  C   UNL     1       3.588   2.160  -0.020  0.00  0.00    +0.010 A 
ATOM      5  C   UNL     1       4.819   1.468  -0.071  0.00  0.00    -0.008 A 
ATOM      6  C   UNL     1       4.838   0.050  -0.080  0.00  0.00    -0.008 A 
ATOM      7  C   UNL     1       3.627  -0.676  -0.036  0.00  0.00    +0.010 A 
ATOM      8  C   UNL     1       2.396   0.016   0.016  0.00  0.00    -0.008 A 
ATOM      9  C   UNL     1       1.181  -0.688   0.060  0.00  0.00    +0.009 A 
ATOM     10  C   UNL     1       0.005  -0.005   0.110  0.00  0.00    +0.001 A 
ATOM     11  C   UNL     1       6.072  -0.620  -0.131  0.00  0.00    +0.009 A 
ATOM     12  C   UNL     1       7.229   0.096  -0.172  0.00  0.00    +0.001 A 
ATOM     13  C   UNL     1       7.210   1.489  -0.164  0.00  0.00    +0.001 A 
ATOM     14  C   UNL     1       6.034   2.172  -0.115  0.00  0.00    +0.009 A 
ENDROOT
BRANCH   7  15
ATOM     15  C   UNL     1       3.647  -2.139  -0.045  0.00  0.00    +0.139 C 
ATOM     16  N   UNL     1       4.781  -2.776   0.022  0.00  0.00    -0.188 NA
BRANCH  16  17
ATOM     17  N   UNL     1       4.800  -4.176   0.013  0.00  0.00    -0.210 N 
ATOM     18  C   UNL     1       5.994  -4.846   0.083  0.00  0.00    +0.174 C 
ATOM     19  N   UNL     1       7.159  -4.223   0.167  0.00  0.00    -0.358 N 
ATOM     20  C   UNL     1       8.239  -5.221   0.227  0.00  0.00    +0.134 C 
ATOM     21  C   UNL     1       7.488  -6.567   0.163  0.00  0.00    +0.125 C 
ATOM     22  N   UNL     1       6.074  -6.167   0.079  0.00  0.00    -0.316 N 
ATOM     23  H   UNL     1       3.969  -4.673  -0.043  0.00  0.00    +0.177 HD
ATOM     24  H   UNL     1       5.321  -6.775   0.027  0.00  0.00    +0.149 HD
ATOM     25  H   UNL     1       7.282  -3.261   0.185  0.00  0.00    +0.162 HD
ENDBRANCH  16  17
ENDBRANCH   7  15
BRANCH   4  26
ATOM     26  C   UNL     1       3.568   3.623  -0.012  0.00  0.00    +0.139 C 
ATOM     27  N   UNL     1       2.433   4.259  -0.080  0.00  0.00    -0.188 NA
BRANCH  27  28
ATOM     28  N   UNL     1       2.414   5.660  -0.073  0.00  0.00    -0.210 N 
ATOM     29  C   UNL     1       1.221   6.330  -0.145  0.00  0.00    +0.174 C 
ATOM     30  N   UNL     1       0.055   5.707  -0.217  0.00  0.00    -0.358 N 
ATOM     31  C   UNL     1      -1.024   6.705  -0.280  0.00  0.00    +0.134 C 
ATOM     32  C   UNL     1      -0.273   8.050  -0.232  0.00  0.00    +0.125 C 
ATOM     33  N   UNL     1       1.140   7.651  -0.142  0.00  0.00    -0.316 N 
ATOM     34  H   UNL     1       3.246   6.156  -0.017  0.00  0.00    +0.177 HD
ATOM     35  H   UNL     1       1.894   8.259  -0.090  0.00  0.00    +0.149 HD
ATOM     36  H   UNL     1      -0.068   4.745  -0.227  0.00  0.00    +0.162 HD
ENDBRANCH  27  28
ENDBRANCH   4  26
TORSDOF 4
