REMARK  Name = ZINC37800564
REMARK  5 active torsions:
REMARK  status: ('A' for Active; 'I' for Inactive)
REMARK    1  A    between atoms: C_1  and  N_2
REMARK    2  A    between atoms: N_2  and  C_3
REMARK    3  A    between atoms: C_4  and  C_6
REMARK    4  A    between atoms: C_6  and  N_7
REMARK    5  A    between atoms: C_13  and  C_15
REMARK                            x       y       z     vdW  Elec       q    Type
REMARK                         _______ _______ _______ _____ _____    ______ ____
ROOT
ATOM      1  N   UNL     1      -1.810  -3.483  -0.908  0.00  0.00    -0.291 NA
ATOM      2  C   UNL     1      -2.585  -3.201  -2.123  0.00  0.00    +0.104 C 
ATOM      3  C   UNL     1      -4.071  -3.091  -1.763  0.00  0.00    +0.123 C 
ATOM      4  N   UNL     1      -4.468  -4.309  -1.041  0.00  0.00    -0.300 N 
ATOM      5  C   UNL     1      -3.655  -4.733   0.108  0.00  0.00    +0.123 C 
ATOM      6  C   UNL     1      -2.185  -4.779  -0.325  0.00  0.00    +0.104 C 
ATOM      7  C   UNL     1      -5.549  -5.018  -1.423  0.00  0.00    +0.202 C 
ATOM      8  O   UNL     1      -5.811  -6.067  -0.874  0.00  0.00    -0.277 OA
ENDROOT
BRANCH   7   9
ATOM      9  C   UNL     1      -6.433  -4.506  -2.530  0.00  0.00    +0.016 C 
ATOM     10  C   UNL     1      -7.338  -3.397  -1.989  0.00  0.00    -0.007 C 
ATOM     11  C   UNL     1      -8.234  -2.880  -3.119  0.00  0.00    -0.003 C 
ATOM     12  C   UNL     1      -9.034  -4.050  -3.699  0.00  0.00    -0.019 C 
ATOM     13  C   UNL     1      -8.066  -5.135  -4.177  0.00  0.00    -0.082 C 
ATOM     14  N   UNL     1      -7.257  -5.606  -3.046  0.00  0.00    +0.387 N 
ATOM     15  H   UNL     1      -6.658  -6.358  -3.353  0.00  0.00    -0.085 HD
ATOM     16  H   UNL     1      -7.866  -5.940  -2.314  0.00  0.00    -0.085 HD
ENDBRANCH   7   9
BRANCH   1  17
ATOM     17  C   UNL     1      -0.367  -3.426  -1.179  0.00  0.00    +0.180 C 
BRANCH  17  21
ATOM     18  C   UNL     1       1.681  -0.352  -2.184  0.00  0.00    +0.131 C 
ATOM     19  N   UNL     1       1.304  -1.724  -1.832  0.00  0.00    -0.307 N 
ATOM     20  C   UNL     1       2.321  -2.777  -1.796  0.00  0.00    +0.131 C 
ATOM     21  C   UNL     1       0.021  -2.016  -1.541  0.00  0.00    +0.229 C 
ATOM     22  O   UNL     1      -0.822  -1.144  -1.570  0.00  0.00    -0.274 OA
ENDBRANCH  17  21
ENDBRANCH   1  17
TORSDOF 3
