REMARK  Name = ZINC40458247
REMARK  6 active torsions:
REMARK  status: ('A' for Active; 'I' for Inactive)
REMARK    1  A    between atoms: C_1  and  S_2
REMARK    2  A    between atoms: S_2  and  C_3
REMARK    3  A    between atoms: C_3  and  C_4
REMARK    4  A    between atoms: C_4  and  C_5
REMARK    5  A    between atoms: C_5  and  C_7
REMARK    6  A    between atoms: C_5  and  N_20
REMARK                            x       y       z     vdW  Elec       q    Type
REMARK                         _______ _______ _______ _____ _____    ______ ____
ROOT
ATOM      1  C   UNL     1      -3.482  -3.878  -0.109  0.00  0.00    +0.201 C 
ATOM      2  O   UNL     1      -3.682  -4.558   0.875  0.00  0.00    -0.277 OA
ATOM      3  N   UNL     1      -3.373  -4.460  -1.320  0.00  0.00    -0.300 N 
ATOM      4  C   UNL     1      -3.125  -3.649  -2.520  0.00  0.00    +0.126 C 
ATOM      5  C   UNL     1      -1.871  -4.183  -3.222  0.00  0.00    +0.126 C 
ATOM      6  N   UNL     1      -1.997  -5.641  -3.365  0.00  0.00    -0.307 N 
ATOM      7  C   UNL     1      -2.244  -6.451  -2.165  0.00  0.00    +0.126 C 
ATOM      8  C   UNL     1      -3.494  -5.918  -1.462  0.00  0.00    +0.126 C 
ATOM      9  C   UNL     1      -1.884  -6.239  -4.610  0.00  0.00    +0.161 A 
ATOM     10  N   UNL     1      -1.660  -5.669  -5.775  0.00  0.00    -0.233 NA
ATOM     11  C   UNL     1      -1.580  -6.387  -6.881  0.00  0.00    +0.120 A 
ATOM     12  C   UNL     1      -1.738  -7.727  -6.760  0.00  0.00    +0.068 A 
ATOM     13  S   UNL     1      -1.994  -7.873  -4.999  0.00  0.00    -0.061 S 
ENDROOT
BRANCH   1  14
ATOM     14  C   UNL     1      -3.356  -2.382   0.021  0.00  0.00    +0.014 C 
BRANCH  14  15
ATOM     15  N   UNL     1      -3.967  -1.948   1.285  0.00  0.00    +0.386 N 
ATOM     16  H   UNL     1      -3.495  -2.394   2.057  0.00  0.00    -0.089 HD
ATOM     17  H   UNL     1      -3.883  -0.946   1.372  0.00  0.00    -0.089 HD
ATOM     18  H   UNL     1      -4.943  -2.205   1.293  0.00  0.00    -0.089 HD
ENDBRANCH  14  15
BRANCH  14  19
ATOM     19  C   UNL     1      -1.877  -1.992   0.009  0.00  0.00    +0.003 C 
BRANCH  19  20
ATOM     20  C   UNL     1      -1.752  -0.467   0.016  0.00  0.00    +0.068 C 
BRANCH  20  22
ATOM     21  C   UNL     1      -0.022   1.810   0.012  0.00  0.00    +0.084 C 
ATOM     22  S   UNL     1       0.002  -0.004   0.002  0.00  0.00    -0.164 S 
ENDBRANCH  20  22
ENDBRANCH  19  20
ENDBRANCH  14  19
ENDBRANCH   1  14
TORSDOF 5
