REMARK  Name = ZINC05462157
REMARK  8 active torsions:
REMARK  status: ('A' for Active; 'I' for Inactive)
REMARK    1  A    between atoms: C_1  and  C_2
REMARK    2  A    between atoms: C_2  and  C_3
REMARK    3  A    between atoms: C_2  and  C_4
REMARK    4  A    between atoms: C_4  and  C_5
REMARK    5  A    between atoms: C_8  and  C_11
REMARK    6  A    between atoms: C_18  and  N_29
REMARK    7  A    between atoms: C_19  and  C_27
REMARK    8  A    between atoms: C_20  and  C_22
REMARK                            x       y       z     vdW  Elec       q    Type
REMARK                         _______ _______ _______ _____ _____    ______ ____
ROOT
ATOM      1  C   UNL     1      -1.368  -6.267  -0.491  0.00  0.00    +0.074 A 
ATOM      2  C   UNL     1      -2.107  -7.145   0.228  0.00  0.00    +0.054 A 
ATOM      3  C   UNL     1      -1.789  -8.446  -0.210  0.00  0.00    +0.245 A 
ATOM      4  N   UNL     1      -0.897  -8.354  -1.155  0.00  0.00    -0.135 NA
ATOM      5  N   UNL     1      -0.610  -6.996  -1.364  0.00  0.00    -0.273 N 
ATOM      6  H   UNL     1       0.017  -6.638  -2.011  0.00  0.00    +0.189 HD
ATOM      7  O   UNL     1      -2.372  -9.550   0.331  0.00  0.00    -0.421 OA
ATOM      8  C   UNL     1      -3.059  -9.391   1.479  0.00  0.00    +0.201 C 
ATOM      9  C   UNL     1      -3.429  -8.198   1.990  0.00  0.00    +0.098 C 
ATOM     10  C   UNL     1      -3.114  -6.885   1.320  0.00  0.00    +0.102 C 
ENDROOT
BRANCH   1  14
ATOM     11  C   UNL     1      -1.416  -2.035  -0.119  0.00  0.00    -0.047 A 
ATOM     12  C   UNL     1      -1.450  -2.616  -1.374  0.00  0.00    +0.004 A 
ATOM     13  C   UNL     1      -1.435  -3.990  -1.502  0.00  0.00    +0.010 A 
ATOM     14  C   UNL     1      -1.384  -4.793  -0.362  0.00  0.00    +0.000 A 
ATOM     15  C   UNL     1      -1.350  -4.200   0.901  0.00  0.00    +0.010 A 
ATOM     16  C   UNL     1      -1.360  -2.825   1.015  0.00  0.00    +0.004 A 
BRANCH  11  17
ATOM     17  C   UNL     1      -1.433  -0.534   0.013  0.00  0.00    +0.038 C 
BRANCH  17  19
ATOM     18  C   UNL     1      -0.019   1.526   0.010  0.00  0.00    +0.007 C 
ATOM     19  C   UNL     1       0.002  -0.004   0.002  0.00  0.00    -0.013 C 
ATOM     20  C   UNL     1       0.742  -0.511   1.242  0.00  0.00    +0.007 C 
ENDBRANCH  17  19
ENDBRANCH  11  17
ENDBRANCH   1  14
BRANCH  10  21
ATOM     21  C   UNL     1      -4.370  -6.303   0.725  0.00  0.00    -0.028 A 
ATOM     22  C   UNL     1      -4.815  -5.053   1.112  0.00  0.00    +0.012 A 
ATOM     23  C   UNL     1      -5.949  -4.558   0.557  0.00  0.00    +0.045 A 
ATOM     24  S   UNL     1      -6.424  -5.876  -0.549  0.00  0.00    -0.105 S 
ATOM     25  C   UNL     1      -5.077  -6.995  -0.202  0.00  0.00    +0.049 A 
ENDBRANCH  10  21
BRANCH   8  26
ATOM     26  N   UNL     1      -3.407 -10.521   2.177  0.00  0.00    -0.328 N 
ATOM     27  H   UNL     1      -3.158 -11.396   1.840  0.00  0.00    +0.145 HD
ATOM     28  H   UNL     1      -3.902 -10.445   3.008  0.00  0.00    +0.145 HD
ENDBRANCH   8  26
BRANCH   9  29
ATOM     29  C   UNL     1      -4.155  -8.179   3.225  0.00  0.00    +0.101 C 
ATOM     30  N   UNL     1      -4.730  -8.163   4.204  0.00  0.00    -0.191 NA
ENDBRANCH   9  29
TORSDOF 6
