REMARK  Name = ZINC06195884
REMARK  10 active torsions:
REMARK  status: ('A' for Active; 'I' for Inactive)
REMARK    1  A    between atoms: C_1  and  C_2
REMARK    2  A    between atoms: C_5  and  C_39
REMARK    3  A    between atoms: C_6  and  N_8
REMARK    4  A    between atoms: C_13  and  C_15
REMARK    5  A    between atoms: C_13  and  C_30
REMARK    6  A    between atoms: C_13  and  N_69
REMARK    7  A    between atoms: N_34  and  C_35
REMARK    8  A    between atoms: C_35  and  C_36
REMARK    9  A    between atoms: C_36  and  O_37
REMARK   10  A    between atoms: O_37  and  C_38
REMARK                            x       y       z     vdW  Elec       q    Type
REMARK                         _______ _______ _______ _____ _____    ______ ____
ROOT
ATOM      1  C   UNL     1       5.213   6.997   0.031  0.00  0.00    +0.039 C 
ENDROOT
BRANCH   1   2
ATOM      2  C   UNL     1       5.453   7.588   1.397  0.00  0.00    +0.011 A 
ATOM      3  C   UNL     1       6.615   7.331   2.050  0.00  0.00    +0.017 A 
ATOM      4  C   UNL     1       6.818   7.919   3.373  0.00  0.00    +0.002 A 
ATOM      5  C   UNL     1       7.998   7.690   4.092  0.00  0.00    +0.059 A 
ATOM      6  C   UNL     1       8.161   8.258   5.336  0.00  0.00    +0.167 A 
ATOM      7  C   UNL     1       7.153   9.062   5.882  0.00  0.00    +0.168 A 
ATOM      8  C   UNL     1       5.985   9.294   5.179  0.00  0.00    +0.075 A 
ATOM      9  C   UNL     1       5.805   8.729   3.923  0.00  0.00    +0.053 A 
ATOM     10  N   UNL     1       4.646   8.950   3.207  0.00  0.00    -0.322 N 
ATOM     11  H   UNL     1       3.949   9.507   3.587  0.00  0.00    +0.169 HD
ATOM     12  C   UNL     1       4.472   8.410   1.988  0.00  0.00    +0.251 A 
ATOM     13  O   UNL     1       3.438   8.632   1.382  0.00  0.00    -0.268 OA
ATOM     14  O   UNL     1       7.562   9.495   7.109  0.00  0.00    -0.453 OA
ATOM     15  C   UNL     1       8.987   9.292   7.135  0.00  0.00    +0.466 C 
ATOM     16  O   UNL     1       9.195   8.195   6.226  0.00  0.00    -0.453 OA
ENDBRANCH   1   2
BRANCH   1  22
ATOM     17  N   UNL     1       2.353   3.888   0.001  0.00  0.00    -0.333 N 
ATOM     18  C   UNL     1       2.506   4.671   1.235  0.00  0.00    +0.086 C 
ATOM     19  C   UNL     1       3.863   5.378   1.223  0.00  0.00    -0.058 C 
ATOM     20  C   UNL     1       3.800   5.460  -1.195  0.00  0.00    -0.058 C 
ATOM     21  C   UNL     1       2.442   4.753  -1.183  0.00  0.00    +0.086 C 
ATOM     22  N   UNL     1       3.931   6.261   0.040  0.00  0.00    +0.391 N 
ATOM     23  H   UNL     1       3.158   6.936   0.083  0.00  0.00    -0.080 HD
BRANCH  17  29
ATOM     24  C   UNL     1      -2.561   3.863   0.047  0.00  0.00    +0.044 C 
ATOM     25  C   UNL     1      -1.243   3.133   0.031  0.00  0.00    -0.049 A 
ATOM     26  C   UNL     1      -1.220   1.750   0.017  0.00  0.00    +0.004 A 
ATOM     27  C   UNL     1      -0.013   1.076   0.008  0.00  0.00    +0.005 A 
ATOM     28  C   UNL     1       1.175   1.782   0.000  0.00  0.00    -0.029 A 
ATOM     29  C   UNL     1       1.155   3.171   0.008  0.00  0.00    +0.033 A 
ATOM     30  C   UNL     1      -0.060   3.845   0.023  0.00  0.00    +0.026 A 
ATOM     31  C   UNL     1       2.490   1.046  -0.017  0.00  0.00    +0.045 C 
ENDBRANCH  17  29
ENDBRANCH   1  22
BRANCH   1  32
ATOM     32  C   UNL     1       5.130   8.105  -0.988  0.00  0.00    +0.143 A 
ATOM     33  N   UNL     1       4.122   8.922  -1.175  0.00  0.00    -0.115 NA
ATOM     34  N   UNL     1       4.434   9.725  -2.132  0.00  0.00    -0.023 NA
ATOM     35  N   UNL     1       5.611   9.436  -2.567  0.00  0.00    -0.044 NA
ATOM     36  N   UNL     1       6.073   8.443  -1.886  0.00  0.00    -0.228 N 
BRANCH  36  37
ATOM     37  C   UNL     1       7.380   7.802  -2.058  0.00  0.00    +0.175 C 
BRANCH  37  38
ATOM     38  C   UNL     1       7.258   6.660  -3.069  0.00  0.00    +0.183 C 
BRANCH  38  39
ATOM     39  O   UNL     1       8.533   6.036  -3.237  0.00  0.00    -0.381 OA
ATOM     40  C   UNL     1       8.530   4.949  -4.166  0.00  0.00    +0.194 C 
ENDBRANCH  38  39
ENDBRANCH  37  38
ENDBRANCH  36  37
ENDBRANCH   1  32
TORSDOF 7
