REMARK  Name = ZINC64218784
REMARK  13 active torsions:
REMARK  status: ('A' for Active; 'I' for Inactive)
REMARK    1  A    between atoms: C_1  and  C_2
REMARK    2  A    between atoms: C_3  and  C_34
REMARK    3  A    between atoms: C_4  and  C_33
REMARK    4  A    between atoms: C_7  and  C_8
REMARK    5  A    between atoms: N_10  and  C_11
REMARK    6  A    between atoms: C_11  and  C_12
REMARK    7  A    between atoms: C_12  and  C_14
REMARK    8  A    between atoms: C_12  and  C_24
REMARK    9  A    between atoms: C_18  and  O_22
REMARK   10  A    between atoms: C_19  and  O_20
REMARK   11  A    between atoms: O_20  and  C_21
REMARK   12  A    between atoms: O_22  and  C_23
REMARK   13  A    between atoms: C_34  and  C_36
REMARK                            x       y       z     vdW  Elec       q    Type
REMARK                         _______ _______ _______ _____ _____    ______ ____
ROOT
ATOM      1  C   UNL     1      -1.076  -2.365   5.621  0.00  0.00    +0.068 C 
ENDROOT
BRANCH   1   2
ATOM      2  C   UNL     1      -2.274  -3.161   5.174  0.00  0.00    -0.033 C 
ATOM      3  C   UNL     1      -2.279  -4.430   4.707  0.00  0.00    -0.000 A 
ATOM      4  C   UNL     1      -1.211  -5.411   4.483  0.00  0.00    +0.010 A 
ATOM      5  C   UNL     1      -1.532  -6.630   3.993  0.00  0.00    +0.001 A 
ATOM      6  C   UNL     1      -2.856  -6.979   3.694  0.00  0.00    +0.002 A 
ATOM      7  C   UNL     1      -3.891  -6.132   3.873  0.00  0.00    +0.026 A 
ATOM      8  C   UNL     1      -3.669  -4.823   4.383  0.00  0.00    +0.043 A 
ATOM      9  N   UNL     1      -4.492  -3.836   4.641  0.00  0.00    -0.380 N 
ATOM     10  C   UNL     1      -3.716  -2.705   5.163  0.00  0.00    +0.145 C 
ATOM     11  H   UNL     1      -5.453  -3.851   4.512  0.00  0.00    +0.160 HD
ENDBRANCH   1   2
BRANCH   1  12
ATOM     12  C   UNL     1      -1.243  -1.975   7.067  0.00  0.00    +0.007 A 
ATOM     13  C   UNL     1      -2.324  -1.206   7.455  0.00  0.00    +0.008 A 
ATOM     14  C   UNL     1      -2.480  -0.846   8.781  0.00  0.00    +0.004 A 
ATOM     15  C   UNL     1      -1.555  -1.254   9.725  0.00  0.00    +0.049 A 
ATOM     16  C   UNL     1      -0.469  -2.025   9.342  0.00  0.00    +0.162 A 
ATOM     17  C   UNL     1      -0.316  -2.392   8.008  0.00  0.00    +0.165 A 
BRANCH  17  18
ATOM     18  O   UNL     1       0.746  -3.153   7.629  0.00  0.00    -0.491 OA
ATOM     19  C   UNL     1       1.935  -2.461   7.242  0.00  0.00    +0.277 C 
ENDBRANCH  17  18
BRANCH  16  20
ATOM     20  O   UNL     1       0.441  -2.426  10.269  0.00  0.00    -0.491 OA
ATOM     21  C   UNL     1       0.216  -2.017  11.620  0.00  0.00    +0.277 C 
ENDBRANCH  16  20
ENDBRANCH   1  12
BRANCH   1  22
ATOM     22  C   UNL     1      -0.953  -1.103   4.764  0.00  0.00    +0.117 C 
BRANCH  22  25
ATOM     23  C   UNL     1      -0.521  -0.528   2.436  0.00  0.00    +0.261 C 
ATOM     24  O   UNL     1      -0.620   0.647   2.738  0.00  0.00    -0.269 OA
ATOM     25  N   UNL     1      -0.671  -1.481   3.377  0.00  0.00    -0.309 N 
ATOM     26  H   UNL     1      -0.593  -2.417   3.135  0.00  0.00    +0.149 HD
BRANCH  23  33
ATOM     27  C   UNL     1      -0.130   1.459   0.065  0.00  0.00    +0.047 C 
ATOM     28  C   UNL     1      -0.067  -0.045   0.004  0.00  0.00    -0.010 A 
ATOM     29  C   UNL     1       0.188  -0.832  -1.145  0.00  0.00    +0.041 A 
ATOM     30  C   UNL     1       0.153  -2.158  -0.744  0.00  0.00    +0.024 A 
ATOM     31  N   UNL     1      -0.108  -2.194   0.571  0.00  0.00    -0.354 N 
ATOM     32  H   UNL     1      -0.187  -3.000   1.105  0.00  0.00    +0.166 HD
ATOM     33  C   UNL     1      -0.239  -0.907   1.045  0.00  0.00    +0.106 A 
ATOM     34  C   UNL     1       0.371  -3.355  -1.633  0.00  0.00    +0.064 C 
BRANCH  29  35
ATOM     35  C   UNL     1       0.442  -0.337  -2.502  0.00  0.00    +0.162 C 
ATOM     36  O   UNL     1      -0.484  -0.161  -3.266  0.00  0.00    -0.292 OA
ATOM     37  C   UNL     1       1.852  -0.048  -2.948  0.00  0.00    +0.091 C 
ENDBRANCH  29  35
ENDBRANCH  23  33
ENDBRANCH  22  25
ENDBRANCH   1  22
TORSDOF 8
