REMARK  Name = ZINC13186601
REMARK  5 active torsions:
REMARK  status: ('A' for Active; 'I' for Inactive)
REMARK    1  A    between atoms: C_1  and  C_2
REMARK    2  A    between atoms: C_7  and  S_8
REMARK    3  A    between atoms: S_8  and  N_11
REMARK    4  A    between atoms: N_11  and  C_12
REMARK    5  A    between atoms: C_17  and  C_18
REMARK                            x       y       z     vdW  Elec       q    Type
REMARK                         _______ _______ _______ _____ _____    ______ ____
ROOT
ATOM      1  C   UNL     1       1.955  -0.695   1.482  0.00  0.00    +0.066 A 
ATOM      2  C   UNL     1       1.566  -1.395   0.348  0.00  0.00    +0.074 A 
ATOM      3  C   UNL     1       0.748  -2.506   0.470  0.00  0.00    +0.164 A 
ATOM      4  C   UNL     1       0.303  -2.920   1.723  0.00  0.00    +0.163 A 
ATOM      5  C   UNL     1       0.676  -2.233   2.857  0.00  0.00    +0.066 A 
ATOM      6  C   UNL     1       1.508  -1.111   2.747  0.00  0.00    +0.089 A 
ATOM      7  O   UNL     1      -0.509  -4.014   1.821  0.00  0.00    -0.488 OA
ATOM      8  C   UNL     1       0.093  -5.270   1.504  0.00  0.00    +0.232 C 
ATOM      9  C   UNL     1       0.060  -5.520   0.004  0.00  0.00    +0.082 C 
ATOM     10  C   UNL     1       0.904  -4.517  -0.768  0.00  0.00    +0.232 C 
ATOM     11  O   UNL     1       0.368  -3.199  -0.641  0.00  0.00    -0.488 OA
ENDROOT
BRANCH   6  12
ATOM     12  C   UNL     1       1.912  -0.371   3.952  0.00  0.00    +0.388 C 
ATOM     13  O   UNL     1       2.633   0.603   3.854  0.00  0.00    -0.241 OA
ATOM     14  O   UNL     1       1.482  -0.772   5.165  0.00  0.00    -0.241 OA
ENDBRANCH   6  12
BRANCH   1  15
ATOM     15  N   UNL     1       2.780   0.418   1.365  0.00  0.00    -0.215 N 
ATOM     16  H   UNL     1       3.449   0.599   2.044  0.00  0.00    +0.174 HD
BRANCH  15  17
ATOM     17  S   UNL     1       2.620   1.434   0.068  0.00  0.00    +0.073 S 
ATOM     18  O   UNL     1       2.712   0.624  -1.097  0.00  0.00    -0.150 OA
ATOM     19  O   UNL     1       3.492   2.532   0.302  0.00  0.00    -0.150 OA
BRANCH  17  26
ATOM     20  C   UNL     1       1.552   3.233   2.251  0.00  0.00    +0.046 C 
ATOM     21  C   UNL     1       0.582   2.893   1.149  0.00  0.00    -0.024 A 
ATOM     22  C   UNL     1      -0.706   3.393   1.183  0.00  0.00    +0.006 A 
ATOM     23  C   UNL     1      -1.594   3.085   0.170  0.00  0.00    +0.015 A 
ATOM     24  C   UNL     1      -1.197   2.267  -0.874  0.00  0.00    +0.020 A 
ATOM     25  C   UNL     1       0.091   1.763  -0.904  0.00  0.00    +0.044 A 
ATOM     26  C   UNL     1       0.980   2.076   0.107  0.00  0.00    +0.112 A 
ATOM     27 BR   UNL     1      -2.413   1.839  -2.256  0.00  0.00    -0.050 Br
ENDBRANCH  17  26
ENDBRANCH  15  17
ENDBRANCH   1  15
TORSDOF 4
