REMARK  Name = ZINC12819671
REMARK  4 active torsions:
REMARK  status: ('A' for Active; 'I' for Inactive)
REMARK    1  A    between atoms: N_12  and  C_16
REMARK    2  A    between atoms: C_16  and  C_17
REMARK    3  A    between atoms: C_17  and  C_19
REMARK    4  A    between atoms: C_28  and  C_29
REMARK                            x       y       z     vdW  Elec       q    Type
REMARK                         _______ _______ _______ _____ _____    ______ ____
ROOT
ATOM      1  C   UNL     1      -1.890  -1.762   0.011  0.00  0.00    +0.183 C 
ATOM      2  O   UNL     1      -3.086  -1.975   0.021  0.00  0.00    -0.290 OA
ENDROOT
BRANCH   1   3
ATOM      3  C   UNL     1      -1.409  -0.435   0.014  0.00  0.00    +0.052 A 
ATOM      4  C   UNL     1       0.002  -0.004   0.002  0.00  0.00    +0.011 A 
ATOM      5  C   UNL     1       1.216  -0.687  -0.014  0.00  0.00    +0.011 A 
ATOM      6  C   UNL     1       2.398   0.022  -0.022  0.00  0.00    +0.001 A 
ATOM      7  C   UNL     1       2.381   1.409  -0.014  0.00  0.00    +0.002 A 
ATOM      8  C   UNL     1       1.187   2.097   0.002  0.00  0.00    +0.026 A 
ATOM      9  C   UNL     1      -0.017   1.399   0.010  0.00  0.00    +0.048 A 
ATOM     10  N   UNL     1      -1.336   1.809   0.030  0.00  0.00    -0.354 N 
ATOM     11  H   UNL     1      -1.627   2.734   0.039  0.00  0.00    +0.166 HD
ATOM     12  C   UNL     1      -2.170   0.732   0.028  0.00  0.00    +0.058 A 
BRANCH  12  13
ATOM     13  C   UNL     1      -3.644   0.792   0.042  0.00  0.00    -0.001 A 
ATOM     14  C   UNL     1      -4.388  -0.025  -0.814  0.00  0.00    +0.013 A 
ATOM     15  C   UNL     1      -5.765   0.031  -0.791  0.00  0.00    +0.039 A 
ATOM     16  C   UNL     1      -6.412   0.905   0.070  0.00  0.00    +0.123 A 
ATOM     17  C   UNL     1      -5.679   1.721   0.917  0.00  0.00    +0.039 A 
ATOM     18  C   UNL     1      -4.301   1.670   0.908  0.00  0.00    +0.013 A 
ATOM     19  F   UNL     1      -7.761   0.960   0.083  0.00  0.00    -0.205 F 
ENDBRANCH  12  13
ENDBRANCH   1   3
BRANCH   1  20
ATOM     20  C   UNL     1      -0.921  -2.916  -0.005  0.00  0.00    +0.197 C 
BRANCH  20  32
ATOM     21  C   UNL     1      -6.723  -6.691  -2.101  0.00  0.00    +0.000 A 
ATOM     22  C   UNL     1      -6.415  -5.401  -1.711  0.00  0.00    +0.000 A 
ATOM     23  C   UNL     1      -5.157  -5.109  -1.223  0.00  0.00    +0.006 A 
ATOM     24  C   UNL     1      -4.199  -6.104  -1.121  0.00  0.00    -0.012 A 
ATOM     25  C   UNL     1      -4.507  -7.396  -1.512  0.00  0.00    -0.042 A 
ATOM     26  C   UNL     1      -5.769  -7.686  -2.002  0.00  0.00    +0.004 A 
ATOM     27  C   UNL     1      -3.306  -8.295  -1.306  0.00  0.00    +0.038 C 
ATOM     28  C   UNL     1      -2.104  -7.336  -1.148  0.00  0.00    +0.045 C 
ATOM     29  C   UNL     1      -2.776  -6.058  -0.632  0.00  0.00    +0.138 C 
ATOM     30  C   UNL     1      -2.059  -4.827  -1.122  0.00  0.00    +0.251 C 
ATOM     31  O   UNL     1      -1.877  -4.490  -2.272  0.00  0.00    -0.272 OA
ATOM     32  N   UNL     1      -1.663  -4.178  -0.005  0.00  0.00    -0.216 N 
ATOM     33  C   UNL     1      -2.030  -4.837   1.103  0.00  0.00    +0.310 C 
ATOM     34  O   UNL     1      -1.783  -4.454   2.230  0.00  0.00    -0.252 OA
ATOM     35  N   UNL     1      -2.706  -5.970   0.827  0.00  0.00    -0.281 N 
ATOM     36  H   UNL     1      -3.069  -6.602   1.466  0.00  0.00    +0.152 HD
ENDBRANCH  20  32
ENDBRANCH   1  20
TORSDOF 4
