REMARK  Name = ZINC53497687
REMARK  8 active torsions:
REMARK  status: ('A' for Active; 'I' for Inactive)
REMARK    1  A    between atoms: C_1  and  C_2
REMARK    2  A    between atoms: C_5  and  N_8
REMARK    3  A    between atoms: N_8  and  C_9
REMARK    4  A    between atoms: N_8  and  C_10
REMARK    5  A    between atoms: C_10  and  C_12
REMARK    6  A    between atoms: C_10  and  C_13
REMARK    7  A    between atoms: C_13  and  N_14
REMARK    8  A    between atoms: N_14  and  C_15
REMARK                            x       y       z     vdW  Elec       q    Type
REMARK                         _______ _______ _______ _____ _____    ______ ____
ROOT
ATOM      1  C   UNL     1      -3.380  -0.547   3.655  0.00  0.00    -0.089 C 
ATOM      2  C   UNL     1      -4.075   0.152   4.825  0.00  0.00    -0.015 C 
ENDROOT
BRANCH   1   3
ATOM      3  N   UNL     1      -1.964  -0.156   3.622  0.00  0.00    +0.380 N 
ATOM      4  C   UNL     1      -1.862   1.301   3.464  0.00  0.00    -0.096 C 
ATOM      5  H   UNL     1      -1.508  -0.611   2.845  0.00  0.00    -0.082 HD
BRANCH   3  10
ATOM      6  C   UNL     1       1.289  -2.931   5.154  0.00  0.00    +0.007 C 
ATOM      7  C   UNL     1       0.663  -2.166   6.322  0.00  0.00    -0.014 C 
ATOM      8  C   UNL     1      -0.832  -2.483   6.396  0.00  0.00    +0.002 C 
ATOM      9  C   UNL     1      -1.508  -2.063   5.089  0.00  0.00    -0.015 C 
ATOM     10  C   UNL     1      -1.315  -0.560   4.876  0.00  0.00    -0.069 C 
ATOM     11  C   UNL     1       0.179  -0.243   4.802  0.00  0.00    -0.015 C 
ATOM     12  C   UNL     1       0.855  -0.663   6.109  0.00  0.00    +0.002 C 
ENDBRANCH   3  10
ENDBRANCH   1   3
BRANCH   1  13
ATOM     13  C   UNL     1      -4.053  -0.136   2.344  0.00  0.00    -0.098 C 
BRANCH  13  14
ATOM     14  N   UNL     1      -3.324  -0.726   1.213  0.00  0.00    +0.380 N 
ATOM     15  H   UNL     1      -2.396  -0.332   1.169  0.00  0.00    -0.086 HD
ATOM     16  H   UNL     1      -3.260  -1.725   1.339  0.00  0.00    -0.086 HD
BRANCH  14  17
ATOM     17  C   UNL     1      -4.039  -0.435  -0.037  0.00  0.00    -0.072 C 
ATOM     18  C   UNL     1      -5.373  -1.209  -0.075  0.00  0.00    -0.016 C 
ATOM     19  C   UNL     1      -5.528  -1.625  -1.559  0.00  0.00    -0.002 C 
ATOM     20  C   UNL     1      -4.075  -1.972  -1.970  0.00  0.00    -0.002 C 
ATOM     21  C   UNL     1      -3.214  -0.920  -1.242  0.00  0.00    -0.016 C 
ENDBRANCH  14  17
ENDBRANCH  13  14
ENDBRANCH   1  13
TORSDOF 5
