REMARK  Name = ZINC38083834
REMARK  4 active torsions:
REMARK  status: ('A' for Active; 'I' for Inactive)
REMARK    1  A    between atoms: C_7  and  C_9
REMARK    2  A    between atoms: C_9  and  N_10
REMARK    3  A    between atoms: N_10  and  C_11
REMARK    4  A    between atoms: N_16  and  C_19
REMARK                            x       y       z     vdW  Elec       q    Type
REMARK                         _______ _______ _______ _____ _____    ______ ____
ROOT
ATOM      1  N   UNL     1      -1.421  -1.976  -0.215  0.00  0.00    +0.387 N 
ATOM      2  H   UNL     1      -0.755  -2.362  -0.867  0.00  0.00    -0.085 HD
ATOM      3  H   UNL     1      -1.153  -2.224   0.726  0.00  0.00    -0.085 HD
ENDROOT
BRANCH   1   4
ATOM      4  C   UNL     1      -2.757  -2.516  -0.501  0.00  0.00    +0.025 C 
ATOM      5  C   UNL     1      -2.744  -4.057  -0.439  0.00  0.00    +0.090 C 
ATOM      6  C   UNL     1      -3.716  -4.375   0.677  0.00  0.00    +0.221 C 
ATOM      7  O   UNL     1      -4.005  -5.488   1.060  0.00  0.00    -0.275 OA
ATOM      8  N   UNL     1      -4.204  -3.232   1.174  0.00  0.00    -0.240 N 
ATOM      9  C   UNL     1      -3.735  -2.122   0.584  0.00  0.00    +0.208 C 
ATOM     10  O   UNL     1      -4.042  -0.985   0.873  0.00  0.00    -0.277 OA
BRANCH   8  11
ATOM     11  C   UNL     1      -5.175  -3.195   2.271  0.00  0.00    +0.084 C 
ATOM     12  C   UNL     1      -5.894  -4.499   2.622  0.00  0.00    +0.025 C 
ATOM     13  C   UNL     1      -4.816  -3.944   3.556  0.00  0.00    +0.025 C 
ENDBRANCH   8  11
ENDBRANCH   1   4
BRANCH   1  14
ATOM     14  C   UNL     1      -1.445  -0.514  -0.348  0.00  0.00    -0.076 C 
BRANCH  14  21
ATOM     15  C   UNL     1      -0.100   1.586  -0.063  0.00  0.00    +0.026 C 
ATOM     16  C   UNL     1       1.338   2.157  -0.084  0.00  0.00    +0.166 C 
ATOM     17  S   UNL     1       2.289   0.827  -0.925  0.00  0.00    -0.031 S 
ATOM     18  O   UNL     1       2.703   1.292  -2.203  0.00  0.00    -0.174 OA
ATOM     19  O   UNL     1       3.257   0.309  -0.023  0.00  0.00    -0.174 OA
ATOM     20  C   UNL     1       0.947  -0.416  -1.145  0.00  0.00    +0.167 C 
ATOM     21  C   UNL     1      -0.054   0.049  -0.049  0.00  0.00    -0.006 C 
ENDBRANCH  14  21
ENDBRANCH   1  14
TORSDOF 4
