REMARK  Name = ZINC52712527
REMARK  12 active torsions:
REMARK  status: ('A' for Active; 'I' for Inactive)
REMARK    1  A    between atoms: C_1  and  C_2
REMARK    2  A    between atoms: C_2  and  O_3
REMARK    3  A    between atoms: O_3  and  C_4
REMARK    4  A    between atoms: C_11  and  C_13
REMARK    5  A    between atoms: C_13  and  C_15
REMARK    6  A    between atoms: C_13  and  N_16
REMARK    7  A    between atoms: N_16  and  C_17
REMARK    8  A    between atoms: C_17  and  C_19
REMARK    9  A    between atoms: C_17  and  C_20
REMARK   10  A    between atoms: N_25  and  C_26
REMARK   11  A    between atoms: C_26  and  C_27
REMARK   12  A    between atoms: C_26  and  C_28
REMARK                            x       y       z     vdW  Elec       q    Type
REMARK                         _______ _______ _______ _____ _____    ______ ____
ROOT
ATOM      1  N   UNL     1       2.583  -1.278  -6.325  0.00  0.00    +0.393 N 
ATOM      2  H   UNL     1       1.577  -1.343  -6.365  0.00  0.00    -0.084 HD
ATOM      3  H   UNL     1       2.846  -0.457  -5.801  0.00  0.00    -0.084 HD
ENDROOT
BRANCH   1   4
ATOM      4  C   UNL     1       3.125  -2.474  -5.668  0.00  0.00    -0.006 C 
ATOM      5  C   UNL     1       2.678  -2.499  -4.205  0.00  0.00    -0.006 C 
BRANCH   4  13
ATOM      6  C   UNL     1       0.149  -5.720  -8.031  0.00  0.00    +0.163 A 
ATOM      7  C   UNL     1       0.313  -6.993  -8.545  0.00  0.00    +0.049 A 
ATOM      8  C   UNL     1       1.534  -7.643  -8.444  0.00  0.00    +0.004 A 
ATOM      9  C   UNL     1       2.602  -7.026  -7.830  0.00  0.00    +0.012 A 
ATOM     10  C   UNL     1       2.451  -5.742  -7.308  0.00  0.00    +0.024 A 
ATOM     11  C   UNL     1       1.219  -5.078  -7.412  0.00  0.00    +0.176 A 
ATOM     12  O   UNL     1       1.366  -3.867  -6.834  0.00  0.00    -0.458 OA
ATOM     13  C   UNL     1       2.617  -3.707  -6.369  0.00  0.00    +0.092 A 
ATOM     14  C   UNL     1       3.343  -4.808  -6.610  0.00  0.00    +0.051 A 
BRANCH   6  15
ATOM     15  O   UNL     1      -1.053  -5.093  -8.135  0.00  0.00    -0.489 OA
BRANCH  15  17
ATOM     16  C   UNL     1      -3.371  -4.953  -8.805  0.00  0.00    +0.048 C 
ATOM     17  C   UNL     1      -2.105  -5.812  -8.783  0.00  0.00    +0.226 C 
ENDBRANCH  15  17
ENDBRANCH   6  15
ENDBRANCH   4  13
ENDBRANCH   1   4
BRANCH   1  18
ATOM     18  C   UNL     1       3.121  -1.182  -7.689  0.00  0.00    +0.014 C 
ATOM     19  C   UNL     1       4.630  -0.935  -7.625  0.00  0.00    -0.004 C 
BRANCH  18  20
ATOM     20  C   UNL     1       2.455  -0.040  -8.412  0.00  0.00    +0.206 C 
ATOM     21  O   UNL     1       1.616   0.628  -7.848  0.00  0.00    -0.277 OA
ATOM     22  N   UNL     1       2.794   0.239  -9.687  0.00  0.00    -0.242 N 
ATOM     23  C   UNL     1       2.198   1.261 -10.334  0.00  0.00    +0.306 C 
ATOM     24  O   UNL     1       1.356   1.930  -9.768  0.00  0.00    -0.252 OA
ATOM     25  N   UNL     1       2.537   1.540 -11.608  0.00  0.00    -0.297 N 
ATOM     26  H   UNL     1       3.466  -0.295 -10.138  0.00  0.00    +0.159 HD
ATOM     27  H   UNL     1       3.209   1.005 -12.060  0.00  0.00    +0.151 HD
BRANCH  25  28
ATOM     28  C   UNL     1       1.890   2.650 -12.312  0.00  0.00    +0.068 C 
ATOM     29  C   UNL     1       2.620   3.954 -11.987  0.00  0.00    +0.027 C 
ATOM     30  C   UNL     1       1.942   2.398 -13.820  0.00  0.00    +0.027 C 
ENDBRANCH  25  28
ENDBRANCH  18  20
ENDBRANCH   1  18
TORSDOF 7
