REMARK  Name = ZINC40704030
REMARK  5 active torsions:
REMARK  status: ('A' for Active; 'I' for Inactive)
REMARK    1  A    between atoms: C_9  and  O_11
REMARK    2  A    between atoms: O_11  and  C_12
REMARK    3  A    between atoms: C_13  and  N_27
REMARK    4  A    between atoms: C_14  and  N_18
REMARK    5  A    between atoms: N_18  and  C_19
REMARK                            x       y       z     vdW  Elec       q    Type
REMARK                         _______ _______ _______ _____ _____    ______ ____
ROOT
ATOM      1  C   UNL     1       0.002  -2.687   0.128  0.00  0.00    +0.246 A 
ATOM      2  C   UNL     1      -0.046  -4.079   0.203  0.00  0.00    +0.128 A 
ATOM      3  C   UNL     1      -1.295  -4.690   0.342  0.00  0.00    +0.151 A 
ATOM      4  N   UNL     1      -2.383  -3.926   0.397  0.00  0.00    -0.218 NA
ATOM      5  C   UNL     1      -2.293  -2.614   0.322  0.00  0.00    +0.227 A 
ATOM      6  N   UNL     1      -1.134  -1.999   0.196  0.00  0.00    -0.199 NA
ENDROOT
BRANCH   2   7
ATOM      7  N   UNL     1       1.128  -4.845   0.141  0.00  0.00    -0.351 N 
ATOM      8  H   UNL     1       1.988  -4.407   0.044  0.00  0.00    +0.143 HD
ATOM      9  H   UNL     1       1.080  -5.812   0.195  0.00  0.00    +0.143 HD
ENDBRANCH   2   7
BRANCH   3  10
ATOM     10  N   UNL     1      -1.399  -6.074   0.422  0.00  0.00    -0.298 N 
ATOM     11  H   UNL     1      -0.598  -6.618   0.472  0.00  0.00    +0.154 HD
BRANCH  10  12
ATOM     12  C   UNL     1      -2.658  -6.681   0.429  0.00  0.00    +0.034 A 
ATOM     13  C   UNL     1      -2.832  -7.916   1.040  0.00  0.00    +0.025 A 
ATOM     14  C   UNL     1      -4.076  -8.514   1.046  0.00  0.00    +0.023 A 
ATOM     15  C   UNL     1      -5.151  -7.884   0.443  0.00  0.00    +0.059 A 
ATOM     16  C   UNL     1      -4.982  -6.653  -0.167  0.00  0.00    +0.061 A 
ATOM     17  C   UNL     1      -3.739  -6.047  -0.170  0.00  0.00    +0.044 A 
ATOM     18 CL   UNL     1      -6.332  -5.866  -0.923  0.00  0.00    -0.082 Cl
ATOM     19 CL   UNL     1      -6.714  -8.639   0.451  0.00  0.00    -0.082 Cl
ENDBRANCH  10  12
ENDBRANCH   3  10
BRANCH   1  20
ATOM     20  O   UNL     1       1.189  -2.045  -0.008  0.00  0.00    -0.434 OA
BRANCH  20  29
ATOM     21  C   UNL     1       1.238   1.432  -1.109  0.00  0.00    +0.004 A 
ATOM     22  C   UNL     1       1.188   2.110   0.071  0.00  0.00    +0.010 A 
ATOM     23  C   UNL     1       1.135   1.403   1.282  0.00  0.00    +0.004 A 
ATOM     24  C   UNL     1       1.082   2.074   2.519  0.00  0.00    +0.011 A 
ATOM     25  C   UNL     1       1.032   1.323   3.659  0.00  0.00    +0.020 A 
ATOM     26  C   UNL     1       1.035  -0.068   3.575  0.00  0.00    +0.111 A 
ATOM     27  N   UNL     1       1.085  -0.689   2.421  0.00  0.00    -0.251 NA
ATOM     28  C   UNL     1       1.135  -0.013   1.270  0.00  0.00    +0.113 A 
ATOM     29  C   UNL     1       1.188  -0.688   0.032  0.00  0.00    +0.156 A 
ATOM     30  C   UNL     1       1.238   0.040  -1.135  0.00  0.00    +0.048 A 
ENDBRANCH  20  29
ENDBRANCH   1  20
TORSDOF 5
