REMARK  Name = ZINC01731261
REMARK  0 active torsions:
REMARK  status: ('A' for Active; 'I' for Inactive)
REMARK                            x       y       z     vdW  Elec       q    Type
REMARK                         _______ _______ _______ _____ _____    ______ ____
ROOT
ATOM      1  C   UNL     1      -0.709   3.093   0.025  0.00  0.00    +0.179 A 
ATOM      2  C   UNL     1      -1.148   1.763   0.016  0.00  0.00    +0.179 A 
ATOM      3  N   UNL     1      -0.011   0.966   0.007  0.00  0.00    -0.290 N 
ATOM      4  H   UNL     1       0.002  -0.004   0.002  0.00  0.00    +0.172 HD
ATOM      5  C   UNL     1       1.070   1.768   0.001  0.00  0.00    +0.327 A 
ATOM      6  O   UNL     1       2.225   1.387  -0.011  0.00  0.00    -0.247 OA
ATOM      7  N   UNL     1       0.679   3.057   0.012  0.00  0.00    -0.290 N 
ATOM      8  H   UNL     1       1.267   3.828   0.011  0.00  0.00    +0.172 HD
ATOM      9  N   UNL     1      -2.444   1.496   0.033  0.00  0.00    -0.211 NA
ATOM     10  C   UNL     1      -3.320   2.488   0.046  0.00  0.00    +0.168 A 
ATOM     11  C   UNL     1      -2.886   3.803   0.049  0.00  0.00    +0.168 A 
ATOM     12  N   UNL     1      -1.591   4.079   0.039  0.00  0.00    -0.211 NA
ATOM     13 CL   UNL     1      -4.044   5.096   0.067  0.00  0.00    -0.059 Cl
ATOM     14 CL   UNL     1      -5.021   2.139   0.059  0.00  0.00    -0.059 Cl
ENDROOT
TORSDOF 0
