REMARK  Name = ZINC02569558
REMARK  5 active torsions:
REMARK  status: ('A' for Active; 'I' for Inactive)
REMARK    1  A    between atoms: C_4  and  C_7
REMARK    2  A    between atoms: C_7  and  O_9
REMARK    3  A    between atoms: O_9  and  C_10
REMARK    4  A    between atoms: C_17  and  C_19
REMARK    5  A    between atoms: C_19  and  O_20
REMARK                            x       y       z     vdW  Elec       q    Type
REMARK                         _______ _______ _______ _____ _____    ______ ____
ROOT
ATOM      1  C   UNL     1       5.173  -2.699  -0.100  0.00  0.00    +0.186 C 
ATOM      2  C   UNL     1       5.581  -3.087  -1.533  0.00  0.00    +0.090 C 
ATOM      3  C   UNL     1       6.288  -4.447  -1.415  0.00  0.00    +0.184 C 
ATOM      4  C   UNL     1       5.844  -5.062  -0.065  0.00  0.00    +0.049 C 
ATOM      5  C   UNL     1       4.931  -4.037   0.621  0.00  0.00    +0.062 C 
ATOM      6  C   UNL     1       7.178  -5.161   0.716  0.00  0.00    +0.128 C 
ATOM      7  C   UNL     1       8.204  -5.118  -0.412  0.00  0.00    +0.308 C 
ATOM      8  O   UNL     1       9.234  -5.744  -0.496  0.00  0.00    -0.251 OA
ATOM      9  O   UNL     1       7.707  -4.225  -1.317  0.00  0.00    -0.461 OA
ENDROOT
BRANCH   1  10
ATOM     10  O   UNL     1       3.975  -1.920  -0.118  0.00  0.00    -0.457 OA
BRANCH  10  11
ATOM     11  C   UNL     1       4.117  -0.580  -0.150  0.00  0.00    +0.339 C 
ATOM     12  O   UNL     1       5.227  -0.087  -0.163  0.00  0.00    -0.245 OA
BRANCH  11  16
ATOM     13  C   UNL     1       0.683   1.918  -0.209  0.00  0.00    +0.000 A 
ATOM     14  C   UNL     1       1.946   2.483  -0.223  0.00  0.00    +0.001 A 
ATOM     15  C   UNL     1       3.066   1.677  -0.204  0.00  0.00    +0.015 A 
ATOM     16  C   UNL     1       2.922   0.289  -0.170  0.00  0.00    +0.059 A 
ATOM     17  C   UNL     1       1.645  -0.275  -0.156  0.00  0.00    +0.015 A 
ATOM     18  C   UNL     1       0.534   0.542  -0.176  0.00  0.00    +0.001 A 
ENDBRANCH  11  16
ENDBRANCH  10  11
ENDBRANCH   1  10
BRANCH   5  19
ATOM     19  C   UNL     1       5.296  -3.911   2.102  0.00  0.00    +0.163 C 
BRANCH  19  20
ATOM     20  O   UNL     1       4.379  -3.023   2.744  0.00  0.00    -0.395 OA
ATOM     21  H   UNL     1       4.551  -2.895   3.687  0.00  0.00    +0.209 HD
ENDBRANCH  19  20
ENDBRANCH   5  19
TORSDOF 5
