REMARK  Name = ZINC32051415
REMARK  12 active torsions:
REMARK  status: ('A' for Active; 'I' for Inactive)
REMARK    1  A    between atoms: C_1  and  C_2
REMARK    2  A    between atoms: C_2  and  O_3
REMARK    3  A    between atoms: O_3  and  C_4
REMARK    4  A    between atoms: C_6  and  C_12
REMARK    5  A    between atoms: C_9  and  O_10
REMARK    6  A    between atoms: C_12  and  C_14
REMARK    7  A    between atoms: C_12  and  N_16
REMARK    8  A    between atoms: C_14  and  N_15
REMARK    9  A    between atoms: N_16  and  C_17
REMARK   10  A    between atoms: N_16  and  C_18
REMARK   11  A    between atoms: C_18  and  C_19
REMARK   12  A    between atoms: C_19  and  O_20
REMARK                            x       y       z     vdW  Elec       q    Type
REMARK                         _______ _______ _______ _____ _____    ______ ____
ROOT
ATOM      1  C   UNL     1      -3.425   0.486  -4.559  0.00  0.00    +0.163 A 
ATOM      2  C   UNL     1      -2.599   0.433  -3.446  0.00  0.00    +0.054 A 
ATOM      3  C   UNL     1      -2.904   1.180  -2.324  0.00  0.00    -0.027 A 
ATOM      4  C   UNL     1      -4.025   1.989  -2.311  0.00  0.00    +0.029 A 
ATOM      5  C   UNL     1      -4.850   2.050  -3.419  0.00  0.00    +0.086 A 
ATOM      6  C   UNL     1      -4.553   1.299  -4.546  0.00  0.00    +0.177 A 
ATOM      7 CL   UNL     1      -6.257   3.067  -3.399  0.00  0.00    -0.080 Cl
ENDROOT
BRANCH   6   8
ATOM      8  O   UNL     1      -5.363   1.358  -5.637  0.00  0.00    -0.502 OA
ATOM      9  H   UNL     1      -6.255   2.002  -5.626  0.00  0.00    +0.292 HD
ENDBRANCH   6   8
BRANCH   1  10
ATOM     10  O   UNL     1      -3.129  -0.252  -5.662  0.00  0.00    -0.489 OA
BRANCH  10  12
ATOM     11  C   UNL     1      -1.788  -1.815  -6.926  0.00  0.00    +0.048 C 
ATOM     12  C   UNL     1      -1.955  -1.065  -5.604  0.00  0.00    +0.226 C 
ENDBRANCH  10  12
ENDBRANCH   1  10
BRANCH   3  13
ATOM     13  C   UNL     1      -2.008   1.116  -1.113  0.00  0.00    +0.069 C 
BRANCH  13  14
ATOM     14  N   UNL     1      -2.830   1.112   0.104  0.00  0.00    -0.298 NA
ATOM     15  C   UNL     1      -3.947   0.166  -0.018  0.00  0.00    +0.105 C 
BRANCH  14  16
ATOM     16  C   UNL     1      -2.014   0.812   1.289  0.00  0.00    +0.112 C 
BRANCH  16  17
ATOM     17  C   UNL     1      -1.523  -0.635   1.217  0.00  0.00    +0.171 C 
BRANCH  17  18
ATOM     18  O   UNL     1      -0.575  -0.764   0.156  0.00  0.00    -0.394 OA
ATOM     19  H   UNL     1      -0.109  -1.739  -0.050  0.00  0.00    +0.209 HD
ENDBRANCH  17  18
ENDBRANCH  16  17
ENDBRANCH  14  16
ENDBRANCH  13  14
BRANCH  13  20
ATOM     20  C   UNL     1      -1.083   2.335  -1.099  0.00  0.00    -0.063 C 
BRANCH  20  21
ATOM     21  N   UNL     1      -0.120   2.206   0.003  0.00  0.00    +0.379 N 
ATOM     22  H   UNL     1       0.545   3.082   0.013  0.00  0.00    -0.090 HD
ATOM     23  H   UNL     1       0.477   1.293  -0.137  0.00  0.00    -0.090 HD
ATOM     24  H   UNL     1      -0.662   2.146   0.958  0.00  0.00    -0.090 HD
ENDBRANCH  20  21
ENDBRANCH  13  20
ENDBRANCH   3  13
TORSDOF 10
