REMARK  Name = ZINC59489428
REMARK  8 active torsions:
REMARK  status: ('A' for Active; 'I' for Inactive)
REMARK    1  A    between atoms: C_1  and  C_2
REMARK    2  A    between atoms: C_2  and  C_24
REMARK    3  A    between atoms: N_3  and  N_4
REMARK    4  A    between atoms: C_5  and  S_7
REMARK    5  A    between atoms: S_7  and  C_8
REMARK    6  A    between atoms: N_13  and  C_16
REMARK    7  A    between atoms: C_21  and  O_22
REMARK    8  A    between atoms: O_22  and  C_23
REMARK                            x       y       z     vdW  Elec       q    Type
REMARK                         _______ _______ _______ _____ _____    ______ ____
ROOT
ATOM      1  N   UNL     1       0.024   0.035   2.340  0.00  0.00    -0.217 N 
ATOM      2  C   UNL     1       0.044  -0.660   3.528  0.00  0.00    +0.146 C 
ATOM      3  N   UNL     1       0.062  -1.964   3.521  0.00  0.00    -0.380 N 
ATOM      4  H   UNL     1       0.011   1.005   2.345  0.00  0.00    +0.176 HD
ATOM      5  H   UNL     1       0.077  -2.454   4.359  0.00  0.00    +0.158 HD
ATOM      6  H   UNL     1       0.061  -2.445   2.679  0.00  0.00    +0.158 HD
ENDROOT
BRANCH   1   9
ATOM      7  C   UNL     1      -0.018   1.503   0.010  0.00  0.00    +0.068 C 
ATOM      8  C   UNL     1       0.002  -0.004   0.002  0.00  0.00    +0.063 C 
ATOM      9  N   UNL     1       0.022  -0.659   1.122  0.00  0.00    -0.185 NA
BRANCH   8  10
ATOM     10  C   UNL     1      -0.000  -0.734  -1.279  0.00  0.00    -0.002 A 
ATOM     11  C   UNL     1      -0.015  -0.019  -2.491  0.00  0.00    +0.010 A 
ATOM     12  C   UNL     1      -0.018  -0.669  -3.682  0.00  0.00    +0.009 A 
ATOM     13  C   UNL     1      -0.005  -2.075  -3.717  0.00  0.00    -0.018 A 
ATOM     14  C   UNL     1      -0.007  -2.769  -4.938  0.00  0.00    +0.008 A 
ATOM     15  C   UNL     1       0.007  -4.131  -4.941  0.00  0.00    +0.001 A 
ATOM     16  C   UNL     1       0.022  -4.851  -3.748  0.00  0.00    +0.001 A 
ATOM     17  C   UNL     1       0.024  -4.214  -2.546  0.00  0.00    +0.008 A 
ATOM     18  C   UNL     1       0.011  -2.808  -2.503  0.00  0.00    -0.017 A 
ATOM     19  C   UNL     1       0.019  -2.120  -1.280  0.00  0.00    +0.018 A 
ENDBRANCH   8  10
ENDBRANCH   1   9
BRANCH   2  20
ATOM     20  S   UNL     1       0.047   0.213   5.059  0.00  0.00    -0.078 S 
BRANCH  20  21
ATOM     21  C   UNL     1       0.077  -1.099   6.312  0.00  0.00    +0.149 C 
ATOM     22  C   UNL     1       0.154  -0.494   7.729  0.00  0.00    +0.120 C 
ATOM     23  C   UNL     1      -1.120  -0.974   8.389  0.00  0.00    +0.228 C 
ATOM     24  O   UNL     1      -1.460  -0.723   9.525  0.00  0.00    -0.275 OA
ATOM     25  N   UNL     1      -1.813  -1.721   7.519  0.00  0.00    -0.206 N 
ATOM     26  C   UNL     1      -1.231  -1.859   6.318  0.00  0.00    +0.240 C 
ATOM     27  O   UNL     1      -1.680  -2.491   5.385  0.00  0.00    -0.274 OA
BRANCH  25  28
ATOM     28  C   UNL     1      -3.045  -2.311   7.838  0.00  0.00    +0.085 A 
ATOM     29  C   UNL     1      -4.227  -1.625   7.603  0.00  0.00    +0.027 A 
ATOM     30  C   UNL     1      -5.439  -2.208   7.917  0.00  0.00    +0.002 A 
ATOM     31  C   UNL     1      -5.478  -3.477   8.467  0.00  0.00    +0.004 A 
ATOM     32  C   UNL     1      -4.305  -4.167   8.705  0.00  0.00    +0.047 A 
ATOM     33  C   UNL     1      -3.085  -3.591   8.387  0.00  0.00    +0.142 A 
BRANCH  33  34
ATOM     34  O   UNL     1      -1.930  -4.271   8.615  0.00  0.00    -0.493 OA
ATOM     35  C   UNL     1      -2.047  -5.578   9.179  0.00  0.00    +0.277 C 
ENDBRANCH  33  34
ENDBRANCH  25  28
ENDBRANCH  20  21
ENDBRANCH   2  20
TORSDOF 6
