REMARK  Name = ZINC49023507
REMARK  5 active torsions:
REMARK  status: ('A' for Active; 'I' for Inactive)
REMARK    1  A    between atoms: C_1  and  C_2
REMARK    2  A    between atoms: C_2  and  C_4
REMARK    3  A    between atoms: C_2  and  N_10
REMARK    4  A    between atoms: C_4  and  N_5
REMARK    5  A    between atoms: C_17  and  C_19
REMARK                            x       y       z     vdW  Elec       q    Type
REMARK                         _______ _______ _______ _____ _____    ______ ____
ROOT
ATOM      1  N   UNL     1       0.688  -0.476  -1.203  0.00  0.00    -0.295 N 
ATOM      2  C   UNL     1       0.006  -0.608  -2.358  0.00  0.00    +0.306 C 
ATOM      3  O   UNL     1      -1.178  -0.335  -2.400  0.00  0.00    -0.252 OA
ATOM      4  N   UNL     1       0.637  -1.043  -3.467  0.00  0.00    -0.247 N 
ATOM      5  C   UNL     1      -0.066  -1.179  -4.660  0.00  0.00    +0.189 A 
ATOM      6  N   UNL     1      -1.337  -0.931  -4.908  0.00  0.00    -0.125 NA
ATOM      7  N   UNL     1      -1.839  -1.104  -6.054  0.00  0.00    -0.139 NA
ATOM      8  C   UNL     1      -1.072  -1.544  -7.031  0.00  0.00    +0.169 A 
ATOM      9  S   UNL     1       0.485  -1.696  -6.166  0.00  0.00    -0.030 S 
ATOM     10  H   UNL     1       1.632  -0.695  -1.170  0.00  0.00    +0.151 HD
ATOM     11  H   UNL     1       1.582  -1.261  -3.434  0.00  0.00    +0.158 HD
ENDROOT
BRANCH   8  12
ATOM     12  C   UNL     1      -1.410  -1.833  -8.471  0.00  0.00    +0.398 C 
ATOM     13  F   UNL     1      -2.444  -0.987  -8.886  0.00  0.00    -0.202 F 
ATOM     14  F   UNL     1      -0.281  -1.616  -9.268  0.00  0.00    -0.202 F 
ENDBRANCH   8  12
BRANCH   1  16
ATOM     15  C   UNL     1      -0.019   1.526   0.010  0.00  0.00    +0.029 C 
ATOM     16  C   UNL     1       0.002  -0.004   0.002  0.00  0.00    +0.091 C 
BRANCH  16  17
ATOM     17  C   UNL     1       0.742  -0.511   1.242  0.00  0.00    +0.144 C 
BRANCH  17  18
ATOM     18  N   UNL     1       0.659  -1.972   1.296  0.00  0.00    -0.337 N 
ATOM     19  C   UNL     1      -0.320  -2.708   1.907  0.00  0.00    +0.104 A 
ATOM     20  C   UNL     1      -0.010  -4.005   1.716  0.00  0.00    +0.101 A 
ATOM     21  N   UNL     1       1.127  -4.059   1.008  0.00  0.00    -0.352 N 
ATOM     22  C   UNL     1       1.531  -2.846   0.748  0.00  0.00    +0.173 A 
ATOM     23  H   UNL     1       1.577  -4.872   0.729  0.00  0.00    +0.166 HD
ENDBRANCH  17  18
ENDBRANCH  16  17
ENDBRANCH   1  16
TORSDOF 4
