REMARK  Name = ZINC39684663
REMARK  10 active torsions:
REMARK  status: ('A' for Active; 'I' for Inactive)
REMARK    1  A    between atoms: C_1  and  C_2
REMARK    2  A    between atoms: C_2  and  C_4
REMARK    3  A    between atoms: C_2  and  N_8
REMARK    4  A    between atoms: C_4  and  C_5
REMARK    5  A    between atoms: C_4  and  C_6
REMARK    6  A    between atoms: C_4  and  C_7
REMARK    7  A    between atoms: C_9  and  C_11
REMARK    8  A    between atoms: C_22  and  C_24
REMARK    9  A    between atoms: C_27  and  O_31
REMARK   10  A    between atoms: O_31  and  C_32
REMARK                            x       y       z     vdW  Elec       q    Type
REMARK                         _______ _______ _______ _____ _____    ______ ____
ROOT
ATOM      1  C   UNL     1       0.362  -1.560   3.226  0.00  0.00    +0.100 C 
ATOM      2  C   UNL     1       1.069  -2.934   3.216  0.00  0.00    +0.121 C 
ATOM      3  N   UNL     1       0.898  -3.454   4.593  0.00  0.00    -0.296 N 
ATOM      4  C   UNL     1      -0.483  -3.062   4.966  0.00  0.00    +0.115 C 
ATOM      5  C   UNL     1      -0.656  -1.648   4.375  0.00  0.00    -0.004 C 
ATOM      6  C   UNL     1      -2.073  -1.470   3.840  0.00  0.00    -0.010 C 
ATOM      7  C   UNL     1      -3.063  -1.503   5.009  0.00  0.00    -0.082 C 
ATOM      8  N   UNL     1      -2.738  -0.431   5.957  0.00  0.00    +0.379 N 
ATOM      9  C   UNL     1      -1.409  -0.661   6.537  0.00  0.00    -0.082 C 
ATOM     10  C   UNL     1      -0.350  -0.593   5.434  0.00  0.00    -0.010 C 
ATOM     11  C   UNL     1       1.794  -4.129   5.338  0.00  0.00    +0.247 C 
ATOM     12  O   UNL     1       2.936  -4.265   4.942  0.00  0.00    -0.270 OA
ATOM     13  H   UNL     1      -2.745   0.456   5.476  0.00  0.00    -0.086 HD
ATOM     14  H   UNL     1      -3.427  -0.416   6.694  0.00  0.00    -0.086 HD
ENDROOT
BRANCH  11  15
ATOM     15  C   UNL     1       1.391  -4.705   6.636  0.00  0.00    +0.040 A 
ATOM     16  C   UNL     1       0.041  -4.945   6.907  0.00  0.00    +0.036 A 
ATOM     17  C   UNL     1      -0.332  -5.482   8.120  0.00  0.00    +0.085 A 
ATOM     18  C   UNL     1       0.633  -5.785   9.074  0.00  0.00    +0.157 A 
ATOM     19  C   UNL     1       1.977  -5.548   8.809  0.00  0.00    +0.085 A 
ATOM     20  C   UNL     1       2.358  -5.017   7.595  0.00  0.00    +0.036 A 
ATOM     21 CL   UNL     1       3.178  -5.928  10.004  0.00  0.00    -0.080 Cl
ATOM     22 CL   UNL     1      -2.008  -5.781   8.457  0.00  0.00    -0.080 Cl
BRANCH  18  23
ATOM     23  O   UNL     1       0.262  -6.314  10.268  0.00  0.00    -0.492 OA
ATOM     24  C   UNL     1       0.196  -7.739  10.354  0.00  0.00    +0.277 C 
ENDBRANCH  18  23
ENDBRANCH  11  15
BRANCH   1  26
ATOM     25  N   UNL     1      -0.493  -0.069   1.447  0.00  0.00    -0.312 N 
ATOM     26  C   UNL     1      -0.344  -1.324   1.916  0.00  0.00    +0.218 C 
ATOM     27  O   UNL     1      -0.779  -2.263   1.284  0.00  0.00    -0.275 OA
ATOM     28  H   UNL     1      -0.145   0.682   1.953  0.00  0.00    +0.149 HD
BRANCH  25  30
ATOM     29  C   UNL     1      -2.690   0.229   0.414  0.00  0.00    +0.028 C 
ATOM     30  C   UNL     1      -1.180   0.161   0.174  0.00  0.00    +0.075 C 
BRANCH  30  31
ATOM     31  C   UNL     1      -0.700   1.481  -0.433  0.00  0.00    -0.020 C 
ATOM     32  C   UNL     1      -1.013   2.628   0.529  0.00  0.00    +0.012 C 
ATOM     33  C   UNL     1       0.809   1.413  -0.673  0.00  0.00    +0.012 C 
ATOM     34  C   UNL     1      -1.418   1.721  -1.763  0.00  0.00    +0.012 C 
ENDBRANCH  30  31
ENDBRANCH  25  30
ENDBRANCH   1  26
TORSDOF 5
