REMARK  Name = ZINC31977895
REMARK  6 active torsions:
REMARK  status: ('A' for Active; 'I' for Inactive)
REMARK    1  A    between atoms: N_9  and  C_11
REMARK    2  A    between atoms: C_11  and  C_12
REMARK    3  A    between atoms: C_12  and  O_13
REMARK    4  A    between atoms: O_13  and  C_14
REMARK    5  A    between atoms: C_18  and  C_19
REMARK    6  A    between atoms: C_19  and  N_20
REMARK                            x       y       z     vdW  Elec       q    Type
REMARK                         _______ _______ _______ _____ _____    ______ ____
ROOT
ATOM      1  C   UNL     1       5.474   2.786  -0.034  0.00  0.00    -0.037 C 
ENDROOT
BRANCH   1  10
ATOM      2  C   UNL     1       6.863   1.407  -6.157  0.00  0.00    +0.000 A 
ATOM      3  C   UNL     1       5.582   1.924  -6.096  0.00  0.00    +0.000 A 
ATOM      4  C   UNL     1       5.072   2.357  -4.889  0.00  0.00    +0.002 A 
ATOM      5  C   UNL     1       5.837   2.277  -3.734  0.00  0.00    -0.061 A 
ATOM      6  C   UNL     1       7.113   1.758  -3.795  0.00  0.00    -0.048 A 
ATOM      7  C   UNL     1       7.625   1.325  -5.009  0.00  0.00    +0.004 A 
ATOM      8  C   UNL     1       7.980   1.645  -2.567  0.00  0.00    +0.017 C 
ATOM      9  C   UNL     1       7.423   2.530  -1.452  0.00  0.00    -0.074 C 
ATOM     10  N   UNL     1       5.989   2.240  -1.297  0.00  0.00    +0.385 N 
ATOM     11  C   UNL     1       5.239   2.766  -2.442  0.00  0.00    -0.043 C 
ATOM     12  H   UNL     1       5.853   1.149  -1.268  0.00  0.00    -0.081 HD
ENDBRANCH   1  10
BRANCH   1  13
ATOM     13  C   UNL     1       3.947   2.688  -0.021  0.00  0.00    +0.210 C 
BRANCH  13  14
ATOM     14  O   UNL     1       3.558   1.313  -0.024  0.00  0.00    -0.493 OA
BRANCH  14  15
ATOM     15  C   UNL     1       2.222   1.048  -0.013  0.00  0.00    +0.129 A 
ATOM     16  C   UNL     1       1.300   2.081   0.001  0.00  0.00    +0.053 A 
ATOM     17  C   UNL     1      -0.022   1.781   0.012  0.00  0.00    +0.049 A 
ATOM     18  S   UNL     1       0.002  -0.004   0.002  0.00  0.00    -0.100 S 
ATOM     19  C   UNL     1       1.772  -0.233  -0.016  0.00  0.00    +0.014 A 
BRANCH  19  20
ATOM     20  C   UNL     1       2.563  -1.516  -0.031  0.00  0.00    -0.039 C 
BRANCH  20  21
ATOM     21  N   UNL     1       2.833  -1.940   1.350  0.00  0.00    +0.381 N 
ATOM     22  H   UNL     1       3.410  -2.877   1.339  0.00  0.00    -0.090 HD
ATOM     23  H   UNL     1       1.881  -2.102   1.877  0.00  0.00    -0.090 HD
ATOM     24  H   UNL     1       3.411  -1.159   1.867  0.00  0.00    -0.090 HD
ENDBRANCH  20  21
ENDBRANCH  19  20
ENDBRANCH  14  15
ENDBRANCH  13  14
ENDBRANCH   1  13
TORSDOF 6
