REMARK  Name = ZINC48924585
REMARK  7 active torsions:
REMARK  status: ('A' for Active; 'I' for Inactive)
REMARK    1  A    between atoms: C_1  and  C_2
REMARK    2  A    between atoms: C_3  and  C_21
REMARK    3  A    between atoms: N_7  and  C_8
REMARK    4  A    between atoms: C_8  and  C_9
REMARK    5  A    between atoms: N_11  and  C_12
REMARK    6  A    between atoms: C_12  and  C_14
REMARK    7  A    between atoms: C_12  and  C_15
REMARK                            x       y       z     vdW  Elec       q    Type
REMARK                         _______ _______ _______ _____ _____    ______ ____
ROOT
ATOM      1  C   UNL     1      -1.393   0.178   2.916  0.00  0.00    +0.233 C 
ATOM      2  O   UNL     1      -2.317  -0.202   2.228  0.00  0.00    -0.274 OA
ATOM      3  N   UNL     1      -1.636   0.792   4.091  0.00  0.00    -0.309 N 
ATOM      4  H   UNL     1      -0.897   1.096   4.641  0.00  0.00    +0.149 HD
ENDROOT
BRANCH   3   5
ATOM      5  C   UNL     1      -3.016   1.002   4.536  0.00  0.00    +0.099 C 
ATOM      6  C   UNL     1      -3.562   2.290   3.917  0.00  0.00    +0.030 C 
BRANCH   5   7
ATOM      7  C   UNL     1      -3.048   1.116   6.061  0.00  0.00    +0.138 C 
ATOM      8  C   UNL     1      -4.509   1.216   6.549  0.00  0.00    +0.035 C 
ATOM      9  C   UNL     1      -4.404   2.257   7.696  0.00  0.00    +0.031 C 
ATOM     10  C   UNL     1      -3.289   3.184   7.150  0.00  0.00    +0.160 C 
ATOM     11  O   UNL     1      -2.370   2.309   6.473  0.00  0.00    -0.375 OA
ENDBRANCH   5   7
ENDBRANCH   3   5
BRANCH   1  12
ATOM     12  C   UNL     1       0.026  -0.038   2.458  0.00  0.00    +0.221 C 
BRANCH  12  19
ATOM     13  C   UNL     1      -0.018   1.503   0.010  0.00  0.00    +0.064 C 
ATOM     14  C   UNL     1       0.002  -0.004   0.002  0.00  0.00    +0.030 A 
ATOM     15  C   UNL     1       0.006  -0.694  -1.142  0.00  0.00    +0.011 A 
ATOM     16  S   UNL     1       0.032  -2.377  -0.554  0.00  0.00    -0.032 S 
ATOM     17  C   UNL     1       0.035  -2.069   1.099  0.00  0.00    +0.291 A 
ATOM     18  O   UNL     1       0.050  -2.869   2.018  0.00  0.00    -0.259 OA
ATOM     19  N   UNL     1       0.023  -0.721   1.162  0.00  0.00    -0.297 N 
ATOM     20  C   UNL     1      -0.008  -0.183  -2.560  0.00  0.00    +0.053 C 
ENDBRANCH  12  19
ENDBRANCH   1  12
TORSDOF 4
