REMARK  Name = ZINC62894624
REMARK  6 active torsions:
REMARK  status: ('A' for Active; 'I' for Inactive)
REMARK    1  A    between atoms: C_1  and  C_2
REMARK    2  A    between atoms: C_2  and  C_7
REMARK    3  A    between atoms: N_12  and  C_15
REMARK    4  A    between atoms: C_15  and  C_16
REMARK    5  A    between atoms: N_18  and  C_19
REMARK    6  A    between atoms: N_18  and  C_20
REMARK                            x       y       z     vdW  Elec       q    Type
REMARK                         _______ _______ _______ _____ _____    ______ ____
ROOT
ATOM      1  C   UNL     1      -1.401  -0.547   0.084  0.00  0.00    +0.220 C 
ATOM      2  O   UNL     1      -1.743  -1.201   1.047  0.00  0.00    -0.275 OA
ATOM      3  N   UNL     1      -2.274  -0.313  -0.916  0.00  0.00    -0.299 N 
ATOM      4  C   UNL     1      -1.847   0.370  -2.146  0.00  0.00    +0.123 C 
ATOM      5  C   UNL     1      -2.288  -0.472  -3.348  0.00  0.00    +0.104 C 
ATOM      6  N   UNL     1      -3.730  -0.737  -3.253  0.00  0.00    -0.291 NA
ATOM      7  C   UNL     1      -4.048  -1.532  -2.060  0.00  0.00    +0.104 C 
ATOM      8  C   UNL     1      -3.678  -0.739  -0.807  0.00  0.00    +0.123 C 
ENDROOT
BRANCH   1  10
ATOM      9  C   UNL     1      -0.036   1.524  -0.152  0.00  0.00    +0.019 C 
ATOM     10  C   UNL     1      -0.000   0.003   0.006  0.00  0.00    +0.028 C 
ATOM     11  C   UNL     1       0.766  -0.641  -1.172  0.00  0.00    -0.005 C 
ATOM     12  C   UNL     1       2.189  -0.841  -0.592  0.00  0.00    -0.082 C 
ATOM     13  N   UNL     1       1.930  -1.226   0.819  0.00  0.00    +0.380 N 
ATOM     14  C   UNL     1       0.797  -0.385   1.265  0.00  0.00    -0.067 C 
ATOM     15  H   UNL     1       1.681  -2.202   0.873  0.00  0.00    -0.086 HD
ATOM     16  H   UNL     1       2.744  -1.041   1.385  0.00  0.00    -0.086 HD
ENDBRANCH   1  10
BRANCH   6  17
ATOM     17  C   UNL     1      -4.226  -1.393  -4.471  0.00  0.00    +0.180 C 
BRANCH  17  18
ATOM     18  C   UNL     1      -5.733  -1.427  -4.445  0.00  0.00    +0.229 C 
ATOM     19  O   UNL     1      -6.334  -0.951  -3.505  0.00  0.00    -0.274 OA
ATOM     20  N   UNL     1      -6.412  -1.985  -5.466  0.00  0.00    -0.307 N 
ATOM     21  C   UNL     1      -7.876  -2.018  -5.441  0.00  0.00    +0.131 C 
ATOM     22  C   UNL     1      -5.685  -2.559  -6.601  0.00  0.00    +0.131 C 
ENDBRANCH  17  18
ENDBRANCH   6  17
TORSDOF 3
