REMARK  Name = ZINC25342641
REMARK  12 active torsions:
REMARK  status: ('A' for Active; 'I' for Inactive)
REMARK    1  A    between atoms: C_1  and  C_2
REMARK    2  A    between atoms: C_2  and  C_4
REMARK    3  A    between atoms: C_2  and  N_14
REMARK    4  A    between atoms: C_6  and  O_12
REMARK    5  A    between atoms: C_9  and  O_10
REMARK    6  A    between atoms: O_10  and  C_11
REMARK    7  A    between atoms: O_12  and  C_13
REMARK    8  A    between atoms: N_14  and  C_15
REMARK    9  A    between atoms: C_15  and  C_17
REMARK   10  A    between atoms: C_15  and  C_18
REMARK   11  A    between atoms: N_23  and  C_24
REMARK   12  A    between atoms: C_24  and  C_25
REMARK                            x       y       z     vdW  Elec       q    Type
REMARK                         _______ _______ _______ _____ _____    ______ ____
ROOT
ATOM      1  C   UNL     1      -4.215   5.200  -4.939  0.00  0.00    +0.014 C 
ATOM      2  C   UNL     1      -4.603   4.110  -5.941  0.00  0.00    -0.004 C 
ENDROOT
BRANCH   1   3
ATOM      3  C   UNL     1      -3.725   4.560  -3.666  0.00  0.00    +0.206 C 
ATOM      4  O   UNL     1      -4.295   4.780  -2.619  0.00  0.00    -0.277 OA
ATOM      5  N   UNL     1      -2.652   3.745  -3.691  0.00  0.00    -0.242 N 
ATOM      6  C   UNL     1      -2.214   3.173  -2.552  0.00  0.00    +0.306 C 
ATOM      7  O   UNL     1      -2.786   3.393  -1.502  0.00  0.00    -0.252 OA
ATOM      8  N   UNL     1      -1.141   2.357  -2.577  0.00  0.00    -0.294 N 
ATOM      9  H   UNL     1      -2.135   3.546  -4.641  0.00  0.00    +0.159 HD
ATOM     10  H   UNL     1      -0.624   2.158  -3.526  0.00  0.00    +0.151 HD
BRANCH   8  11
ATOM     11  C   UNL     1      -0.665   1.735  -1.339  0.00  0.00    +0.148 C 
BRANCH  11  12
ATOM     12  C   UNL     1       0.537   0.877  -1.638  0.00  0.00    +0.007 A 
ATOM     13  C   UNL     1       1.849   1.218  -1.641  0.00  0.00    +0.013 A 
ATOM     14  C   UNL     1       2.791   0.255  -1.954  0.00  0.00    +0.008 A 
ATOM     15  C   UNL     1       2.374  -1.000  -2.249  0.00  0.00    +0.045 A 
ATOM     16  S   UNL     1       0.603  -0.849  -2.087  0.00  0.00    -0.100 S 
ENDBRANCH  11  12
ENDBRANCH   8  11
ENDBRANCH   1   3
BRANCH   1  17
ATOM     17  N   UNL     1      -5.387   6.036  -4.648  0.00  0.00    +0.391 N 
ATOM     18  H   UNL     1      -5.237   6.527  -3.675  0.00  0.00    -0.084 HD
ATOM     19  H   UNL     1      -6.277   5.392  -4.600  0.00  0.00    -0.084 HD
BRANCH  17  21
ATOM     20  C   UNL     1      -7.009   7.592  -5.621  0.00  0.00    -0.009 C 
ATOM     21  C   UNL     1      -5.577   7.057  -5.687  0.00  0.00    -0.039 C 
BRANCH  21  22
ATOM     22  C   UNL     1      -4.607   8.189  -5.463  0.00  0.00    -0.016 A 
ATOM     23  C   UNL     1      -4.138   8.455  -4.191  0.00  0.00    +0.051 A 
ATOM     24  C   UNL     1      -3.245   9.496  -3.984  0.00  0.00    +0.121 A 
ATOM     25  C   UNL     1      -2.823  10.270  -5.055  0.00  0.00    +0.049 A 
ATOM     26  C   UNL     1      -3.292  10.004  -6.327  0.00  0.00    +0.049 A 
ATOM     27  C   UNL     1      -4.181   8.959  -6.534  0.00  0.00    +0.122 A 
BRANCH  27  28
ATOM     28  O   UNL     1      -4.638   8.694  -7.787  0.00  0.00    -0.495 OA
ATOM     29  C   UNL     1      -4.158   9.528  -8.843  0.00  0.00    +0.277 C 
ENDBRANCH  27  28
BRANCH  24  30
ATOM     30  O   UNL     1      -2.784   9.757  -2.732  0.00  0.00    -0.495 OA
ATOM     31  C   UNL     1      -1.866  10.844  -2.593  0.00  0.00    +0.277 C 
ENDBRANCH  24  30
ENDBRANCH  21  22
ENDBRANCH  17  21
ENDBRANCH   1  17
TORSDOF 8
