REMARK  Name = ZINC66115509
REMARK  11 active torsions:
REMARK  status: ('A' for Active; 'I' for Inactive)
REMARK    1  A    between atoms: C_1  and  C_2
REMARK    2  A    between atoms: C_2  and  C_4
REMARK    3  A    between atoms: C_4  and  O_5
REMARK    4  A    between atoms: O_5  and  C_6
REMARK    5  A    between atoms: C_9  and  C_14
REMARK    6  A    between atoms: C_11  and  O_12
REMARK    7  A    between atoms: O_12  and  C_13
REMARK    8  A    between atoms: C_14  and  N_15
REMARK    9  A    between atoms: C_21  and  C_23
REMARK   10  A    between atoms: C_23  and  C_24
REMARK   11  A    between atoms: N_26  and  N_27
REMARK                            x       y       z     vdW  Elec       q    Type
REMARK                         _______ _______ _______ _____ _____    ______ ____
ROOT
ATOM      1  N   UNL     1       1.571  -5.765  -5.993  0.00  0.00    +0.391 N 
ATOM      2  C   UNL     1       2.268  -6.442  -4.888  0.00  0.00    -0.058 C 
ATOM      3  C   UNL     1       3.721  -6.689  -5.299  0.00  0.00    +0.085 C 
ATOM      4  N   UNL     1       3.765  -7.340  -6.605  0.00  0.00    -0.318 N 
ATOM      5  C   UNL     1       2.721  -7.348  -7.442  0.00  0.00    +0.200 C 
ATOM      6  O   UNL     1       2.844  -7.892  -8.520  0.00  0.00    -0.278 OA
ATOM      7  C   UNL     1       1.404  -6.713  -7.102  0.00  0.00    +0.028 C 
ATOM      8  H   UNL     1       4.583  -7.785  -6.877  0.00  0.00    +0.149 HD
ATOM      9  H   UNL     1       2.116  -4.974  -6.304  0.00  0.00    -0.080 HD
ENDROOT
BRANCH   1  10
ATOM     10  C   UNL     1       0.253  -5.305  -5.535  0.00  0.00    -0.042 C 
BRANCH  10  14
ATOM     11  C   UNL     1       0.754  -2.232  -2.603  0.00  0.00    +0.162 A 
ATOM     12  C   UNL     1       0.662  -1.904  -3.946  0.00  0.00    +0.049 A 
ATOM     13  C   UNL     1       0.500  -2.900  -4.892  0.00  0.00    +0.005 A 
ATOM     14  C   UNL     1       0.430  -4.224  -4.500  0.00  0.00    -0.060 A 
ATOM     15  C   UNL     1       0.521  -4.558  -3.162  0.00  0.00    +0.051 A 
ATOM     16  C   UNL     1       0.690  -3.566  -2.210  0.00  0.00    +0.162 A 
BRANCH  16  17
ATOM     17  O   UNL     1       0.786  -3.893  -0.894  0.00  0.00    -0.491 OA
ATOM     18  C   UNL     1       0.711  -5.282  -0.564  0.00  0.00    +0.277 C 
ENDBRANCH  16  17
BRANCH  11  19
ATOM     19  O   UNL     1       0.914  -1.254  -1.672  0.00  0.00    -0.484 OA
BRANCH  19  20
ATOM     20  C   UNL     1       0.972   0.092  -2.148  0.00  0.00    +0.259 C 
BRANCH  20  22
ATOM     21  C   UNL     1       1.241   2.516  -1.218  0.00  0.00    +0.042 C 
ATOM     22  C   UNL     1       1.150   1.030  -0.982  0.00  0.00    -0.043 C 
ATOM     23  C   UNL     1       1.226   0.554   0.236  0.00  0.00    +0.011 C 
ENDBRANCH  20  22
ENDBRANCH  19  20
ENDBRANCH  11  19
ENDBRANCH  10  14
ENDBRANCH   1  10
BRANCH   7  24
ATOM     24  C   UNL     1       0.867  -5.970  -8.327  0.00  0.00    +0.091 C 
BRANCH  24  25
ATOM     25  C   UNL     1       1.860  -4.919  -8.752  0.00  0.00    +0.225 C 
ATOM     26  O   UNL     1       2.941  -4.849  -8.205  0.00  0.00    -0.275 OA
ATOM     27  N   UNL     1       1.548  -4.057  -9.740  0.00  0.00    -0.254 N 
ATOM     28  H   UNL     1       0.684  -4.113 -10.177  0.00  0.00    +0.169 HD
BRANCH  27  29
ATOM     29  N   UNL     1       2.448  -3.104 -10.125  0.00  0.00    -0.254 NA
ATOM     30  H   UNL     1       2.076  -2.536 -10.871  0.00  0.00    +0.140 HD
ATOM     31  H   UNL     1       2.729  -2.534  -9.341  0.00  0.00    +0.140 HD
ENDBRANCH  27  29
ENDBRANCH  24  25
ENDBRANCH   7  24
TORSDOF 9
