REMARK  Name = ZINC39237479
REMARK  9 active torsions:
REMARK  status: ('A' for Active; 'I' for Inactive)
REMARK    1  A    between atoms: C_1  and  C_2
REMARK    2  A    between atoms: C_2  and  C_3
REMARK    3  A    between atoms: C_4  and  C_24
REMARK    4  A    between atoms: C_6  and  C_8
REMARK    5  A    between atoms: C_16  and  C_17
REMARK    6  A    between atoms: C_19  and  N_23
REMARK    7  A    between atoms: C_20  and  C_21
REMARK    8  A    between atoms: C_24  and  O_25
REMARK    9  A    between atoms: O_25  and  C_26
REMARK                            x       y       z     vdW  Elec       q    Type
REMARK                         _______ _______ _______ _____ _____    ______ ____
ROOT
ATOM      1  C   UNL     1       0.484  -0.714   1.510  0.00  0.00    -0.004 A 
ATOM      2  C   UNL     1       0.007  -0.921   2.762  0.00  0.00    +0.000 A 
ATOM      3  C   UNL     1       0.881  -1.327   3.753  0.00  0.00    +0.019 A 
ATOM      4  C   UNL     1       2.189  -1.506   3.444  0.00  0.00    -0.001 A 
ATOM      5  S   UNL     1       2.216  -1.103   1.705  0.00  0.00    -0.097 S 
ENDROOT
BRANCH   4   6
ATOM      6  C   UNL     1       3.324  -1.939   4.335  0.00  0.00    +0.085 C 
ATOM      7  C   UNL     1       4.144  -0.735   4.696  0.00  0.00    +0.108 C 
ATOM      8  C   UNL     1       4.960  -0.885   5.991  0.00  0.00    +0.286 C 
ATOM      9  N   UNL     1       5.085   0.560   6.356  0.00  0.00    -0.230 N 
ATOM     10  N   UNL     1       3.938   1.191   5.851  0.00  0.00    -0.193 NA
ATOM     11  C   UNL     1       3.371   0.530   4.930  0.00  0.00    +0.043 C 
ATOM     12  C   UNL     1       2.135   0.963   4.186  0.00  0.00    +0.063 C 
ATOM     13  O   UNL     1       4.172  -1.476   7.025  0.00  0.00    -0.455 OA
ATOM     14  C   UNL     1       3.252  -2.406   6.763  0.00  0.00    +0.194 C 
ATOM     15  C   UNL     1       2.758  -2.628   5.543  0.00  0.00    +0.094 C 
ATOM     16  H   UNL     1       5.812   0.977   6.845  0.00  0.00    +0.172 HD
BRANCH  14  17
ATOM     17  N   UNL     1       2.756  -3.144   7.809  0.00  0.00    -0.329 N 
ATOM     18  H   UNL     1       3.075  -2.983   8.710  0.00  0.00    +0.145 HD
ATOM     19  H   UNL     1       2.086  -3.826   7.646  0.00  0.00    +0.145 HD
ENDBRANCH  14  17
BRANCH  15  20
ATOM     20  C   UNL     1       1.696  -3.575   5.379  0.00  0.00    +0.100 C 
ATOM     21  N   UNL     1       0.854  -4.327   5.249  0.00  0.00    -0.191 NA
ENDBRANCH  15  20
ENDBRANCH   4   6
BRANCH   1  23
ATOM     22  C   UNL     1      -0.235   1.251   0.179  0.00  0.00    +0.009 C 
ATOM     23  C   UNL     1      -0.257  -0.276   0.273  0.00  0.00    +0.039 C 
ENDBRANCH   1  23
BRANCH   2  24
ATOM     24  C   UNL     1      -1.453  -0.711   3.068  0.00  0.00    +0.265 C 
BRANCH  24  25
ATOM     25  O   UNL     1      -1.695  -0.994   4.448  0.00  0.00    -0.486 OA
BRANCH  25  26
ATOM     26  C   UNL     1      -2.972  -0.852   4.892  0.00  0.00    +0.139 A 
ATOM     27  C   UNL     1      -3.972  -0.455   4.016  0.00  0.00    +0.047 A 
ATOM     28  C   UNL     1      -5.269  -0.312   4.470  0.00  0.00    +0.004 A 
ATOM     29  C   UNL     1      -5.572  -0.564   5.795  0.00  0.00    +0.002 A 
ATOM     30  C   UNL     1      -4.578  -0.960   6.671  0.00  0.00    +0.023 A 
ATOM     31  C   UNL     1      -3.279  -1.110   6.221  0.00  0.00    +0.083 A 
ATOM     32 CL   UNL     1      -2.032  -1.614   7.319  0.00  0.00    -0.080 Cl
ENDBRANCH  25  26
ENDBRANCH  24  25
ENDBRANCH   2  24
TORSDOF 7
