REMARK  Name = ZINC40853288
REMARK  3 active torsions:
REMARK  status: ('A' for Active; 'I' for Inactive)
REMARK    1  A    between atoms: C_7  and  N_11
REMARK    2  A    between atoms: C_8  and  C_9
REMARK    3  A    between atoms: C_12  and  C_14
REMARK                            x       y       z     vdW  Elec       q    Type
REMARK                         _______ _______ _______ _____ _____    ______ ____
ROOT
ATOM      1  C   UNL     1      -0.019   1.521   0.010  0.00  0.00    +0.001 C 
ATOM      2  C   UNL     1       1.407   2.069  -0.000  0.00  0.00    +0.005 C 
ATOM      3  C   UNL     1       2.129   1.648  -1.276  0.00  0.00    +0.037 C 
ATOM      4  C   UNL     1       2.823   0.311  -1.059  0.00  0.00    -0.018 A 
ATOM      5  C   UNL     1       2.395  -0.600  -0.158  0.00  0.00    -0.004 A 
ATOM      6  S   UNL     1       3.521  -1.956  -0.318  0.00  0.00    -0.077 S 
ATOM      7  C   UNL     1       4.532  -1.351  -1.513  0.00  0.00    +0.090 A 
ATOM      8  C   UNL     1       4.005  -0.104  -1.800  0.00  0.00    +0.084 A 
ATOM      9  C   UNL     1       1.235  -0.480   0.781  0.00  0.00    +0.043 C 
ATOM     10  C   UNL     1       0.002  -0.004   0.002  0.00  0.00    +0.005 C 
ENDROOT
BRANCH   7  11
ATOM     11  N   UNL     1       5.642  -1.960  -2.082  0.00  0.00    -0.280 N 
ATOM     12  C   UNL     1       6.017  -3.189  -1.678  0.00  0.00    +0.204 C 
ATOM     13  O   UNL     1       5.385  -3.764  -0.817  0.00  0.00    -0.277 OA
ATOM     14  H   UNL     1       6.147  -1.500  -2.771  0.00  0.00    +0.155 HD
BRANCH  12  15
ATOM     15  C   UNL     1       7.222  -3.850  -2.296  0.00  0.00    +0.016 C 
ATOM     16  C   UNL     1       7.002  -4.006  -3.802  0.00  0.00    -0.007 C 
ATOM     17  C   UNL     1       8.229  -4.678  -4.425  0.00  0.00    -0.003 C 
ATOM     18  C   UNL     1       8.470  -6.022  -3.732  0.00  0.00    -0.019 C 
ATOM     19  C   UNL     1       8.636  -5.792  -2.228  0.00  0.00    -0.082 C 
ATOM     20  N   UNL     1       7.420  -5.172  -1.688  0.00  0.00    +0.387 N 
ATOM     21  H   UNL     1       7.511  -5.071  -0.688  0.00  0.00    -0.085 HD
ATOM     22  H   UNL     1       6.624  -5.758  -1.894  0.00  0.00    -0.085 HD
ENDBRANCH  12  15
ENDBRANCH   7  11
BRANCH   8  23
ATOM     23  C   UNL     1       4.598   0.744  -2.789  0.00  0.00    +0.102 C 
ATOM     24  N   UNL     1       5.069   1.418  -3.574  0.00  0.00    -0.191 NA
ENDBRANCH   8  23
TORSDOF 3
