REMARK  Name = ZINC39454200
REMARK  1 active torsions:
REMARK  status: ('A' for Active; 'I' for Inactive)
REMARK    1  A    between atoms: C_22  and  O_24
REMARK                            x       y       z     vdW  Elec       q    Type
REMARK                         _______ _______ _______ _____ _____    ______ ____
ROOT
ATOM      1  C   UNL     1      -0.017   1.386   0.010  0.00  0.00    +0.006 A 
ATOM      2  C   UNL     1       1.129   2.121   0.003  0.00  0.00    +0.028 A 
ATOM      3  C   UNL     1       2.377   1.473  -0.011  0.00  0.00    +0.075 A 
ATOM      4  C   UNL     1       2.406   0.008  -0.020  0.00  0.00    +0.043 A 
ATOM      5  C   UNL     1       3.645  -0.646  -0.035  0.00  0.00    +0.029 A 
ATOM      6  C   UNL     1       4.791   0.137  -0.039  0.00  0.00    +0.068 A 
ATOM      7  C   UNL     1       4.690   1.554  -0.028  0.00  0.00    +0.100 A 
ATOM      8  N   UNL     1       3.518   2.162  -0.016  0.00  0.00    -0.244 NA
ATOM      9  C   UNL     1       5.939   2.335  -0.028  0.00  0.00    +0.083 A 
ATOM     10  C   UNL     1       7.157   1.685  -0.044  0.00  0.00    +0.122 A 
ATOM     11  N   UNL     1       7.226   0.296  -0.055  0.00  0.00    -0.237 N 
ATOM     12  C   UNL     1       6.127  -0.477  -0.053  0.00  0.00    +0.271 A 
ATOM     13  O   UNL     1       6.238  -1.690  -0.064  0.00  0.00    -0.266 OA
ATOM     14 BR   UNL     1       8.889  -0.514  -0.072  0.00  0.00    +0.058 Br
ATOM     15  C   UNL     1       8.354   2.437  -0.054  0.00  0.00    +0.185 C 
ATOM     16  O   UNL     1       9.425   1.864  -0.019  0.00  0.00    -0.290 OA
ATOM     17  C   UNL     1       8.315   3.942  -0.108  0.00  0.00    +0.115 C 
ATOM     18  C   UNL     1       7.035   4.442   0.570  0.00  0.00    +0.146 C 
ATOM     19  N   UNL     1       5.894   3.716  -0.009  0.00  0.00    -0.328 N 
ATOM     20 BR   UNL     1       7.130   4.097   2.503  0.00  0.00    -0.067 Br
ATOM     21  C   UNL     1       1.189  -0.704  -0.012  0.00  0.00    +0.126 A 
ATOM     22  C   UNL     1       0.002  -0.004   0.002  0.00  0.00    +0.046 A 
ATOM     23  H   UNL     1       5.130   4.194  -0.368  0.00  0.00    +0.147 HD
ENDROOT
BRANCH  21  24
ATOM     24  O   UNL     1       1.187  -2.061  -0.018  0.00  0.00    -0.506 OA
ATOM     25  H   UNL     1       1.194  -2.459   0.863  0.00  0.00    +0.292 HD
ENDBRANCH  21  24
TORSDOF 1
