REMARK  Name = ZINC04398703
REMARK  3 active torsions:
REMARK  status: ('A' for Active; 'I' for Inactive)
REMARK    1  A    between atoms: C_4  and  C_7
REMARK    2  A    between atoms: C_10  and  C_12
REMARK    3  A    between atoms: C_10  and  O_16
REMARK                            x       y       z     vdW  Elec       q    Type
REMARK                         _______ _______ _______ _____ _____    ______ ____
ROOT
ATOM      1  C   UNL     1       0.428   3.249  -0.247  0.00  0.00    +0.071 C 
ATOM      2  N   UNL     1       1.693   3.430  -0.077  0.00  0.00    -0.178 NA
ATOM      3  N   UNL     1       2.462   2.282  -0.257  0.00  0.00    -0.149 N 
ATOM      4  C   UNL     1       1.571   1.162  -0.600  0.00  0.00    +0.257 C 
ATOM      5  C   UNL     1       0.168   1.802  -0.599  0.00  0.00    +0.124 C 
ATOM      6  C   UNL     1       3.839   2.207  -0.134  0.00  0.00    +0.258 C 
ATOM      7  N   UNL     1       4.329   1.050  -0.345  0.00  0.00    -0.143 NA
ATOM      8  N   UNL     1       5.682   0.752  -0.394  0.00  0.00    -0.223 N 
ATOM      9  C   UNL     1       6.606   1.387   0.368  0.00  0.00    +0.093 C 
ATOM     10  C   UNL     1       6.945   2.826   0.122  0.00  0.00    +0.146 C 
ATOM     11  C   UNL     1       5.747   3.704   0.368  0.00  0.00    +0.143 A 
ATOM     12  N   UNL     1       4.452   3.395   0.190  0.00  0.00    -0.183 N 
ATOM     13  N   UNL     1       3.734   4.584   0.467  0.00  0.00    -0.151 NA
ATOM     14  C   UNL     1       4.604   5.480   0.840  0.00  0.00    +0.245 A 
ATOM     15  N   UNL     1       5.820   4.945   0.792  0.00  0.00    -0.218 NA
ATOM     16  H   UNL     1       5.981   0.059  -1.002  0.00  0.00    +0.176 HD
ATOM     17  H   UNL     1       7.056  -0.191   1.562  0.00  0.00    +0.157 HD
ATOM     18  N   UNL     1       7.248   0.788   1.350  0.00  0.00    -0.389 N 
ATOM     19  H   UNL     1       7.941   1.307   1.903  0.00  0.00    +0.157 HD
ENDROOT
BRANCH   1  23
ATOM     20  C   UNL     1      -2.546   6.256   0.108  0.00  0.00    +0.000 A 
ATOM     21  C   UNL     1      -1.216   6.574   0.322  0.00  0.00    +0.001 A 
ATOM     22  C   UNL     1      -0.244   5.602   0.208  0.00  0.00    +0.010 A 
ATOM     23  C   UNL     1      -0.605   4.293  -0.123  0.00  0.00    -0.002 A 
ATOM     24  C   UNL     1      -1.949   3.981  -0.343  0.00  0.00    +0.010 A 
ATOM     25  C   UNL     1      -2.910   4.962  -0.221  0.00  0.00    +0.001 A 
ENDBRANCH   1  23
BRANCH   4  26
ATOM     26  C   UNL     1       1.660   0.060   0.458  0.00  0.00    +0.438 C 
ATOM     27  F   UNL     1       0.711  -0.930   0.182  0.00  0.00    -0.166 F 
ATOM     28  F   UNL     1       2.941  -0.504   0.436  0.00  0.00    -0.166 F 
ATOM     29  F   UNL     1       1.412   0.605   1.722  0.00  0.00    -0.166 F 
ENDBRANCH   4  26
BRANCH   4  30
ATOM     30  O   UNL     1       1.887   0.645  -1.894  0.00  0.00    -0.363 OA
ATOM     31  H   UNL     1       2.759   0.232  -1.950  0.00  0.00    +0.212 HD
ENDBRANCH   4  30
TORSDOF 3
