REMARK  Name = ZINC59402689
REMARK  6 active torsions:
REMARK  status: ('A' for Active; 'I' for Inactive)
REMARK    1  A    between atoms: C_1  and  C_2
REMARK    2  A    between atoms: C_8  and  N_10
REMARK    3  A    between atoms: C_11  and  C_13
REMARK    4  A    between atoms: C_13  and  N_14
REMARK    5  A    between atoms: C_21  and  C_27
REMARK    6  A    between atoms: C_24  and  C_26
REMARK                            x       y       z     vdW  Elec       q    Type
REMARK                         _______ _______ _______ _____ _____    ______ ____
ROOT
ATOM      1  N   UNL     1       0.998   0.973   5.925  0.00  0.00    -0.318 N 
ATOM      2  C   UNL     1       0.962  -0.176   6.723  0.00  0.00    +0.034 A 
ATOM      3  C   UNL     1       0.252  -1.286   6.279  0.00  0.00    +0.023 A 
ATOM      4  C   UNL     1       0.200  -2.428   7.054  0.00  0.00    +0.002 A 
ATOM      5  C   UNL     1       0.856  -2.466   8.271  0.00  0.00    +0.000 A 
ATOM      6  C   UNL     1       1.563  -1.365   8.713  0.00  0.00    +0.006 A 
ATOM      7  C   UNL     1       1.622  -0.216   7.941  0.00  0.00    -0.014 A 
ATOM      8  C   UNL     1       2.410   0.962   8.448  0.00  0.00    +0.108 C 
ATOM      9  C   UNL     1       1.957   2.247   7.755  0.00  0.00    +0.039 C 
ATOM     10  C   UNL     1       1.980   2.021   6.234  0.00  0.00    +0.072 C 
ATOM     11  C   UNL     1       1.601   3.315   5.511  0.00  0.00    +0.028 C 
ENDROOT
BRANCH   8  12
ATOM     12  C   UNL     1       2.197   1.102   9.934  0.00  0.00    +0.218 C 
ATOM     13  O   UNL     1       1.226   1.694  10.354  0.00  0.00    -0.275 OA
ATOM     14  N   UNL     1       3.087   0.568  10.795  0.00  0.00    -0.329 N 
ATOM     15  H   UNL     1       3.900   0.159  10.460  0.00  0.00    +0.145 HD
ATOM     16  H   UNL     1       2.914   0.594  11.749  0.00  0.00    +0.145 HD
ENDBRANCH   8  12
BRANCH   1  17
ATOM     17  C   UNL     1       0.076   1.125   4.797  0.00  0.00    +0.201 C 
BRANCH  17  19
ATOM     18  N   UNL     1       0.031   0.575   2.386  0.00  0.00    -0.311 N 
ATOM     19  C   UNL     1       0.702   0.546   3.555  0.00  0.00    +0.231 C 
ATOM     20  O   UNL     1       1.810   0.055   3.606  0.00  0.00    -0.274 OA
ATOM     21  H   UNL     1      -0.854   0.968   2.345  0.00  0.00    +0.149 HD
BRANCH  18  28
ATOM     22  C   UNL     1       0.301   2.186  -0.006  0.00  0.00    +0.009 C 
ATOM     23  C   UNL     1       0.034   0.680  -0.057  0.00  0.00    +0.006 C 
ATOM     24  C   UNL     1       0.670   0.093  -1.319  0.00  0.00    +0.005 C 
ATOM     25  C   UNL     1       0.403  -1.413  -1.371  0.00  0.00    +0.000 C 
ATOM     26  C   UNL     1       1.009  -2.081  -0.135  0.00  0.00    +0.002 C 
ATOM     27  C   UNL     1       0.373  -1.494   1.126  0.00  0.00    +0.022 C 
ATOM     28  C   UNL     1       0.640   0.012   1.178  0.00  0.00    +0.076 C 
ENDBRANCH  18  28
ENDBRANCH  17  19
ENDBRANCH   1  17
TORSDOF 4
