REMARK  Name = ZINC19852275
REMARK  10 active torsions:
REMARK  status: ('A' for Active; 'I' for Inactive)
REMARK    1  A    between atoms: C_1  and  C_2
REMARK    2  A    between atoms: C_5  and  N_9
REMARK    3  A    between atoms: C_6  and  C_8
REMARK    4  A    between atoms: C_10  and  C_12
REMARK    5  A    between atoms: C_12  and  S_13
REMARK    6  A    between atoms: S_13  and  C_14
REMARK    7  A    between atoms: C_15  and  C_28
REMARK    8  A    between atoms: C_16  and  C_23
REMARK    9  A    between atoms: C_17  and  C_21
REMARK   10  A    between atoms: C_18  and  N_20
REMARK                            x       y       z     vdW  Elec       q    Type
REMARK                         _______ _______ _______ _____ _____    ______ ____
ROOT
ATOM      1  C   UNL     1       1.185   2.160   0.033  0.00  0.00    +0.118 A 
ATOM      2  C   UNL     1      -0.017   1.429   0.046  0.00  0.00    +0.093 A 
ATOM      3  C   UNL     1      -1.243   2.131   0.067  0.00  0.00    +0.029 A 
ATOM      4  C   UNL     1      -1.199   3.543   0.086  0.00  0.00    +0.101 A 
ATOM      5  C   UNL     1       0.053   4.184   0.072  0.00  0.00    +0.136 A 
ATOM      6  N   UNL     1       1.177   3.485   0.047  0.00  0.00    -0.224 NA
ENDROOT
BRANCH   3   7
ATOM      7  C   UNL     1      -2.526   1.413   0.075  0.00  0.00    +0.022 A 
ATOM      8  C   UNL     1      -3.496   1.370   1.062  0.00  0.00    +0.016 A 
ATOM      9  C   UNL     1      -4.617   0.615   0.806  0.00  0.00    +0.008 A 
ATOM     10  C   UNL     1      -4.713  -0.048  -0.374  0.00  0.00    +0.046 A 
ATOM     11  S   UNL     1      -3.236   0.365  -1.183  0.00  0.00    -0.097 S 
ENDBRANCH   3   7
BRANCH   5  12
ATOM     12  N   UNL     1       0.110   5.564   0.085  0.00  0.00    -0.342 N 
ATOM     13  H   UNL     1       1.085   6.074   0.074  0.00  0.00    +0.144 HD
ATOM     14  H   UNL     1      -0.819   6.153   0.105  0.00  0.00    +0.144 HD
ENDBRANCH   5  12
BRANCH   4  15
ATOM     15  C   UNL     1      -2.408   4.309   0.113  0.00  0.00    +0.103 C 
ATOM     16  N   UNL     1      -3.368   4.916   0.134  0.00  0.00    -0.191 NA
ENDBRANCH   4  15
BRANCH   2  17
ATOM     17  C   UNL     1       0.002  -0.003   0.032  0.00  0.00    +0.102 C 
ATOM     18  N   UNL     1       0.017  -1.139   0.021  0.00  0.00    -0.191 NA
ENDBRANCH   2  17
BRANCH   1  19
ATOM     19  S   UNL     1       2.723   1.302  -0.000  0.00  0.00    -0.095 S 
BRANCH  19  20
ATOM     20  C   UNL     1       3.866   2.705  -0.005  0.00  0.00    +0.172 C 
BRANCH  20  22
ATOM     21  N   UNL     1       6.312   3.070  -0.042  0.00  0.00    -0.285 N 
ATOM     22  C   UNL     1       5.285   2.198  -0.034  0.00  0.00    +0.227 C 
ATOM     23  O   UNL     1       5.502   1.004  -0.049  0.00  0.00    -0.275 OA
ATOM     24  H   UNL     1       6.117   4.149  -0.120  0.00  0.00    +0.155 HD
BRANCH  21  29
ATOM     25  C   UNL     1      11.646   1.172   0.325  0.00  0.00    +0.044 C 
ATOM     26  C   UNL     1      10.229   1.676   0.228  0.00  0.00    -0.050 A 
ATOM     27  C   UNL     1       9.190   0.916   0.734  0.00  0.00    +0.005 A 
ATOM     28  C   UNL     1       7.891   1.375   0.646  0.00  0.00    +0.024 A 
ATOM     29  C   UNL     1       7.628   2.602   0.049  0.00  0.00    +0.036 A 
ATOM     30  C   UNL     1       8.673   3.359  -0.463  0.00  0.00    -0.029 A 
ATOM     31  C   UNL     1       9.971   2.897  -0.367  0.00  0.00    +0.008 A 
ATOM     32  C   UNL     1       8.392   4.687  -1.118  0.00  0.00    +0.045 C 
ENDBRANCH  21  29
ENDBRANCH  20  22
ENDBRANCH  19  20
ENDBRANCH   1  19
TORSDOF 8
