REMARK  Name = ZINC38338088
REMARK  11 active torsions:
REMARK  status: ('A' for Active; 'I' for Inactive)
REMARK    1  A    between atoms: C_1  and  C_2
REMARK    2  A    between atoms: C_2  and  C_19
REMARK    3  A    between atoms: C_3  and  C_16
REMARK    4  A    between atoms: C_3  and  O_17
REMARK    5  A    between atoms: C_4  and  C_14
REMARK    6  A    between atoms: C_4  and  C_15
REMARK    7  A    between atoms: C_6  and  O_13
REMARK    8  A    between atoms: C_8  and  O_12
REMARK    9  A    between atoms: O_17  and  C_18
REMARK   10  A    between atoms: C_22  and  O_26
REMARK   11  A    between atoms: C_23  and  O_25
REMARK                            x       y       z     vdW  Elec       q    Type
REMARK                         _______ _______ _______ _____ _____    ______ ____
ROOT
ATOM      1  C   UNL     1      -0.200   1.384   0.026  0.00  0.00    +0.064 C 
ATOM      2  C   UNL     1      -0.475  -0.145  -0.174  0.00  0.00    +0.162 C 
ATOM      3  C   UNL     1      -2.030  -0.442  -0.151  0.00  0.00    +0.119 C 
ATOM      4  C   UNL     1      -2.704  -0.194   1.163  0.00  0.00    +0.030 C 
ATOM      5  C   UNL     1      -1.800  -0.328   2.333  0.00  0.00    +0.044 A 
ATOM      6  C   UNL     1      -2.227  -0.136   3.588  0.00  0.00    +0.128 A 
ATOM      7  C   UNL     1      -1.388  -0.309   4.761  0.00  0.00    +0.091 A 
ATOM      8  C   UNL     1      -0.077  -0.565   4.592  0.00  0.00    +0.124 A 
ATOM      9  C   UNL     1       0.398  -0.826   3.315  0.00  0.00    +0.091 A 
ATOM     10  C   UNL     1      -0.403  -0.647   2.227  0.00  0.00    +0.133 A 
ATOM     11  O   UNL     1       0.126  -0.878   0.958  0.00  0.00    -0.478 OA
ATOM     12  C   UNL     1      -3.352   1.249   1.183  0.00  0.00    +0.019 C 
ATOM     13  C   UNL     1      -3.824  -1.201   1.244  0.00  0.00    +0.019 C 
ATOM     14  C   UNL     1      -2.241  -1.865  -0.579  0.00  0.00    +0.047 C 
ENDROOT
BRANCH   2  15
ATOM     15  C   UNL     1       0.130  -0.645  -1.461  0.00  0.00    +0.002 A 
ATOM     16  C   UNL     1       0.643   0.255  -2.377  0.00  0.00    +0.011 A 
ATOM     17  C   UNL     1       1.199  -0.199  -3.559  0.00  0.00    +0.049 A 
ATOM     18  C   UNL     1       1.244  -1.558  -3.827  0.00  0.00    +0.158 A 
ATOM     19  C   UNL     1       0.728  -2.463  -2.904  0.00  0.00    +0.159 A 
ATOM     20  C   UNL     1       0.176  -2.002  -1.720  0.00  0.00    +0.056 A 
BRANCH  19  21
ATOM     21  O   UNL     1       0.770  -3.798  -3.163  0.00  0.00    -0.503 OA
ATOM     22  H   UNL     1       1.572  -4.235  -2.846  0.00  0.00    +0.292 HD
ENDBRANCH  19  21
BRANCH  18  23
ATOM     23  O   UNL     1       1.790  -2.006  -4.989  0.00  0.00    -0.503 OA
ATOM     24  H   UNL     1       2.739  -2.186  -4.933  0.00  0.00    +0.292 HD
ENDBRANCH  18  23
ENDBRANCH   2  15
BRANCH   8  25
ATOM     25  O   UNL     1       0.779  -0.771   5.622  0.00  0.00    -0.507 OA
ATOM     26  H   UNL     1       0.855  -1.696   5.892  0.00  0.00    +0.292 HD
ENDBRANCH   8  25
BRANCH   6  27
ATOM     27  O   UNL     1      -3.593   0.160   3.871  0.00  0.00    -0.506 OA
ATOM     28  H   UNL     1      -4.141  -0.623   4.023  0.00  0.00    +0.292 HD
ENDBRANCH   6  27
BRANCH   3  29
ATOM     29  O   UNL     1      -2.636   0.401  -1.157  0.00  0.00    -0.372 OA
ATOM     30  C   UNL     1      -2.273   0.060  -2.496  0.00  0.00    +0.195 C 
ENDBRANCH   3  29
TORSDOF 6
