REMARK  Name = ZINC65968510
REMARK  3 active torsions:
REMARK  status: ('A' for Active; 'I' for Inactive)
REMARK    1  A    between atoms: C_3  and  N_4
REMARK    2  A    between atoms: C_8  and  C_10
REMARK    3  A    between atoms: C_10  and  N_11
REMARK                            x       y       z     vdW  Elec       q    Type
REMARK                         _______ _______ _______ _____ _____    ______ ____
ROOT
ATOM      1  C   UNL     1      -2.129  -4.507  -3.569  0.00  0.00    +0.019 C 
ENDROOT
BRANCH   1   2
ATOM      2  N   UNL     1      -2.622  -5.855  -3.257  0.00  0.00    +0.387 N 
ATOM      3  C   UNL     1      -1.579  -6.564  -2.577  0.00  0.00    -0.074 C 
ATOM      4  C   UNL     1      -1.674  -8.057  -2.626  0.00  0.00    -0.027 C 
ATOM      5  C   UNL     1      -3.070  -8.607  -2.431  0.00  0.00    +0.005 C 
ATOM      6  C   UNL     1      -3.884  -8.689  -3.711  0.00  0.00    -0.012 C 
ATOM      7  C   UNL     1      -3.088  -9.373  -4.824  0.00  0.00    +0.007 C 
ATOM      8  C   UNL     1      -1.803  -8.573  -5.047  0.00  0.00    -0.012 C 
ATOM      9  C   UNL     1      -0.940  -8.689  -3.787  0.00  0.00    +0.005 C 
ATOM     10  C   UNL     1      -2.095  -7.120  -5.352  0.00  0.00    -0.012 C 
ATOM     11  C   UNL     1      -3.109  -6.446  -4.476  0.00  0.00    -0.067 C 
ATOM     12  C   UNL     1      -4.331  -7.316  -4.200  0.00  0.00    -0.012 C 
ATOM     13  H   UNL     1      -3.401  -5.762  -2.622  0.00  0.00    -0.081 HD
ENDBRANCH   1   2
BRANCH   1  18
ATOM     14  N   UNL     1      -0.391  -0.679  -1.237  0.00  0.00    -0.296 N 
ATOM     15  C   UNL     1      -0.877  -1.935  -1.196  0.00  0.00    +0.306 C 
ATOM     16  O   UNL     1      -0.989  -2.509  -0.130  0.00  0.00    -0.252 OA
ATOM     17  N   UNL     1      -1.239  -2.557  -2.336  0.00  0.00    -0.242 N 
ATOM     18  C   UNL     1      -1.724  -3.813  -2.294  0.00  0.00    +0.204 C 
ATOM     19  O   UNL     1      -1.836  -4.385  -1.230  0.00  0.00    -0.277 OA
ATOM     20  H   UNL     1      -0.302  -0.222  -2.088  0.00  0.00    +0.151 HD
ATOM     21  H   UNL     1      -1.149  -2.099  -3.186  0.00  0.00    +0.159 HD
BRANCH  14  24
ATOM     22  C   UNL     1      -0.019   1.526   0.010  0.00  0.00    +0.024 C 
ATOM     23  C   UNL     1       1.317   0.779  -0.006  0.00  0.00    +0.024 C 
ATOM     24  C   UNL     1       0.002  -0.004   0.002  0.00  0.00    +0.075 C 
ENDBRANCH  14  24
ENDBRANCH   1  18
TORSDOF 3
