REMARK  Name = ZINC02164023
REMARK  7 active torsions:
REMARK  status: ('A' for Active; 'I' for Inactive)
REMARK    1  A    between atoms: C_5  and  C_10
REMARK    2  A    between atoms: C_6  and  O_9
REMARK    3  A    between atoms: N_11  and  C_12
REMARK    4  A    between atoms: C_12  and  C_13
REMARK    5  A    between atoms: C_13  and  N_14
REMARK    6  A    between atoms: C_15  and  C_16
REMARK    7  A    between atoms: C_17  and  O_26
REMARK                            x       y       z     vdW  Elec       q    Type
REMARK                         _______ _______ _______ _____ _____    ______ ____
ROOT
ATOM      1  C   UNL     1       5.349  -4.159  -0.381  0.00  0.00    +0.133 C 
ENDROOT
BRANCH   1   3
ATOM      2  C   UNL     1       4.237  -2.073  -0.012  0.00  0.00    +0.090 C 
ATOM      3  N   UNL     1       5.339  -2.697  -0.288  0.00  0.00    -0.388 N 
ATOM      4  H   UNL     1       6.157  -2.196  -0.433  0.00  0.00    +0.159 HD
BRANCH   2   9
ATOM      5  C   UNL     1       0.781   1.536   1.262  0.00  0.00    +0.001 A 
ATOM      6  C   UNL     1       1.886   2.229   0.871  0.00  0.00    +0.008 A 
ATOM      7  C   UNL     1       3.031   1.531   0.452  0.00  0.00    -0.017 A 
ATOM      8  C   UNL     1       3.014   0.115   0.446  0.00  0.00    -0.006 A 
ATOM      9  C   UNL     1       4.210  -0.604   0.009  0.00  0.00    +0.040 A 
ATOM     10  C   UNL     1       5.326   0.135  -0.386  0.00  0.00    +0.126 A 
ATOM     11  C   UNL     1       5.293   1.530  -0.362  0.00  0.00    +0.046 A 
ATOM     12  C   UNL     1       4.191   2.213   0.040  0.00  0.00    +0.012 A 
ATOM     13  C   UNL     1       1.861  -0.565   0.855  0.00  0.00    +0.009 A 
ATOM     14  C   UNL     1       0.767   0.143   1.255  0.00  0.00    +0.001 A 
BRANCH  10  15
ATOM     15  O   UNL     1       6.448  -0.506  -0.795  0.00  0.00    -0.506 OA
ATOM     16  H   UNL     1       6.475  -0.685  -1.745  0.00  0.00    +0.292 HD
ENDBRANCH  10  15
ENDBRANCH   2   9
ENDBRANCH   1   3
BRANCH   1  17
ATOM     17  C   UNL     1       5.674  -4.577  -1.816  0.00  0.00    +0.133 C 
BRANCH  17  18
ATOM     18  N   UNL     1       5.684  -6.039  -1.909  0.00  0.00    -0.388 N 
ATOM     19  C   UNL     1       4.802  -6.649  -2.638  0.00  0.00    +0.090 C 
ATOM     20  H   UNL     1       6.350  -6.551  -1.424  0.00  0.00    +0.159 HD
BRANCH  19  21
ATOM     21  C   UNL     1       4.774  -8.117  -2.683  0.00  0.00    +0.040 A 
ATOM     22  C   UNL     1       5.614  -8.872  -1.863  0.00  0.00    +0.126 A 
ATOM     23  C   UNL     1       5.581 -10.266  -1.911  0.00  0.00    +0.046 A 
ATOM     24  C   UNL     1       4.742 -10.934  -2.744  0.00  0.00    +0.012 A 
ATOM     25  C   UNL     1       3.868 -10.236  -3.597  0.00  0.00    -0.017 A 
ATOM     26  C   UNL     1       3.860  -8.820  -3.582  0.00  0.00    -0.006 A 
ATOM     27  C   UNL     1       2.987  -8.123  -4.426  0.00  0.00    +0.009 A 
ATOM     28  C   UNL     1       2.151  -8.816  -5.251  0.00  0.00    +0.001 A 
ATOM     29  C   UNL     1       2.152 -10.209  -5.264  0.00  0.00    +0.001 A 
ATOM     30  C   UNL     1       2.997 -10.917  -4.464  0.00  0.00    +0.008 A 
BRANCH  22  31
ATOM     31  O   UNL     1       6.468  -8.246  -1.016  0.00  0.00    -0.506 OA
ATOM     32  H   UNL     1       6.097  -8.071  -0.140  0.00  0.00    +0.292 HD
ENDBRANCH  22  31
ENDBRANCH  19  21
ENDBRANCH  17  18
ENDBRANCH   1  17
TORSDOF 7
