REMARK  Name = ZINC55135466
REMARK  10 active torsions:
REMARK  status: ('A' for Active; 'I' for Inactive)
REMARK    1  A    between atoms: C_1  and  C_2
REMARK    2  A    between atoms: C_2  and  C_3
REMARK    3  A    between atoms: C_3  and  C_5
REMARK    4  A    between atoms: C_3  and  N_6
REMARK    5  A    between atoms: C_7  and  C_9
REMARK    6  A    between atoms: C_9  and  C_10
REMARK    7  A    between atoms: C_10  and  N_11
REMARK    8  A    between atoms: C_12  and  C_14
REMARK    9  A    between atoms: C_14  and  C_15
REMARK   10  A    between atoms: C_20  and  N_23
REMARK                            x       y       z     vdW  Elec       q    Type
REMARK                         _______ _______ _______ _____ _____    ______ ____
ROOT
ATOM      1  N   UNL     1      -0.076   0.897  -7.243  0.00  0.00    -0.315 N 
ATOM      2  C   UNL     1       0.540   1.038  -8.433  0.00  0.00    +0.213 C 
ATOM      3  O   UNL     1       1.734   0.849  -8.524  0.00  0.00    -0.276 OA
ATOM      4  H   UNL     1      -1.031   1.049  -7.170  0.00  0.00    +0.149 HD
ENDROOT
BRANCH   1   5
ATOM      5  C   UNL     1       0.697   0.513  -6.059  0.00  0.00    +0.113 C 
BRANCH   5   6
ATOM      6  C   UNL     1      -0.234   0.422  -4.849  0.00  0.00    +0.114 C 
BRANCH   6   8
ATOM      7  N   UNL     1      -0.055  -0.114  -2.441  0.00  0.00    -0.313 N 
ATOM      8  C   UNL     1       0.561   0.028  -3.631  0.00  0.00    +0.215 C 
ATOM      9  O   UNL     1       1.755  -0.162  -3.722  0.00  0.00    -0.276 OA
ATOM     10  H   UNL     1      -1.010   0.038  -2.368  0.00  0.00    +0.149 HD
BRANCH   7  11
ATOM     11  C   UNL     1       0.718  -0.497  -1.257  0.00  0.00    +0.070 C 
ATOM     12  C   UNL     1       0.849  -2.021  -1.205  0.00  0.00    +0.028 C 
BRANCH  11  14
ATOM     13  C   UNL     1      -0.019   1.526   0.010  0.00  0.00    +0.005 C 
ATOM     14  C   UNL     1       0.002  -0.004   0.002  0.00  0.00    +0.018 C 
ENDBRANCH  11  14
ENDBRANCH   7  11
ENDBRANCH   6   8
ENDBRANCH   5   6
ENDBRANCH   1   5
BRANCH   2  15
ATOM     15  C   UNL     1      -0.255   1.433  -9.651  0.00  0.00    +0.099 C 
BRANCH  15  16
ATOM     16  C   UNL     1       0.676   1.524 -10.861  0.00  0.00    -0.004 C 
ATOM     17  C   UNL     1       1.239   0.136 -11.177  0.00  0.00    +0.004 C 
ATOM     18  C   UNL     1       2.170   0.227 -12.387  0.00  0.00    -0.001 C 
ATOM     19  C   UNL     1       1.388   0.748 -13.595  0.00  0.00    -0.016 C 
ATOM     20  C   UNL     1       0.826   2.135 -13.279  0.00  0.00    -0.075 C 
ATOM     21  C   UNL     1      -0.105   2.044 -12.069  0.00  0.00    -0.012 C 
BRANCH  20  22
ATOM     22  N   UNL     1       1.932   3.054 -12.978  0.00  0.00    +0.380 N 
ATOM     23  H   UNL     1       2.546   3.114 -13.776  0.00  0.00    -0.090 HD
ATOM     24  H   UNL     1       1.561   3.969 -12.770  0.00  0.00    -0.090 HD
ATOM     25  H   UNL     1       2.447   2.711 -12.182  0.00  0.00    -0.090 HD
ENDBRANCH  20  22
ENDBRANCH  15  16
ENDBRANCH   2  15
TORSDOF 8
