REMARK  Name = ZINC52015330
REMARK  5 active torsions:
REMARK  status: ('A' for Active; 'I' for Inactive)
REMARK    1  A    between atoms: C_3  and  C_11
REMARK    2  A    between atoms: C_6  and  N_7
REMARK    3  A    between atoms: C_11  and  N_12
REMARK    4  A    between atoms: N_12  and  C_13
REMARK    5  A    between atoms: C_19  and  O_21
REMARK                            x       y       z     vdW  Elec       q    Type
REMARK                         _______ _______ _______ _____ _____    ______ ____
ROOT
ATOM      1  C   UNL     1       3.672   2.184  -0.022  0.00  0.00    -0.045 C 
ENDROOT
BRANCH   1   4
ATOM      2  C   UNL     1      -0.017   1.378   0.010  0.00  0.00    +0.033 A 
ATOM      3  C   UNL     1       1.171   2.086   0.002  0.00  0.00    +0.005 A 
ATOM      4  C   UNL     1       2.377   1.412  -0.013  0.00  0.00    -0.046 A 
ATOM      5  C   UNL     1       2.397   0.029  -0.021  0.00  0.00    +0.044 A 
ATOM      6  C   UNL     1       1.208  -0.679  -0.013  0.00  0.00    +0.053 A 
ATOM      7  C   UNL     1       0.002  -0.004   0.002  0.00  0.00    +0.128 A 
ATOM      8 CL   UNL     1       3.912  -0.818  -0.040  0.00  0.00    -0.083 Cl
BRANCH   7   9
ATOM      9  N   UNL     1      -1.270  -0.761   0.011  0.00  0.00    +0.056 N 
ATOM     10  O   UNL     1      -2.325  -0.171   0.024  0.00  0.00    -0.126 OA
ATOM     11  O   UNL     1      -1.253  -1.970   0.004  0.00  0.00    -0.126 OA
ENDBRANCH   7   9
ENDBRANCH   1   4
BRANCH   1  12
ATOM     12  N   UNL     1       4.289   2.120   1.310  0.00  0.00    +0.385 N 
ATOM     13  H   UNL     1       3.662   2.522   1.991  0.00  0.00    -0.085 HD
ATOM     14  H   UNL     1       4.473   1.158   1.549  0.00  0.00    -0.085 HD
BRANCH  12  15
ATOM     15  C   UNL     1       5.550   2.873   1.301  0.00  0.00    -0.042 C 
ATOM     16  C   UNL     1       6.545   2.190   0.361  0.00  0.00    -0.013 C 
ATOM     17  C   UNL     1       7.859   2.974   0.352  0.00  0.00    -0.001 C 
ATOM     18  C   UNL     1       8.439   3.013   1.767  0.00  0.00    +0.002 C 
ATOM     19  C   UNL     1       7.444   3.696   2.708  0.00  0.00    +0.030 C 
ATOM     20  C   UNL     1       6.130   2.912   2.716  0.00  0.00    +0.101 C 
BRANCH  20  21
ATOM     21  O   UNL     1       5.201   3.550   3.595  0.00  0.00    -0.393 OA
ATOM     22  H   UNL     1       5.504   3.610   4.511  0.00  0.00    +0.210 HD
ENDBRANCH  20  21
ENDBRANCH  12  15
ENDBRANCH   1  12
TORSDOF 5
