REMARK  Name = ZINC45047336
REMARK  4 active torsions:
REMARK  status: ('A' for Active; 'I' for Inactive)
REMARK    1  A    between atoms: C_1  and  C_2
REMARK    2  A    between atoms: C_2  and  N_8
REMARK    3  A    between atoms: N_8  and  S_9
REMARK    4  A    between atoms: S_9  and  C_12
REMARK                            x       y       z     vdW  Elec       q    Type
REMARK                         _______ _______ _______ _____ _____    ______ ____
ROOT
ATOM      1  S   UNL     1      -2.251  -0.006  -1.182  0.00  0.00    +0.059 S 
ATOM      2  O   UNL     1      -3.359  -0.703  -0.630  0.00  0.00    -0.153 OA
ATOM      3  O   UNL     1      -2.314   1.370  -1.532  0.00  0.00    -0.153 OA
ENDROOT
BRANCH   1   4
ATOM      4  C   UNL     1      -1.785  -0.876  -2.642  0.00  0.00    +0.106 A 
ATOM      5  C   UNL     1      -0.895  -0.303  -3.532  0.00  0.00    +0.030 A 
ATOM      6  C   UNL     1      -0.532  -0.985  -4.676  0.00  0.00    +0.025 A 
ATOM      7  C   UNL     1      -1.059  -2.246  -4.932  0.00  0.00    +0.030 A 
ATOM      8  C   UNL     1      -1.948  -2.821  -4.038  0.00  0.00    -0.025 A 
ATOM      9  C   UNL     1      -2.305  -2.131  -2.891  0.00  0.00    +0.034 A 
ATOM     10  C   UNL     1      -2.531  -4.189  -4.277  0.00  0.00    +0.038 C 
ATOM     11  C   UNL     1      -2.435  -4.561  -5.756  0.00  0.00    +0.023 C 
ATOM     12  C   UNL     1      -0.990  -4.349  -6.228  0.00  0.00    +0.102 C 
ATOM     13  N   UNL     1      -0.682  -2.918  -6.100  0.00  0.00    -0.344 N 
ATOM     14  H   UNL     1      -0.224  -2.447  -6.814  0.00  0.00    +0.146 HD
ENDBRANCH   1   4
BRANCH   1  15
ATOM     15  N   UNL     1      -1.007  -0.163  -0.101  0.00  0.00    -0.184 NA
ATOM     16  H   UNL     1      -0.474   0.611   0.142  0.00  0.00    +0.149 HD
BRANCH  15  18
ATOM     17  C   UNL     1      -0.497  -2.497  -0.624  0.00  0.00    +0.029 C 
ATOM     18  C   UNL     1      -0.710  -1.470   0.490  0.00  0.00    +0.037 C 
ATOM     19  C   UNL     1      -1.882  -1.909   1.371  0.00  0.00    +0.023 C 
ATOM     20  C   UNL     1      -2.095  -0.882   2.485  0.00  0.00    +0.002 C 
ATOM     21  C   UNL     1      -0.828  -0.781   3.336  0.00  0.00    +0.000 C 
ATOM     22  C   UNL     1       0.344  -0.343   2.455  0.00  0.00    +0.002 C 
ATOM     23  C   UNL     1       0.557  -1.369   1.341  0.00  0.00    +0.023 C 
ENDBRANCH  15  18
ENDBRANCH   1  15
TORSDOF 3
