REMARK  Name = ZINC09807983
REMARK  6 active torsions:
REMARK  status: ('A' for Active; 'I' for Inactive)
REMARK    1  A    between atoms: C_3  and  C_8
REMARK    2  A    between atoms: C_8  and  C_10
REMARK    3  A    between atoms: C_8  and  N_24
REMARK    4  A    between atoms: C_11  and  O_23
REMARK    5  A    between atoms: C_16  and  C_18
REMARK    6  A    between atoms: C_27  and  C_30
REMARK                            x       y       z     vdW  Elec       q    Type
REMARK                         _______ _______ _______ _____ _____    ______ ____
ROOT
ATOM      1  C   UNL     1       3.672   2.183  -0.022  0.00  0.00    +0.005 C 
ENDROOT
BRANCH   1   2
ATOM      2  C   UNL     1       4.244   2.221   1.372  0.00  0.00    +0.045 A 
ATOM      3  C   UNL     1       4.426   3.272   2.180  0.00  0.00    +0.225 A 
ATOM      4  N   UNL     1       4.968   3.107   3.432  0.00  0.00    -0.173 N 
ATOM      5  C   UNL     1       5.305   1.834   3.803  0.00  0.00    +0.199 A 
ATOM      6  S   UNL     1       4.847   0.875   2.379  0.00  0.00    -0.050 S 
ATOM      7  N   UNL     1       5.801   1.843   5.008  0.00  0.00    -0.197 NA
ATOM      8  C   UNL     1       5.812   3.100   5.473  0.00  0.00    +0.218 A 
ATOM      9  N   UNL     1       5.317   3.902   4.554  0.00  0.00    -0.138 NA
BRANCH   8  10
ATOM     10  C   UNL     1       6.301   3.519   6.803  0.00  0.00    +0.173 A 
ATOM     11  C   UNL     1       6.820   2.700   7.756  0.00  0.00    +0.053 A 
ATOM     12  C   UNL     1       7.154   3.516   8.855  0.00  0.00    +0.042 A 
ATOM     13  C   UNL     1       6.826   4.780   8.522  0.00  0.00    +0.196 A 
ATOM     14  O   UNL     1       6.316   4.779   7.279  0.00  0.00    -0.460 OA
ENDBRANCH   8  10
BRANCH   3  15
ATOM     15  O   UNL     1       4.073   4.516   1.758  0.00  0.00    -0.492 OA
ATOM     16  H   UNL     1       4.240   5.213   2.407  0.00  0.00    +0.294 HD
ENDBRANCH   3  15
ENDBRANCH   1   2
BRANCH   1  19
ATOM     17  C   UNL     1      -0.017   1.378   0.010  0.00  0.00    +0.001 A 
ATOM     18  C   UNL     1       1.171   2.086   0.002  0.00  0.00    +0.002 A 
ATOM     19  C   UNL     1       2.378   1.411  -0.013  0.00  0.00    -0.055 A 
ATOM     20  C   UNL     1       2.397   0.029  -0.022  0.00  0.00    +0.017 A 
ATOM     21  C   UNL     1       1.210  -0.679  -0.014  0.00  0.00    +0.018 A 
ATOM     22  C   UNL     1       0.002  -0.004   0.002  0.00  0.00    +0.015 A 
ATOM     23 BR   UNL     1       1.236  -2.570  -0.025  0.00  0.00    -0.050 Br
ENDBRANCH   1  19
BRANCH   1  24
ATOM     24  N   UNL     1       4.627   1.528  -0.926  0.00  0.00    +0.387 N 
ATOM     25  C   UNL     1       5.890   2.276  -0.926  0.00  0.00    -0.077 C 
ATOM     26  C   UNL     1       6.915   1.552  -1.802  0.00  0.00    -0.006 C 
ATOM     27  C   UNL     1       6.377   1.455  -3.233  0.00  0.00    +0.071 C 
ATOM     28  C   UNL     1       5.024   0.738  -3.211  0.00  0.00    -0.006 C 
ATOM     29  C   UNL     1       4.069   1.492  -2.283  0.00  0.00    -0.077 C 
ATOM     30  H   UNL     1       4.797   0.585  -0.608  0.00  0.00    -0.080 HD
BRANCH  27  31
ATOM     31  C   UNL     1       7.346   0.675  -4.084  0.00  0.00    +0.213 C 
ATOM     32  O   UNL     1       8.368   0.240  -3.595  0.00  0.00    -0.276 OA
ATOM     33  N   UNL     1       7.079   0.462  -5.387  0.00  0.00    -0.329 N 
ATOM     34  H   UNL     1       6.262   0.810  -5.778  0.00  0.00    +0.145 HD
ATOM     35  H   UNL     1       7.702  -0.040  -5.935  0.00  0.00    +0.145 HD
ENDBRANCH  27  31
ENDBRANCH   1  24
TORSDOF 6
