REMARK  Name = ZINC59294009
REMARK  7 active torsions:
REMARK  status: ('A' for Active; 'I' for Inactive)
REMARK    1  A    between atoms: C_1  and  C_2
REMARK    2  A    between atoms: C_2  and  C_33
REMARK    3  A    between atoms: C_6  and  C_21
REMARK    4  A    between atoms: C_8  and  C_19
REMARK    5  A    between atoms: C_9  and  N_18
REMARK    6  A    between atoms: N_10  and  C_11
REMARK    7  A    between atoms: C_24  and  N_27
REMARK                            x       y       z     vdW  Elec       q    Type
REMARK                         _______ _______ _______ _____ _____    ______ ____
ROOT
ATOM      1  C   UNL     1      -0.017   1.571  -0.024  0.00  0.00    +0.011 C 
ATOM      2  C   UNL     1      -0.013   0.042   0.015  0.00  0.00    -0.023 C 
ATOM      3  C   UNL     1       0.728  -0.502  -1.209  0.00  0.00    +0.058 C 
ATOM      4  C   UNL     1       2.160  -0.026  -1.186  0.00  0.00    +0.025 C 
ATOM      5  C   UNL     1       2.800   0.195  -0.018  0.00  0.00    +0.025 C 
ATOM      6  C   UNL     1       4.236   0.656   0.003  0.00  0.00    +0.097 C 
ATOM      7  C   UNL     1       4.641   1.227  -1.324  0.00  0.00    +0.077 C 
ATOM      8  C   UNL     1       3.922   0.969  -2.448  0.00  0.00    +0.107 C 
ATOM      9  N   UNL     1       2.797   0.180  -2.381  0.00  0.00    -0.259 N 
ATOM     10  C   UNL     1       2.149   0.004   1.213  0.00  0.00    +0.162 C 
ATOM     11  O   UNL     1       2.757   0.201   2.246  0.00  0.00    -0.292 OA
ATOM     12  C   UNL     1       0.713  -0.439   1.276  0.00  0.00    +0.086 C 
ATOM     13  C   UNL     1      -1.453  -0.477   0.021  0.00  0.00    +0.011 C 
ENDROOT
BRANCH   9  14
ATOM     14  C   UNL     1       2.298  -0.418  -3.546  0.00  0.00    +0.058 A 
ATOM     15  C   UNL     1       2.679  -1.710  -3.882  0.00  0.00    +0.025 A 
ATOM     16  C   UNL     1       2.186  -2.297  -5.031  0.00  0.00    +0.002 A 
ATOM     17  C   UNL     1       1.314  -1.600  -5.847  0.00  0.00    +0.002 A 
ATOM     18  C   UNL     1       0.932  -0.313  -5.515  0.00  0.00    +0.022 A 
ATOM     19  C   UNL     1       1.417   0.278  -4.364  0.00  0.00    +0.063 A 
ATOM     20 CL   UNL     1       0.931   1.891  -3.944  0.00  0.00    -0.082 Cl
ENDBRANCH   9  14
BRANCH   6  21
ATOM     21  C   UNL     1       5.127  -0.514   0.330  0.00  0.00    -0.035 A 
ATOM     22  C   UNL     1       5.081  -1.656  -0.448  0.00  0.00    +0.007 A 
ATOM     23  C   UNL     1       5.898  -2.730  -0.149  0.00  0.00    +0.033 A 
ATOM     24  C   UNL     1       6.762  -2.661   0.928  0.00  0.00    +0.126 A 
ATOM     25  C   UNL     1       6.809  -1.519   1.706  0.00  0.00    +0.033 A 
ATOM     26  C   UNL     1       5.994  -0.444   1.403  0.00  0.00    +0.007 A 
BRANCH  24  27
ATOM     27  N   UNL     1       7.636  -3.812   1.250  0.00  0.00    +0.056 N 
ATOM     28  O   UNL     1       7.595  -4.811   0.570  0.00  0.00    -0.126 OA
ATOM     29  O   UNL     1       8.392  -3.752   2.192  0.00  0.00    -0.126 OA
ENDBRANCH  24  27
ENDBRANCH   6  21
BRANCH   8  30
ATOM     30  N   UNL     1       4.319   1.498  -3.652  0.00  0.00    -0.345 N 
ATOM     31  H   UNL     1       5.112   2.055  -3.700  0.00  0.00    +0.144 HD
ATOM     32  H   UNL     1       3.806   1.315  -4.455  0.00  0.00    +0.144 HD
ENDBRANCH   8  30
BRANCH   7  33
ATOM     33  C   UNL     1       5.805   2.056  -1.408  0.00  0.00    +0.099 C 
ATOM     34  N   UNL     1       6.729   2.714  -1.475  0.00  0.00    -0.191 NA
ENDBRANCH   7  33
TORSDOF 5
