REMARK  Name = ZINC53869300
REMARK  9 active torsions:
REMARK  status: ('A' for Active; 'I' for Inactive)
REMARK    1  A    between atoms: C_1  and  C_2
REMARK    2  A    between atoms: C_2  and  N_3
REMARK    3  A    between atoms: N_3  and  C_4
REMARK    4  A    between atoms: C_9  and  C_11
REMARK    5  A    between atoms: C_11  and  N_12
REMARK    6  A    between atoms: C_15  and  C_18
REMARK    7  A    between atoms: C_18  and  C_19
REMARK    8  A    between atoms: C_18  and  C_20
REMARK    9  A    between atoms: C_18  and  C_21
REMARK                            x       y       z     vdW  Elec       q    Type
REMARK                         _______ _______ _______ _____ _____    ______ ____
ROOT
ATOM      1  C   UNL     1       0.237  -2.850  -3.524  0.00  0.00    -0.077 C 
ENDROOT
BRANCH   1   2
ATOM      2  N   UNL     1       0.851  -3.220  -4.807  0.00  0.00    +0.380 N 
ATOM      3  C   UNL     1       1.514  -2.047  -5.387  0.00  0.00    -0.079 C 
ATOM      4  C   UNL     1       2.223  -2.446  -6.683  0.00  0.00    -0.015 C 
ATOM      5  C   UNL     1       1.192  -2.994  -7.675  0.00  0.00    -0.009 C 
ATOM      6  C   UNL     1       0.455  -4.171  -7.030  0.00  0.00    -0.015 C 
ATOM      7  C   UNL     1      -0.189  -3.708  -5.721  0.00  0.00    -0.079 C 
ATOM      8  H   UNL     1       1.532  -3.949  -4.655  0.00  0.00    -0.082 HD
BRANCH   5   9
ATOM      9  C   UNL     1       1.905  -3.469  -8.943  0.00  0.00    -0.035 C 
ATOM     10  C   UNL     1       2.903  -4.572  -8.585  0.00  0.00    +0.011 C 
ATOM     11  C   UNL     1       0.874  -4.016  -9.932  0.00  0.00    +0.011 C 
ATOM     12  C   UNL     1       2.649  -2.294  -9.580  0.00  0.00    +0.011 C 
ENDBRANCH   5   9
ENDBRANCH   1   2
BRANCH   1  17
ATOM     13  C   UNL     1       0.710  -1.947  -1.215  0.00  0.00    -0.070 C 
ATOM     14  C   UNL     1       1.599  -2.468  -0.073  0.00  0.00    -0.016 C 
ATOM     15  C   UNL     1       2.733  -3.280  -0.733  0.00  0.00    -0.001 C 
ATOM     16  C   UNL     1       2.148  -3.706  -2.102  0.00  0.00    -0.000 C 
ATOM     17  C   UNL     1       1.333  -2.459  -2.530  0.00  0.00    -0.042 C 
BRANCH  13  18
ATOM     18  N   UNL     1       0.690  -0.478  -1.207  0.00  0.00    +0.381 N 
ATOM     19  H   UNL     1       0.202  -0.144  -2.024  0.00  0.00    -0.086 HD
ATOM     20  H   UNL     1       1.636  -0.129  -1.214  0.00  0.00    -0.086 HD
BRANCH  18  22
ATOM     21  C   UNL     1      -0.019   1.526   0.010  0.00  0.00    -0.017 C 
ATOM     22  C   UNL     1       0.002  -0.004   0.002  0.00  0.00    -0.086 C 
ENDBRANCH  18  22
ENDBRANCH  13  18
ENDBRANCH   1  17
TORSDOF 5
