REMARK  Name = ZINC04087084
REMARK  4 active torsions:
REMARK  status: ('A' for Active; 'I' for Inactive)
REMARK    1  A    between atoms: C_1  and  N_39
REMARK    2  A    between atoms: C_7  and  N_12
REMARK    3  A    between atoms: C_8  and  C_9
REMARK    4  A    between atoms: C_13  and  C_15
REMARK                            x       y       z     vdW  Elec       q    Type
REMARK                         _______ _______ _______ _____ _____    ______ ____
ROOT
ATOM      1  C   UNL     1       4.024   3.825   4.596  0.00  0.00    -0.096 C 
ATOM      2  C   UNL     1       2.540   2.178   3.622  0.00  0.00    -0.074 C 
ATOM      3  C   UNL     1       1.384   2.012   2.631  0.00  0.00    +0.018 C 
ATOM      4  C   UNL     1       1.901   2.347   1.236  0.00  0.00    -0.027 A 
ATOM      5  C   UNL     1       3.058   3.033   1.088  0.00  0.00    -0.021 A 
ATOM      6  S   UNL     1       3.273   3.180  -0.661  0.00  0.00    -0.079 S 
ATOM      7  C   UNL     1       1.853   2.339  -1.190  0.00  0.00    +0.085 A 
ATOM      8  C   UNL     1       1.245   1.963   0.001  0.00  0.00    +0.068 A 
ATOM      9  C   UNL     1       3.934   3.545   2.188  0.00  0.00    -0.036 C 
ATOM     10  N   UNL     1       3.149   3.512   3.446  0.00  0.00    +0.381 N 
ATOM     11  H   UNL     1       2.403   4.216   3.393  0.00  0.00    -0.082 HD
ENDROOT
BRANCH   8  12
ATOM     12  C   UNL     1      -0.014   1.213   0.009  0.00  0.00    +0.244 C 
ATOM     13  O   UNL     1       0.002  -0.004   0.002  0.00  0.00    -0.270 OA
ATOM     14  N   UNL     1      -1.191   1.871   0.018  0.00  0.00    -0.325 N 
ATOM     15  H   UNL     1      -2.024   1.375   0.019  0.00  0.00    +0.145 HD
ATOM     16  H   UNL     1      -1.204   2.841   0.023  0.00  0.00    +0.145 HD
ENDBRANCH   8  12
BRANCH   7  17
ATOM     17  N   UNL     1       1.427   2.100  -2.487  0.00  0.00    -0.275 N 
ATOM     18  C   UNL     1       2.157   2.546  -3.529  0.00  0.00    +0.249 C 
ATOM     19  O   UNL     1       3.188   3.159  -3.331  0.00  0.00    -0.270 OA
ATOM     20  H   UNL     1       0.605   1.611  -2.645  0.00  0.00    +0.156 HD
BRANCH  18  21
ATOM     21  C   UNL     1       1.702   2.291  -4.912  0.00  0.00    +0.040 A 
ATOM     22  C   UNL     1       0.522   1.583  -5.142  0.00  0.00    +0.033 A 
ATOM     23  C   UNL     1       0.100   1.353  -6.437  0.00  0.00    +0.043 A 
ATOM     24  C   UNL     1       0.851   1.813  -7.505  0.00  0.00    +0.040 A 
ATOM     25  C   UNL     1       2.026   2.511  -7.283  0.00  0.00    +0.043 A 
ATOM     26  C   UNL     1       2.455   2.752  -5.993  0.00  0.00    +0.033 A 
ATOM     27 CL   UNL     1       2.961   3.084  -8.629  0.00  0.00    -0.083 Cl
ATOM     28 CL   UNL     1      -1.372   0.479  -6.726  0.00  0.00    -0.083 Cl
ENDBRANCH  18  21
ENDBRANCH   7  17
TORSDOF 3
