REMARK  Name = ZINC39780192
REMARK  7 active torsions:
REMARK  status: ('A' for Active; 'I' for Inactive)
REMARK    1  A    between atoms: C_1  and  O_2
REMARK    2  A    between atoms: O_2  and  C_3
REMARK    3  A    between atoms: C_5  and  C_12
REMARK    4  A    between atoms: C_8  and  O_9
REMARK    5  A    between atoms: O_9  and  C_10
REMARK    6  A    between atoms: C_13  and  C_14
REMARK    7  A    between atoms: C_13  and  C_16
REMARK                            x       y       z     vdW  Elec       q    Type
REMARK                         _______ _______ _______ _____ _____    ______ ____
ROOT
ATOM      1  C   UNL     1      -4.853   0.222   0.038  0.00  0.00    +0.027 C 
ATOM      2  C   UNL     1      -4.808   1.567   0.142  0.00  0.00    +0.072 C 
ENDROOT
BRANCH   2   3
ATOM      3  C   UNL     1      -6.085   2.357   0.266  0.00  0.00    +0.216 C 
ATOM      4  N   UNL     1      -6.059   3.168   1.490  0.00  0.00    -0.359 N 
ATOM      5  C   UNL     1      -6.153   4.416   1.132  0.00  0.00    +0.060 A 
ATOM      6  C   UNL     1      -6.180   5.674   1.893  0.00  0.00    +0.027 A 
ATOM      7  C   UNL     1      -6.287   6.846   1.235  0.00  0.00    +0.002 A 
ATOM      8  C   UNL     1      -6.375   6.924  -0.166  0.00  0.00    +0.002 A 
ATOM      9  C   UNL     1      -6.359   5.833  -0.957  0.00  0.00    +0.027 A 
ATOM     10  C   UNL     1      -6.246   4.499  -0.351  0.00  0.00    +0.060 A 
ATOM     11  N   UNL     1      -6.207   3.299  -0.853  0.00  0.00    -0.359 N 
ATOM     12  H   UNL     1      -5.986   2.835   2.398  0.00  0.00    +0.162 HD
ATOM     13  H   UNL     1      -6.249   3.069  -1.795  0.00  0.00    +0.162 HD
ENDBRANCH   2   3
BRANCH   1  16
ATOM     14  C   UNL     1      -1.363  -0.871   0.876  0.00  0.00    +0.162 A 
ATOM     15  C   UNL     1      -2.530  -0.132   0.851  0.00  0.00    +0.058 A 
ATOM     16  C   UNL     1      -3.608  -0.559   0.069  0.00  0.00    -0.006 A 
ATOM     17  C   UNL     1      -3.498  -1.734  -0.685  0.00  0.00    +0.029 A 
ATOM     18  C   UNL     1      -2.329  -2.465  -0.654  0.00  0.00    +0.065 A 
ATOM     19  C   UNL     1      -1.259  -2.036   0.118  0.00  0.00    +0.163 A 
ATOM     20 BR   UNL     1      -4.951  -2.318  -1.745  0.00  0.00    -0.050 Br
BRANCH  14  22
ATOM     21  C   UNL     1      -0.489   0.745   2.387  0.00  0.00    +0.277 C 
ATOM     22  O   UNL     1      -0.313  -0.458   1.636  0.00  0.00    -0.491 OA
ENDBRANCH  14  22
BRANCH  19  23
ATOM     23  O   UNL     1      -0.108  -2.757   0.140  0.00  0.00    -0.491 OA
ATOM     24  C   UNL     1      -0.068  -3.941  -0.660  0.00  0.00    +0.277 C 
ENDBRANCH  19  23
ENDBRANCH   1  16
BRANCH   2  25
ATOM     25  C   UNL     1      -3.546   2.244   0.134  0.00  0.00    +0.099 C 
ATOM     26  N   UNL     1      -2.545   2.781   0.127  0.00  0.00    -0.191 NA
ENDBRANCH   2  25
TORSDOF 5
