REMARK  Name = ZINC43336827
REMARK  11 active torsions:
REMARK  status: ('A' for Active; 'I' for Inactive)
REMARK    1  A    between atoms: C_1  and  C_2
REMARK    2  A    between atoms: C_2  and  C_3
REMARK    3  A    between atoms: C_3  and  C_4
REMARK    4  A    between atoms: C_3  and  C_5
REMARK    5  A    between atoms: C_3  and  C_6
REMARK    6  A    between atoms: C_9  and  O_12
REMARK    7  A    between atoms: O_12  and  C_13
REMARK    8  A    between atoms: C_13  and  C_15
REMARK    9  A    between atoms: C_13  and  C_20
REMARK   10  A    between atoms: C_20  and  C_22
REMARK   11  A    between atoms: C_20  and  N_23
REMARK                            x       y       z     vdW  Elec       q    Type
REMARK                         _______ _______ _______ _____ _____    ______ ____
ROOT
ATOM      1  O   UNL     1       0.796  -6.129  -1.287  0.00  0.00    -0.483 OA
ENDROOT
BRANCH   1   5
ATOM      2  C   UNL     1       0.369  -2.029  -1.447  0.00  0.00    -0.042 A 
ATOM      3  C   UNL     1      -0.185  -2.740  -0.399  0.00  0.00    +0.008 A 
ATOM      4  C   UNL     1      -0.043  -4.113  -0.343  0.00  0.00    +0.046 A 
ATOM      5  C   UNL     1       0.655  -4.779  -1.340  0.00  0.00    +0.121 A 
ATOM      6  C   UNL     1       1.209  -4.063  -2.391  0.00  0.00    +0.046 A 
ATOM      7  C   UNL     1       1.060  -2.691  -2.445  0.00  0.00    +0.008 A 
BRANCH   2   8
ATOM      8  C   UNL     1       0.213  -0.531  -1.505  0.00  0.00    -0.010 C 
ATOM      9  C   UNL     1      -0.527  -0.145  -2.787  0.00  0.00    +0.016 C 
ATOM     10  C   UNL     1       1.595   0.126  -1.497  0.00  0.00    +0.016 C 
BRANCH   8  12
ATOM     11  C   UNL     1      -0.744   1.467  -0.350  0.00  0.00    +0.005 C 
ATOM     12  C   UNL     1      -0.586  -0.054  -0.291  0.00  0.00    +0.007 C 
ENDBRANCH   8  12
ENDBRANCH   2   8
ENDBRANCH   1   5
BRANCH   1  13
ATOM     13  C   UNL     1       0.273  -6.792  -0.134  0.00  0.00    +0.224 C 
BRANCH  13  14
ATOM     14  C   UNL     1      -0.196  -8.172  -0.516  0.00  0.00    +0.143 A 
ATOM     15  C   UNL     1      -1.313  -8.774  -0.072  0.00  0.00    +0.048 A 
ATOM     16  C   UNL     1      -1.362 -10.049  -0.682  0.00  0.00    +0.041 A 
ATOM     17  C   UNL     1      -0.272 -10.148  -1.464  0.00  0.00    +0.195 A 
ATOM     18  O   UNL     1       0.428  -9.006  -1.363  0.00  0.00    -0.464 OA
ENDBRANCH  13  14
BRANCH  13  19
ATOM     19  C   UNL     1       1.366  -6.901   0.931  0.00  0.00    -0.029 C 
ATOM     20  C   UNL     1       2.592  -7.594   0.333  0.00  0.00    -0.010 C 
BRANCH  19  21
ATOM     21  N   UNL     1       1.739  -5.556   1.390  0.00  0.00    +0.382 N 
ATOM     22  H   UNL     1       2.082  -5.017   0.610  0.00  0.00    -0.089 HD
ATOM     23  H   UNL     1       0.930  -5.099   1.784  0.00  0.00    -0.089 HD
ATOM     24  H   UNL     1       2.460  -5.629   2.092  0.00  0.00    -0.089 HD
ENDBRANCH  19  21
ENDBRANCH  13  19
ENDBRANCH   1  13
TORSDOF 7
