REMARK  Name = ZINC31580674
REMARK  11 active torsions:
REMARK  status: ('A' for Active; 'I' for Inactive)
REMARK    1  A    between atoms: C_1  and  C_2
REMARK    2  A    between atoms: C_2  and  O_3
REMARK    3  A    between atoms: O_3  and  C_4
REMARK    4  A    between atoms: C_4  and  C_6
REMARK    5  A    between atoms: N_12  and  C_13
REMARK    6  A    between atoms: C_13  and  C_14
REMARK    7  A    between atoms: N_16  and  C_17
REMARK    8  A    between atoms: C_18  and  C_31
REMARK    9  A    between atoms: C_19  and  C_30
REMARK   10  A    between atoms: C_20  and  C_29
REMARK   11  A    between atoms: N_21  and  C_22
REMARK                            x       y       z     vdW  Elec       q    Type
REMARK                         _______ _______ _______ _____ _____    ______ ____
ROOT
ATOM      1  C   UNL     1       1.391  -5.893  -0.589  0.00  0.00    +0.202 C 
ATOM      2  O   UNL     1       0.839  -6.741  -1.258  0.00  0.00    -0.278 OA
ATOM      3  N   UNL     1       2.362  -6.246   0.277  0.00  0.00    -0.272 N 
ATOM      4  H   UNL     1       2.883  -5.474   0.863  0.00  0.00    +0.156 HD
ENDROOT
BRANCH   3   5
ATOM      5  C   UNL     1       2.704  -7.581   0.429  0.00  0.00    +0.128 A 
ATOM      6  C   UNL     1       3.337  -8.376  -0.517  0.00  0.00    +0.095 A 
ATOM      7  C   UNL     1       3.485  -9.700   0.100  0.00  0.00    -0.010 A 
ATOM      8  C   UNL     1       2.951  -9.616   1.329  0.00  0.00    +0.027 A 
ATOM      9  N   UNL     1       2.485  -8.343   1.535  0.00  0.00    -0.300 N 
ATOM     10  C   UNL     1       2.881 -10.742   2.328  0.00  0.00    +0.064 C 
ATOM     11  C   UNL     1       4.114 -10.918  -0.527  0.00  0.00    +0.047 C 
BRANCH   9  12
ATOM     12  C   UNL     1       1.869  -7.894   2.711  0.00  0.00    +0.051 A 
ATOM     13  C   UNL     1       2.597  -7.819   3.892  0.00  0.00    +0.026 A 
ATOM     14  C   UNL     1       1.990  -7.372   5.049  0.00  0.00    +0.005 A 
ATOM     15  C   UNL     1       0.656  -7.007   5.036  0.00  0.00    +0.038 A 
ATOM     16  C   UNL     1      -0.074  -7.085   3.862  0.00  0.00    +0.125 A 
ATOM     17  C   UNL     1       0.531  -7.528   2.699  0.00  0.00    +0.064 A 
ATOM     18  F   UNL     1      -1.377  -6.728   3.852  0.00  0.00    -0.205 F 
ENDBRANCH   9  12
BRANCH   6  19
ATOM     19  C   UNL     1       3.759  -7.983  -1.828  0.00  0.00    +0.103 C 
ATOM     20  N   UNL     1       4.094  -7.672  -2.868  0.00  0.00    -0.191 NA
ENDBRANCH   6  19
ENDBRANCH   3   5
BRANCH   1  21
ATOM     21  C   UNL     1       0.993  -4.447  -0.726  0.00  0.00    +0.020 C 
BRANCH  21  27
ATOM     22  C   UNL     1      -0.390  -2.953  -2.031  0.00  0.00    +0.053 C 
ATOM     23  C   UNL     1      -1.468  -2.955  -3.121  0.00  0.00    +0.065 C 
ATOM     24  S   UNL     1      -0.657  -3.230  -4.728  0.00  0.00    -0.164 S 
ATOM     25  C   UNL     1       0.372  -4.697  -4.410  0.00  0.00    +0.050 C 
ATOM     26  C   UNL     1       1.188  -4.447  -3.136  0.00  0.00    -0.066 C 
ATOM     27  N   UNL     1       0.285  -4.252  -1.999  0.00  0.00    +0.395 N 
ATOM     28  H   UNL     1      -0.500  -5.017  -2.086  0.00  0.00    -0.080 HD
BRANCH  22  29
ATOM     29  C   UNL     1      -1.030  -2.688  -0.693  0.00  0.00    +0.294 C 
ATOM     30  O   UNL     1      -1.500  -3.601  -0.057  0.00  0.00    -0.253 OA
BRANCH  29  31
ATOM     31  O   UNL     1      -1.080  -1.437  -0.209  0.00  0.00    -0.466 OA
BRANCH  31  33
ATOM     32  C   UNL     1      -1.675   0.224   1.470  0.00  0.00    +0.048 C 
ATOM     33  C   UNL     1      -1.713  -1.256   1.086  0.00  0.00    +0.228 C 
ENDBRANCH  31  33
ENDBRANCH  29  31
ENDBRANCH  22  29
ENDBRANCH  21  27
ENDBRANCH   1  21
TORSDOF 8
