REMARK  Name = ZINC15002724
REMARK  9 active torsions:
REMARK  status: ('A' for Active; 'I' for Inactive)
REMARK    1  A    between atoms: C_1  and  C_2
REMARK    2  A    between atoms: C_2  and  C_3
REMARK    3  A    between atoms: C_2  and  C_4
REMARK    4  A    between atoms: C_2  and  C_30
REMARK    5  A    between atoms: C_4  and  N_57
REMARK    6  A    between atoms: C_5  and  N_57
REMARK    7  A    between atoms: N_16  and  C_19
REMARK    8  A    between atoms: C_19  and  C_20
REMARK    9  A    between atoms: C_30  and  O_31
REMARK                            x       y       z     vdW  Elec       q    Type
REMARK                         _______ _______ _______ _____ _____    ______ ____
ROOT
ATOM      1  C   UNL     1       0.002  -0.004   0.002  0.00  0.00    -0.067 C 
ATOM      2  C   UNL     1      -0.019   1.527   0.010  0.00  0.00    -0.011 C 
ATOM      3  C   UNL     1       1.412   2.066  -0.000  0.00  0.00    +0.035 C 
ATOM      4  C   UNL     1       2.172   1.428  -1.161  0.00  0.00    -0.023 A 
ATOM      5  C   UNL     1       1.716   0.292  -1.739  0.00  0.00    -0.006 A 
ATOM      6  S   UNL     1       2.889  -0.080  -3.019  0.00  0.00    -0.073 S 
ATOM      7  C   UNL     1       3.983   1.283  -2.777  0.00  0.00    +0.116 A 
ATOM      8  C   UNL     1       3.397   1.988  -1.702  0.00  0.00    +0.076 A 
ATOM      9  C   UNL     1       4.069   3.176  -1.258  0.00  0.00    +0.263 A 
ATOM     10  O   UNL     1       3.646   3.856  -0.339  0.00  0.00    -0.267 OA
ATOM     11  N   UNL     1       5.203   3.494  -1.927  0.00  0.00    -0.294 N 
ATOM     12  C   UNL     1       5.689   2.753  -2.951  0.00  0.00    +0.203 A 
ATOM     13  N   UNL     1       5.103   1.659  -3.385  0.00  0.00    -0.230 NA
ATOM     14  C   UNL     1       0.487  -0.481  -1.374  0.00  0.00    +0.027 C 
ENDROOT
BRANCH   1  15
ATOM     15  N   UNL     1      -1.361  -0.511   0.251  0.00  0.00    +0.382 N 
ATOM     16  H   UNL     1      -1.841   0.117   0.905  0.00  0.00    -0.085 HD
ATOM     17  H   UNL     1      -1.877  -0.543  -0.636  0.00  0.00    -0.085 HD
BRANCH  15  18
ATOM     18  C   UNL     1      -1.304  -1.867   0.830  0.00  0.00    -0.074 C 
BRANCH  18  20
ATOM     19  C   UNL     1      -3.440  -1.421   2.048  0.00  0.00    +0.011 C 
ATOM     20  C   UNL     1      -2.730  -2.366   1.077  0.00  0.00    -0.027 C 
ATOM     21  C   UNL     1      -3.493  -2.404  -0.249  0.00  0.00    +0.011 C 
BRANCH  20  22
ATOM     22  C   UNL     1      -2.681  -3.772   1.677  0.00  0.00    +0.160 C 
BRANCH  22  23
ATOM     23  O   UNL     1      -4.012  -4.238   1.908  0.00  0.00    -0.395 OA
ATOM     24  H   UNL     1      -4.057  -5.126   2.289  0.00  0.00    +0.209 HD
ENDBRANCH  22  23
ENDBRANCH  20  22
ENDBRANCH  18  20
ENDBRANCH  15  18
ENDBRANCH   1  15
BRANCH  11  25
ATOM     25  C   UNL     1       5.937   4.696  -1.524  0.00  0.00    +0.168 C 
BRANCH  25  26
ATOM     26  C   UNL     1       6.948   4.336  -0.466  0.00  0.00    +0.011 A 
ATOM     27  C   UNL     1       8.222   3.950  -0.632  0.00  0.00    +0.021 A 
ATOM     28  C   UNL     1       9.033   3.648   0.538  0.00  0.00    -0.010 A 
ATOM     29  C   UNL     1      10.384   3.229   0.595  0.00  0.00    +0.009 A 
ATOM     30  C   UNL     1      10.987   2.990   1.790  0.00  0.00    +0.001 A 
ATOM     31  C   UNL     1      10.307   3.146   2.990  0.00  0.00    +0.001 A 
ATOM     32  C   UNL     1       8.988   3.553   2.977  0.00  0.00    +0.015 A 
ATOM     33  C   UNL     1       8.365   3.799   1.772  0.00  0.00    +0.020 A 
ATOM     34  S   UNL     1       6.738   4.329   1.304  0.00  0.00    -0.091 S 
ENDBRANCH  25  26
ENDBRANCH  11  25
TORSDOF 7
