REMARK  Name = ZINC05074094
REMARK  9 active torsions:
REMARK  status: ('A' for Active; 'I' for Inactive)
REMARK    1  A    between atoms: C_1  and  C_2
REMARK    2  A    between atoms: C_4  and  N_9
REMARK    3  A    between atoms: C_5  and  C_8
REMARK    4  A    between atoms: C_10  and  C_13
REMARK    5  A    between atoms: N_11  and  O_12
REMARK    6  A    between atoms: N_14  and  O_15
REMARK    7  A    between atoms: N_16  and  C_17
REMARK    8  A    between atoms: C_18  and  C_24
REMARK    9  A    between atoms: C_21  and  C_23
REMARK                            x       y       z     vdW  Elec       q    Type
REMARK                         _______ _______ _______ _____ _____    ______ ____
ROOT
ATOM      1  N   UNL     1       0.031  -2.235  -2.719  0.00  0.00    -0.294 N 
ATOM      2  C   UNL     1       0.720  -1.781  -3.834  0.00  0.00    +0.206 C 
ATOM      3  N   UNL     1       1.520  -0.761  -3.734  0.00  0.00    -0.068 NA
ATOM      4  H   UNL     1      -0.628  -2.941  -2.809  0.00  0.00    +0.154 HD
ENDROOT
BRANCH   1   8
ATOM      5  C   UNL     1       3.137   0.015   0.355  0.00  0.00    +0.044 C 
ATOM      6  C   UNL     1       1.784  -0.577   0.054  0.00  0.00    -0.049 A 
ATOM      7  C   UNL     1       1.535  -1.130  -1.187  0.00  0.00    +0.027 A 
ATOM      8  C   UNL     1       0.288  -1.675  -1.464  0.00  0.00    +0.036 A 
ATOM      9  C   UNL     1      -0.705  -1.662  -0.492  0.00  0.00    -0.029 A 
ATOM     10  C   UNL     1      -0.448  -1.107   0.746  0.00  0.00    +0.005 A 
ATOM     11  C   UNL     1       0.796  -0.570   1.021  0.00  0.00    +0.004 A 
ATOM     12  C   UNL     1      -2.059  -2.252  -0.788  0.00  0.00    +0.045 C 
ENDBRANCH   1   8
BRANCH   2  13
ATOM     13  C   UNL     1       0.543  -2.458  -5.138  0.00  0.00    +0.206 C 
ATOM     14  N   UNL     1       1.086  -3.622  -5.345  0.00  0.00    -0.068 NA
ATOM     15  N   UNL     1      -0.201  -1.851  -6.139  0.00  0.00    -0.294 N 
ATOM     16  H   UNL     1      -0.637  -1.001  -5.971  0.00  0.00    +0.154 HD
BRANCH  15  17
ATOM     17  C   UNL     1      -0.323  -2.465  -7.388  0.00  0.00    +0.036 A 
ATOM     18  C   UNL     1      -0.395  -1.692  -8.540  0.00  0.00    -0.029 A 
ATOM     19  C   UNL     1      -0.515  -2.302  -9.773  0.00  0.00    +0.005 A 
ATOM     20  C   UNL     1      -0.565  -3.681  -9.862  0.00  0.00    +0.004 A 
ATOM     21  C   UNL     1      -0.494  -4.454  -8.718  0.00  0.00    -0.049 A 
ATOM     22  C   UNL     1      -0.366  -3.851  -7.482  0.00  0.00    +0.027 A 
ATOM     23  C   UNL     1      -0.549  -5.957  -8.820  0.00  0.00    +0.044 C 
ATOM     24  C   UNL     1      -0.342  -0.189  -8.444  0.00  0.00    +0.045 C 
ENDBRANCH  15  17
BRANCH  14  25
ATOM     25  O   UNL     1       1.754  -4.290  -4.290  0.00  0.00    -0.408 OA
ATOM     26  H   UNL     1       2.124  -5.147  -4.540  0.00  0.00    +0.328 HD
ENDBRANCH  14  25
ENDBRANCH   2  13
BRANCH   3  27
ATOM     27  O   UNL     1       2.138  -0.230  -4.892  0.00  0.00    -0.408 OA
ATOM     28  H   UNL     1       2.715   0.526  -4.718  0.00  0.00    +0.328 HD
ENDBRANCH   3  27
TORSDOF 5
