REMARK  Name = ZINC38966313
REMARK  8 active torsions:
REMARK  status: ('A' for Active; 'I' for Inactive)
REMARK    1  A    between atoms: C_1  and  O_2
REMARK    2  A    between atoms: O_2  and  C_3
REMARK    3  A    between atoms: C_8  and  N_9
REMARK    4  A    between atoms: C_12  and  N_30
REMARK    5  A    between atoms: C_15  and  C_17
REMARK    6  A    between atoms: C_17  and  S_18
REMARK    7  A    between atoms: S_18  and  C_19
REMARK    8  A    between atoms: C_22  and  C_24
REMARK                            x       y       z     vdW  Elec       q    Type
REMARK                         _______ _______ _______ _____ _____    ______ ____
ROOT
ATOM      1  N   UNL     1      -0.102  -2.773  -0.011  0.00  0.00    -0.215 NA
ATOM      2  C   UNL     1      -0.156  -4.080   0.081  0.00  0.00    +0.188 C 
ATOM      3  N   UNL     1      -1.355  -4.783   0.088  0.00  0.00    -0.285 N 
ATOM      4  C   UNL     1      -1.435  -5.937  -0.822  0.00  0.00    +0.239 C 
ATOM      5  N   UNL     1      -0.152  -6.636  -0.839  0.00  0.00    -0.346 N 
ATOM      6  C   UNL     1       0.936  -6.127  -0.388  0.00  0.00    +0.087 C 
ATOM      7  N   UNL     1       0.982  -4.874   0.174  0.00  0.00    -0.277 N 
ATOM      8  H   UNL     1      -2.096  -4.528   0.660  0.00  0.00    +0.152 HD
ATOM      9  H   UNL     1      -0.121  -7.531  -1.210  0.00  0.00    +0.164 HD
ATOM     10  H   UNL     1       1.782  -4.556   0.621  0.00  0.00    +0.156 HD
ENDROOT
BRANCH   1  16
ATOM     11  C   UNL     1      -1.391  -0.955   0.883  0.00  0.00    +0.145 A 
ATOM     12  C   UNL     1      -2.560  -0.214   0.887  0.00  0.00    +0.048 A 
ATOM     13  C   UNL     1      -3.594  -0.544   0.031  0.00  0.00    +0.004 A 
ATOM     14  C   UNL     1      -3.469  -1.616  -0.835  0.00  0.00    +0.002 A 
ATOM     15  C   UNL     1      -2.309  -2.364  -0.852  0.00  0.00    +0.031 A 
ATOM     16  C   UNL     1      -1.258  -2.037   0.004  0.00  0.00    +0.109 A 
BRANCH  11  18
ATOM     17  C   UNL     1      -0.581   0.486   2.593  0.00  0.00    +0.277 C 
ATOM     18  O   UNL     1      -0.374  -0.630   1.724  0.00  0.00    -0.493 OA
ENDBRANCH  11  18
ENDBRANCH   1  16
BRANCH   4  19
ATOM     19  N   UNL     1      -1.756  -5.470  -2.177  0.00  0.00    -0.296 NA
ATOM     20  H   UNL     1      -2.640  -4.984  -2.192  0.00  0.00    +0.122 HD
ATOM     21  H   UNL     1      -1.017  -4.889  -2.543  0.00  0.00    +0.122 HD
ENDBRANCH   4  19
BRANCH   6  22
ATOM     22  C   UNL     1       2.208  -6.930  -0.481  0.00  0.00    +0.148 C 
BRANCH  22  23
ATOM     23  S   UNL     1       3.579  -5.975   0.226  0.00  0.00    -0.058 S 
BRANCH  23  24
ATOM     24  C   UNL     1       4.975  -7.035   0.044  0.00  0.00    +0.278 A 
ATOM     25  N   UNL     1       4.976  -8.234  -0.495  0.00  0.00    -0.101 NA
ATOM     26  N   UNL     1       6.168  -8.716  -0.462  0.00  0.00    -0.106 NA
ATOM     27  C   UNL     1       6.974  -7.848   0.099  0.00  0.00    +0.249 A 
ATOM     28  O   UNL     1       6.237  -6.763   0.426  0.00  0.00    -0.411 OA
BRANCH  27  29
ATOM     29  C   UNL     1       8.424  -8.020   0.327  0.00  0.00    +0.041 A 
ATOM     30  C   UNL     1       9.180  -7.016   0.945  0.00  0.00    +0.033 A 
ATOM     31  C   UNL     1      10.530  -7.219   1.138  0.00  0.00    +0.111 A 
ATOM     32  N   UNL     1      11.109  -8.340   0.749  0.00  0.00    -0.263 NA
ATOM     33  C   UNL     1      10.434  -9.311   0.163  0.00  0.00    +0.111 A 
ATOM     34  C   UNL     1       9.079  -9.195  -0.064  0.00  0.00    +0.033 A 
ENDBRANCH  27  29
ENDBRANCH  23  24
ENDBRANCH  22  23
ENDBRANCH   6  22
TORSDOF 7
