REMARK  Name = ZINC35502337
REMARK  4 active torsions:
REMARK  status: ('A' for Active; 'I' for Inactive)
REMARK    1  A    between atoms: C_1  and  N_2
REMARK    2  A    between atoms: N_2  and  C_3
REMARK    3  A    between atoms: C_3  and  C_5
REMARK    4  A    between atoms: C_3  and  C_14
REMARK                            x       y       z     vdW  Elec       q    Type
REMARK                         _______ _______ _______ _____ _____    ______ ____
ROOT
ATOM      1  C   UNL     1      -1.376  -0.512   0.012  0.00  0.00    -0.008 C 
ENDROOT
BRANCH   1   2
ATOM      2  C   UNL     1      -2.067  -0.116  -1.267  0.00  0.00    -0.053 A 
ATOM      3  C   UNL     1      -1.383  -0.171  -2.466  0.00  0.00    +0.006 A 
ATOM      4  C   UNL     1      -2.013   0.191  -3.642  0.00  0.00    +0.050 A 
ATOM      5  C   UNL     1      -3.333   0.611  -3.621  0.00  0.00    +0.166 A 
ATOM      6  C   UNL     1      -4.023   0.666  -2.412  0.00  0.00    +0.166 A 
ATOM      7  C   UNL     1      -3.387   0.296  -1.238  0.00  0.00    +0.052 A 
ATOM      8  O   UNL     1      -5.292   1.105  -2.654  0.00  0.00    -0.453 OA
ATOM      9  C   UNL     1      -5.248   1.707  -3.962  0.00  0.00    +0.466 C 
ATOM     10  O   UNL     1      -4.170   1.015  -4.620  0.00  0.00    -0.453 OA
ENDBRANCH   1   2
BRANCH   1  11
ATOM     11  C   UNL     1      -1.356  -2.015   0.128  0.00  0.00    -0.030 A 
ATOM     12  C   UNL     1      -0.217  -2.729  -0.198  0.00  0.00    +0.031 A 
ATOM     13  C   UNL     1      -0.234  -4.080  -0.082  0.00  0.00    +0.080 A 
ATOM     14  S   UNL     1      -1.894  -4.381   0.503  0.00  0.00    -0.065 S 
ATOM     15  C   UNL     1      -2.453  -2.687   0.558  0.00  0.00    +0.081 A 
ATOM     16 CL   UNL     1      -4.000  -2.062   1.037  0.00  0.00    -0.076 Cl
ATOM     17 CL   UNL     1       1.031  -5.222  -0.415  0.00  0.00    -0.076 Cl
ENDBRANCH   1  11
BRANCH   1  19
ATOM     18  C   UNL     1      -0.018   1.465   0.010  0.00  0.00    -0.099 C 
ATOM     19  N   UNL     1       0.002  -0.004   0.002  0.00  0.00    +0.384 N 
ATOM     20  H   UNL     1       0.474  -0.330  -0.828  0.00  0.00    -0.085 HD
ATOM     21  H   UNL     1       0.490  -0.338   0.820  0.00  0.00    -0.085 HD
ENDBRANCH   1  19
TORSDOF 3
