REMARK  Name = ZINC01710374
REMARK  6 active torsions:
REMARK  status: ('A' for Active; 'I' for Inactive)
REMARK    1  A    between atoms: C_1  and  C_2
REMARK    2  A    between atoms: C_2  and  C_3
REMARK    3  A    between atoms: C_2  and  C_4
REMARK    4  A    between atoms: C_4  and  C_5
REMARK    5  A    between atoms: C_5  and  C_14
REMARK    6  A    between atoms: C_14  and  C_16
REMARK                            x       y       z     vdW  Elec       q    Type
REMARK                         _______ _______ _______ _____ _____    ______ ____
ROOT
ATOM      1  C   UNL     1      -0.093   1.791   2.460  0.00  0.00    +0.144 C 
ATOM      2  C   UNL     1       1.257   2.483   2.423  0.00  0.00    +0.240 C 
ATOM      3  O   UNL     1       1.352   3.662   2.159  0.00  0.00    -0.274 OA
ATOM      4  N   UNL     1       2.348   1.736   2.695  0.00  0.00    -0.239 N 
ATOM      5  C   UNL     1       2.260   0.434   2.988  0.00  0.00    +0.312 C 
ATOM      6  O   UNL     1       3.294  -0.162   3.219  0.00  0.00    -0.252 OA
ATOM      7  N   UNL     1       1.118  -0.261   3.044  0.00  0.00    -0.239 N 
ATOM      8  C   UNL     1      -0.080   0.313   2.803  0.00  0.00    +0.240 C 
ATOM      9  O   UNL     1      -1.107  -0.329   2.858  0.00  0.00    -0.274 OA
ATOM     10  H   UNL     1       3.222   2.157   2.678  0.00  0.00    +0.159 HD
ATOM     11  H   UNL     1       1.152  -1.205   3.265  0.00  0.00    +0.159 HD
ENDROOT
BRANCH   1  12
ATOM     12  C   UNL     1      -0.951   2.500   3.476  0.00  0.00    -0.056 C 
ATOM     13  C   UNL     1      -2.046   3.110   3.097  0.00  0.00    +0.009 C 
ATOM     14  C   UNL     1      -0.549   2.507   4.929  0.00  0.00    +0.040 C 
ENDBRANCH   1  12
BRANCH   1  15
ATOM     15  C   UNL     1      -0.750   1.956   1.089  0.00  0.00    +0.033 C 
BRANCH  15  17
ATOM     16  C   UNL     1       1.383   1.592  -0.159  0.00  0.00    +0.007 C 
ATOM     17  C   UNL     1      -0.035   1.066   0.070  0.00  0.00    -0.015 C 
ATOM     18  C   UNL     1      -0.805   1.084  -1.252  0.00  0.00    +0.007 C 
ENDBRANCH  15  17
ENDBRANCH   1  15
TORSDOF 3
