REMARK  Name = ZINC32511651
REMARK  7 active torsions:
REMARK  status: ('A' for Active; 'I' for Inactive)
REMARK    1  A    between atoms: C_1  and  C_2
REMARK    2  A    between atoms: C_7  and  N_8
REMARK    3  A    between atoms: C_11  and  C_18
REMARK    4  A    between atoms: C_14  and  C_17
REMARK    5  A    between atoms: C_23  and  O_24
REMARK    6  A    between atoms: O_24  and  C_25
REMARK    7  A    between atoms: C_25  and  C_26
REMARK                            x       y       z     vdW  Elec       q    Type
REMARK                         _______ _______ _______ _____ _____    ______ ____
ROOT
ATOM      1  N   UNL     1       0.026  -0.016   2.416  0.00  0.00    -0.236 N 
ATOM      2  C   UNL     1      -0.874  -0.187   3.453  0.00  0.00    +0.160 A 
ATOM      3  N   UNL     1      -1.937  -0.833   3.891  0.00  0.00    -0.323 N 
ATOM      4  C   UNL     1      -2.240  -0.393   5.120  0.00  0.00    +0.144 A 
ATOM      5  N   UNL     1      -1.383   0.538   5.491  0.00  0.00    -0.224 NA
ATOM      6  C   UNL     1      -0.492   0.716   4.481  0.00  0.00    +0.129 A 
ATOM      7  C   UNL     1       0.622   1.404   4.039  0.00  0.00    +0.059 A 
ATOM      8  N   UNL     1       0.944   0.968   2.806  0.00  0.00    -0.294 N 
ATOM      9  H   UNL     1       1.689   1.286   2.272  0.00  0.00    +0.187 HD
ATOM     10  C   UNL     1       1.361   2.464   4.814  0.00  0.00    +0.067 C 
ATOM     11  H   UNL     1      -2.421  -1.517   3.402  0.00  0.00    +0.169 HD
ENDROOT
BRANCH   1  18
ATOM     12  C   UNL     1      -0.018   1.503   0.010  0.00  0.00    +0.046 C 
ATOM     13  C   UNL     1       0.002  -0.004   0.002  0.00  0.00    -0.025 A 
ATOM     14  C   UNL     1       0.006  -0.689  -1.197  0.00  0.00    +0.005 A 
ATOM     15  C   UNL     1       0.024  -2.071  -1.206  0.00  0.00    +0.000 A 
ATOM     16  C   UNL     1       0.039  -2.773  -0.014  0.00  0.00    +0.002 A 
ATOM     17  C   UNL     1       0.035  -2.095   1.188  0.00  0.00    +0.028 A 
ATOM     18  C   UNL     1       0.023  -0.706   1.201  0.00  0.00    +0.068 A 
ENDBRANCH   1  18
BRANCH   4  19
ATOM     19  C   UNL     1      -3.373  -0.881   5.941  0.00  0.00    +0.059 A 
ATOM     20  C   UNL     1      -4.216  -1.876   5.450  0.00  0.00    +0.015 A 
ATOM     21  C   UNL     1      -5.269  -2.327   6.219  0.00  0.00    +0.001 A 
ATOM     22  C   UNL     1      -5.493  -1.794   7.477  0.00  0.00    +0.004 A 
ATOM     23  C   UNL     1      -4.663  -0.807   7.974  0.00  0.00    +0.046 A 
ATOM     24  C   UNL     1      -3.597  -0.349   7.215  0.00  0.00    +0.132 A 
BRANCH  24  25
ATOM     25  O   UNL     1      -2.778   0.617   7.705  0.00  0.00    -0.482 OA
BRANCH  25  26
ATOM     26  C   UNL     1      -3.069   1.112   9.014  0.00  0.00    +0.324 C 
BRANCH  26  27
ATOM     27  C   UNL     1      -2.061   2.170   9.386  0.00  0.00    +0.248 C 
ATOM     28  O   UNL     1      -1.181   2.469   8.607  0.00  0.00    -0.272 OA
ATOM     29  N   UNL     1      -2.139   2.782  10.584  0.00  0.00    -0.327 N 
ATOM     30  H   UNL     1      -2.843   2.542  11.207  0.00  0.00    +0.145 HD
ATOM     31  H   UNL     1      -1.490   3.463  10.823  0.00  0.00    +0.145 HD
ENDBRANCH  26  27
ENDBRANCH  25  26
ENDBRANCH  24  25
ENDBRANCH   4  19
TORSDOF 5
