REMARK  Name = ZINC42410825
REMARK  5 active torsions:
REMARK  status: ('A' for Active; 'I' for Inactive)
REMARK    1  A    between atoms: C_3  and  O_10
REMARK    2  A    between atoms: C_4  and  N_9
REMARK    3  A    between atoms: C_6  and  C_7
REMARK    4  A    between atoms: O_10  and  C_11
REMARK    5  A    between atoms: C_11  and  C_12
REMARK                            x       y       z     vdW  Elec       q    Type
REMARK                         _______ _______ _______ _____ _____    ______ ____
ROOT
ATOM      1  C   UNL     1      -0.017   1.393   0.010  0.00  0.00    +0.022 A 
ATOM      2  C   UNL     1       1.167   2.099   0.002  0.00  0.00    +0.049 A 
ATOM      3  C   UNL     1       2.380   1.426  -0.013  0.00  0.00    +0.142 A 
ATOM      4  C   UNL     1       2.408   0.031  -0.021  0.00  0.00    +0.068 A 
ATOM      5  C   UNL     1       1.224  -0.683  -0.014  0.00  0.00    +0.045 A 
ATOM      6  C   UNL     1       0.002  -0.004   0.002  0.00  0.00    +0.054 A 
ENDROOT
BRANCH   4   7
ATOM      7  N   UNL     1       3.633  -0.645  -0.037  0.00  0.00    -0.355 N 
ATOM      8  H   UNL     1       4.464  -0.144  -0.043  0.00  0.00    +0.142 HD
ATOM      9  H   UNL     1       3.652  -1.615  -0.043  0.00  0.00    +0.142 HD
ENDBRANCH   4   7
BRANCH   6  10
ATOM     10  C   UNL     1      -1.227  -0.738   0.010  0.00  0.00    +0.099 C 
ATOM     11  N   UNL     1      -2.203  -1.321   0.017  0.00  0.00    -0.191 NA
ENDBRANCH   6  10
BRANCH   3  12
ATOM     12  O   UNL     1       3.544   2.127  -0.020  0.00  0.00    -0.485 OA
BRANCH  12  13
ATOM     13  C   UNL     1       3.443   3.553  -0.012  0.00  0.00    +0.269 C 
BRANCH  13  14
ATOM     14  C   UNL     1       4.825   4.154  -0.022  0.00  0.00    +0.048 A 
ATOM     15  C   UNL     1       5.595   4.472   1.111  0.00  0.00    +0.163 A 
ATOM     16  N   UNL     1       6.728   4.971   0.704  0.00  0.00    -0.086 NA
ATOM     17  O   UNL     1       6.712   4.986  -0.713  0.00  0.00    -0.363 OA
ATOM     18  C   UNL     1       5.539   4.476  -1.117  0.00  0.00    +0.237 A 
ENDBRANCH  13  14
ENDBRANCH  12  13
ENDBRANCH   3  12
TORSDOF 5
