REMARK  Name = ZINC43671034
REMARK  8 active torsions:
REMARK  status: ('A' for Active; 'I' for Inactive)
REMARK    1  A    between atoms: C_1  and  C_2
REMARK    2  A    between atoms: C_3  and  N_18
REMARK    3  A    between atoms: C_4  and  N_17
REMARK    4  A    between atoms: N_5  and  C_7
REMARK    5  A    between atoms: C_7  and  C_9
REMARK    6  A    between atoms: C_7  and  C_14
REMARK    7  A    between atoms: C_14  and  C_15
REMARK    8  A    between atoms: C_14  and  C_16
REMARK                            x       y       z     vdW  Elec       q    Type
REMARK                         _______ _______ _______ _____ _____    ______ ____
ROOT
ATOM      1  C   UNL     1      -0.018   1.503   0.010  0.00  0.00    +0.070 C 
ATOM      2  C   UNL     1       0.002  -0.004   0.002  0.00  0.00    +0.092 A 
ATOM      3  C   UNL     1       0.008  -0.816  -1.136  0.00  0.00    +0.188 A 
ATOM      4  C   UNL     1       0.028  -2.113  -0.721  0.00  0.00    +0.146 A 
ATOM      5  N   UNL     1       0.035  -2.110   0.631  0.00  0.00    -0.240 N 
ATOM      6  N   UNL     1       0.023  -0.776   1.058  0.00  0.00    -0.172 NA
ENDROOT
BRANCH   4   7
ATOM      7  N   UNL     1       0.040  -3.238  -1.541  0.00  0.00    -0.342 N 
ATOM      8  H   UNL     1       0.034  -3.136  -2.506  0.00  0.00    +0.144 HD
ATOM      9  H   UNL     1       0.054  -4.125  -1.147  0.00  0.00    +0.144 HD
ENDBRANCH   4   7
BRANCH   3  10
ATOM     10  N   UNL     1      -0.005  -0.349  -2.540  0.00  0.00    +0.062 N 
ATOM     11  O   UNL     1       1.036  -0.144  -3.119  0.00  0.00    -0.126 OA
ATOM     12  O   UNL     1      -1.058  -0.173  -3.109  0.00  0.00    -0.126 OA
ENDBRANCH   3  10
BRANCH   5  13
ATOM     13  C   UNL     1       0.055  -3.292   1.496  0.00  0.00    +0.148 C 
BRANCH  13  14
ATOM     14  C   UNL     1      -1.171  -3.294   2.372  0.00  0.00    +0.014 A 
ATOM     15  C   UNL     1      -2.157  -4.221   2.459  0.00  0.00    +0.013 A 
ATOM     16  C   UNL     1      -3.197  -4.012   3.344  0.00  0.00    +0.008 A 
ATOM     17  C   UNL     1      -3.202  -2.887   4.099  0.00  0.00    +0.045 A 
ATOM     18  S   UNL     1      -1.699  -2.081   3.571  0.00  0.00    -0.099 S 
ENDBRANCH  13  14
BRANCH  13  19
ATOM     19  C   UNL     1       1.308  -3.260   2.373  0.00  0.00    +0.012 C 
ATOM     20  C   UNL     1       1.329  -4.495   3.277  0.00  0.00    +0.010 C 
ATOM     21  C   UNL     1       2.553  -3.258   1.484  0.00  0.00    +0.010 C 
ENDBRANCH  13  19
ENDBRANCH   5  13
TORSDOF 5
