REMARK  Name = ZINC39363839
REMARK  3 active torsions:
REMARK  status: ('A' for Active; 'I' for Inactive)
REMARK    1  A    between atoms: C_1  and  C_2
REMARK    2  A    between atoms: C_2  and  C_3
REMARK    3  A    between atoms: C_5  and  C_19
REMARK                            x       y       z     vdW  Elec       q    Type
REMARK                         _______ _______ _______ _____ _____    ______ ____
ROOT
ATOM      1  C   UNL     1       0.289  -0.423   0.950  0.00  0.00    +0.065 C 
ATOM      2  C   UNL     1      -0.083  -0.835   2.128  0.00  0.00    -0.013 C 
ATOM      3  C   UNL     1      -0.951  -0.699   3.381  0.00  0.00    +0.036 C 
ATOM      4  C   UNL     1       0.151  -0.163   4.308  0.00  0.00    +0.109 C 
ATOM      5  C   UNL     1       1.248  -1.259   4.036  0.00  0.00    +0.245 C 
ATOM      6  C   UNL     1       1.117  -1.687   2.631  0.00  0.00    +0.200 C 
ATOM      7  N   UNL     1       2.166  -1.251   1.688  0.00  0.00    -0.176 NA
ATOM      8  N   UNL     1       1.607  -0.660   0.759  0.00  0.00    -0.158 NA
ATOM      9  O   UNL     1       2.138  -0.983   5.034  0.00  0.00    -0.386 OA
ATOM     10  N   UNL     1       1.258  -0.783   6.169  0.00  0.00    -0.074 NA
ATOM     11  C   UNL     1       0.069  -0.326   5.790  0.00  0.00    +0.139 C 
ATOM     12  N   UNL     1      -1.019  -0.059   6.590  0.00  0.00    -0.344 N 
ATOM     13  H   UNL     1      -1.842   0.271   6.197  0.00  0.00    +0.144 HD
ATOM     14  H   UNL     1      -0.963  -0.202   7.548  0.00  0.00    +0.144 HD
ENDROOT
BRANCH   3  15
ATOM     15  C   UNL     1      -1.488  -2.052   3.853  0.00  0.00    -0.003 C 
ATOM     16  C   UNL     1      -2.172  -2.765   2.684  0.00  0.00    +0.004 C 
ATOM     17  C   UNL     1      -2.708  -4.118   3.156  0.00  0.00    +0.000 C 
ATOM     18  C   UNL     1      -3.720  -3.900   4.284  0.00  0.00    +0.000 C 
ATOM     19  C   UNL     1      -3.036  -3.187   5.452  0.00  0.00    +0.000 C 
ATOM     20  C   UNL     1      -2.499  -1.834   4.980  0.00  0.00    +0.004 C 
ENDBRANCH   3  15
BRANCH   1  22
ATOM     21  C   UNL     1      -0.524   1.744   0.060  0.00  0.00    +0.010 C 
ATOM     22  C   UNL     1      -0.623   0.222  -0.062  0.00  0.00    +0.054 C 
ENDBRANCH   1  22
TORSDOF 2
