REMARK  Name = ZINC48735492
REMARK  7 active torsions:
REMARK  status: ('A' for Active; 'I' for Inactive)
REMARK    1  A    between atoms: C_1  and  C_2
REMARK    2  A    between atoms: N_6  and  C_7
REMARK    3  A    between atoms: C_7  and  C_8
REMARK    4  A    between atoms: C_8  and  C_9
REMARK    5  A    between atoms: C_9  and  N_10
REMARK    6  A    between atoms: C_11  and  C_13
REMARK    7  A    between atoms: C_18  and  O_19
REMARK                            x       y       z     vdW  Elec       q    Type
REMARK                         _______ _______ _______ _____ _____    ______ ____
ROOT
ATOM      1  N   UNL     1      -2.774   0.610   4.853  0.00  0.00    -0.311 N 
ATOM      2  C   UNL     1      -3.013   1.028   6.111  0.00  0.00    +0.248 C 
ATOM      3  O   UNL     1      -2.087   1.204   6.880  0.00  0.00    -0.270 OA
ATOM      4  H   UNL     1      -3.512   0.470   4.239  0.00  0.00    +0.149 HD
ENDROOT
BRANCH   2   5
ATOM      5  C   UNL     1      -4.398   1.274   6.556  0.00  0.00    +0.079 A 
ATOM      6  C   UNL     1      -5.465   1.068   5.678  0.00  0.00    +0.032 A 
ATOM      7  C   UNL     1      -6.757   1.299   6.100  0.00  0.00    +0.019 A 
ATOM      8  C   UNL     1      -7.002   1.735   7.393  0.00  0.00    +0.019 A 
ATOM      9  C   UNL     1      -5.957   1.942   8.270  0.00  0.00    +0.047 A 
ATOM     10  C   UNL     1      -4.651   1.709   7.864  0.00  0.00    +0.129 A 
ATOM     11 BR   UNL     1      -8.200   1.020   4.911  0.00  0.00    -0.050 Br
BRANCH  10  12
ATOM     12  O   UNL     1      -3.623   1.907   8.727  0.00  0.00    -0.506 OA
ATOM     13  H   UNL     1      -3.262   2.804   8.710  0.00  0.00    +0.292 HD
ENDBRANCH  10  12
ENDBRANCH   2   5
BRANCH   1  14
ATOM     14  C   UNL     1      -1.399   0.366   4.411  0.00  0.00    +0.106 C 
BRANCH  14  15
ATOM     15  C   UNL     1      -1.406  -0.098   2.953  0.00  0.00    +0.040 C 
BRANCH  15  16
ATOM     16  C   UNL     1       0.030  -0.353   2.491  0.00  0.00    +0.124 C 
BRANCH  16  22
ATOM     17  C   UNL     1      -0.018   1.503   0.010  0.00  0.00    +0.084 C 
ATOM     18  C   UNL     1       0.002  -0.004   0.002  0.00  0.00    +0.084 A 
ATOM     19  N   UNL     1       0.008  -0.759  -1.063  0.00  0.00    -0.350 N 
ATOM     20  C   UNL     1       0.028  -2.047  -0.691  0.00  0.00    +0.101 A 
ATOM     21  C   UNL     1       0.034  -2.093   0.655  0.00  0.00    +0.104 A 
ATOM     22  N   UNL     1       0.023  -0.797   1.095  0.00  0.00    -0.336 N 
ATOM     23  H   UNL     1      -0.000  -0.438  -1.978  0.00  0.00    +0.166 HD
ENDBRANCH  16  22
ENDBRANCH  15  16
ENDBRANCH  14  15
ENDBRANCH   1  14
TORSDOF 6
