REMARK  Name = ZINC27105179
REMARK  6 active torsions:
REMARK  status: ('A' for Active; 'I' for Inactive)
REMARK    1  A    between atoms: C_1  and  O_2
REMARK    2  A    between atoms: O_2  and  C_3
REMARK    3  A    between atoms: C_8  and  O_9
REMARK    4  A    between atoms: O_9  and  C_10
REMARK    5  A    between atoms: C_11  and  C_16
REMARK    6  A    between atoms: C_21  and  N_22
REMARK                            x       y       z     vdW  Elec       q    Type
REMARK                         _______ _______ _______ _____ _____    ______ ____
ROOT
ATOM      1  C   UNL     1       4.646   3.259   4.005  0.00  0.00    +0.162 A 
ATOM      2  C   UNL     1       5.642   2.799   3.163  0.00  0.00    +0.053 A 
ATOM      3  C   UNL     1       5.346   2.440   1.857  0.00  0.00    -0.044 A 
ATOM      4  C   UNL     1       4.053   2.542   1.390  0.00  0.00    -0.050 A 
ATOM      5  C   UNL     1       3.050   3.001   2.231  0.00  0.00    +0.052 A 
ATOM      6  C   UNL     1       3.339   3.360   3.536  0.00  0.00    +0.162 A 
ATOM      7  C   UNL     1       3.686   2.168  -0.022  0.00  0.00    -0.008 C 
ATOM      8  N   UNL     1       4.734   1.337  -0.623  0.00  0.00    +0.387 N 
ATOM      9  C   UNL     1       6.043   1.995  -0.489  0.00  0.00    -0.077 C 
ATOM     10  C   UNL     1       6.466   1.940   0.979  0.00  0.00    +0.016 C 
ATOM     11  H   UNL     1       4.767   0.363  -0.113  0.00  0.00    -0.085 HD
ATOM     12  H   UNL     1       4.515   1.185  -1.690  0.00  0.00    -0.085 HD
ENDROOT
BRANCH   7  13
ATOM     13  C   UNL     1       2.387   1.403  -0.014  0.00  0.00    -0.037 A 
ATOM     14  C   UNL     1       2.399   0.022  -0.022  0.00  0.00    +0.004 A 
ATOM     15  C   UNL     1       1.208  -0.681  -0.014  0.00  0.00    +0.000 A 
ATOM     16  C   UNL     1       0.002  -0.004   0.002  0.00  0.00    +0.002 A 
ATOM     17  C   UNL     1      -0.017   1.377   0.010  0.00  0.00    +0.023 A 
ATOM     18  C   UNL     1       1.178   2.086   0.002  0.00  0.00    +0.026 A 
BRANCH  18  19
ATOM     19  N   UNL     1       1.163   3.483   0.009  0.00  0.00    -0.358 N 
ATOM     20  H   UNL     1       0.204   4.022   0.022  0.00  0.00    +0.142 HD
ATOM     21  H   UNL     1       2.109   4.043   0.002  0.00  0.00    +0.142 HD
ENDBRANCH  18  19
ENDBRANCH   7  13
BRANCH   1  23
ATOM     22  C   UNL     1       6.303   3.481   5.696  0.00  0.00    +0.277 C 
ATOM     23  O   UNL     1       4.941   3.611   5.285  0.00  0.00    -0.491 OA
ENDBRANCH   1  23
BRANCH   6  24
ATOM     24  O   UNL     1       2.352   3.810   4.356  0.00  0.00    -0.491 OA
ATOM     25  C   UNL     1       1.036   3.887   3.804  0.00  0.00    +0.277 C 
ENDBRANCH   6  24
TORSDOF 4
