REMARK  Name = ZINC55114852
REMARK  7 active torsions:
REMARK  status: ('A' for Active; 'I' for Inactive)
REMARK    1  A    between atoms: C_1  and  C_2
REMARK    2  A    between atoms: C_4  and  C_8
REMARK    3  A    between atoms: C_5  and  C_7
REMARK    4  A    between atoms: N_10  and  C_11
REMARK    5  A    between atoms: C_11  and  C_12
REMARK    6  A    between atoms: C_16  and  C_23
REMARK    7  A    between atoms: C_19  and  C_22
REMARK                            x       y       z     vdW  Elec       q    Type
REMARK                         _______ _______ _______ _____ _____    ______ ____
ROOT
ATOM      1  C   UNL     1      -1.364  -3.418  -0.011  0.00  0.00    +0.248 C 
ATOM      2  O   UNL     1      -0.804  -4.497  -0.020  0.00  0.00    -0.270 OA
ATOM      3  N   UNL     1      -2.711  -3.358  -0.005  0.00  0.00    -0.303 N 
ATOM      4  H   UNL     1      -3.158  -2.498   0.002  0.00  0.00    +0.150 HD
ENDROOT
BRANCH   1   8
ATOM      5  C   UNL     1      -0.018   1.503   0.010  0.00  0.00    +0.086 C 
ATOM      6  C   UNL     1       0.002  -0.004   0.002  0.00  0.00    +0.103 A 
ATOM      7  C   UNL     1      -1.081  -0.797   0.003  0.00  0.00    +0.057 A 
ATOM      8  C   UNL     1      -0.571  -2.176  -0.008  0.00  0.00    +0.077 A 
ATOM      9  C   UNL     1       0.788  -2.066  -0.014  0.00  0.00    +0.114 A 
ATOM     10  O   UNL     1       1.106  -0.767  -0.013  0.00  0.00    -0.464 OA
ATOM     11  C   UNL     1       1.766  -3.212  -0.026  0.00  0.00    +0.087 C 
ENDBRANCH   1   8
BRANCH   3  12
ATOM     12  C   UNL     1      -3.499  -4.593  -0.008  0.00  0.00    +0.200 C 
BRANCH  12  13
ATOM     13  C   UNL     1      -4.967  -4.253   0.001  0.00  0.00    +0.233 C 
ATOM     14  O   UNL     1      -5.320  -3.092   0.009  0.00  0.00    -0.274 OA
ATOM     15  N   UNL     1      -5.887  -5.237  -0.001  0.00  0.00    -0.300 N 
ATOM     16  C   UNL     1      -5.475  -6.647  -0.005  0.00  0.00    +0.111 C 
ATOM     17  C   UNL     1      -6.161  -7.365   1.162  0.00  0.00    +0.004 C 
ATOM     18  C   UNL     1      -7.674  -7.152   1.067  0.00  0.00    +0.009 C 
ATOM     19  C   UNL     1      -7.988  -5.657   1.168  0.00  0.00    +0.004 C 
ATOM     20  C   UNL     1      -7.322  -4.920   0.008  0.00  0.00    +0.111 C 
ATOM     21  C   UNL     1      -7.450  -5.110   2.492  0.00  0.00    +0.009 C 
ATOM     22  C   UNL     1      -5.851  -8.861   1.095  0.00  0.00    +0.009 C 
ENDBRANCH  12  13
ENDBRANCH   3  12
TORSDOF 3
