REMARK  Name = ZINC39355838
REMARK  11 active torsions:
REMARK  status: ('A' for Active; 'I' for Inactive)
REMARK    1  A    between atoms: C_1  and  C_2
REMARK    2  A    between atoms: C_6  and  C_7
REMARK    3  A    between atoms: C_7  and  C_9
REMARK    4  A    between atoms: C_7  and  C_26
REMARK    5  A    between atoms: C_12  and  O_17
REMARK    6  A    between atoms: C_13  and  O_15
REMARK    7  A    between atoms: O_15  and  C_16
REMARK    8  A    between atoms: O_17  and  C_18
REMARK    9  A    between atoms: C_18  and  C_19
REMARK   10  A    between atoms: C_27  and  C_33
REMARK   11  A    between atoms: C_30  and  O_32
REMARK                            x       y       z     vdW  Elec       q    Type
REMARK                         _______ _______ _______ _____ _____    ______ ____
ROOT
ATOM      1  C   UNL     1       0.032  -0.370   2.566  0.00  0.00    +0.088 C 
ENDROOT
BRANCH   1   7
ATOM      2  C   UNL     1       2.496  -1.073   0.702  0.00  0.00    +0.068 C 
ATOM      3  C   UNL     1       1.042  -1.232   0.342  0.00  0.00    +0.068 A 
ATOM      4  N   UNL     1       0.579  -1.691  -0.792  0.00  0.00    -0.176 NA
ATOM      5  N   UNL     1      -0.821  -1.682  -0.733  0.00  0.00    -0.243 N 
ATOM      6  C   UNL     1      -1.183  -1.202   0.477  0.00  0.00    +0.271 A 
ATOM      7  C   UNL     1      -0.045  -0.921   1.166  0.00  0.00    +0.052 A 
ATOM      8  O   UNL     1      -2.453  -1.036   0.926  0.00  0.00    -0.266 OA
ATOM      9  H   UNL     1      -1.423  -1.970  -1.437  0.00  0.00    +0.192 HD
ENDBRANCH   1   7
BRANCH   1  10
ATOM     10  C   UNL     1       1.211  -0.977   3.281  0.00  0.00    -0.032 A 
ATOM     11  C   UNL     1       1.390  -2.348   3.275  0.00  0.00    +0.008 A 
ATOM     12  C   UNL     1       2.470  -2.911   3.930  0.00  0.00    +0.050 A 
ATOM     13  C   UNL     1       3.376  -2.100   4.594  0.00  0.00    +0.162 A 
ATOM     14  C   UNL     1       3.197  -0.720   4.599  0.00  0.00    +0.162 A 
ATOM     15  C   UNL     1       2.115  -0.162   3.937  0.00  0.00    +0.054 A 
BRANCH  14  16
ATOM     16  O   UNL     1       4.084   0.080   5.249  0.00  0.00    -0.491 OA
ATOM     17  C   UNL     1       3.837   1.487   5.212  0.00  0.00    +0.277 C 
ENDBRANCH  14  16
BRANCH  13  18
ATOM     18  O   UNL     1       4.439  -2.651   5.239  0.00  0.00    -0.484 OA
BRANCH  18  19
ATOM     19  C   UNL     1       4.559  -4.075   5.191  0.00  0.00    +0.264 C 
BRANCH  19  20
ATOM     20  C   UNL     1       5.787  -4.501   5.955  0.00  0.00    -0.010 A 
ATOM     21  C   UNL     1       7.003  -4.602   5.306  0.00  0.00    +0.008 A 
ATOM     22  C   UNL     1       8.129  -4.992   6.006  0.00  0.00    +0.015 A 
ATOM     23  C   UNL     1       8.039  -5.282   7.356  0.00  0.00    +0.018 A 
ATOM     24  C   UNL     1       6.821  -5.180   8.004  0.00  0.00    +0.015 A 
ATOM     25  C   UNL     1       5.697  -4.784   7.305  0.00  0.00    +0.008 A 
ATOM     26 BR   UNL     1       9.579  -5.816   8.314  0.00  0.00    -0.050 Br
ENDBRANCH  19  20
ENDBRANCH  18  19
ENDBRANCH  13  18
ENDBRANCH   1  10
BRANCH   1  27
ATOM     27  C   UNL     1      -1.235  -0.707   3.309  0.00  0.00    +0.017 C 
ATOM     28  C   UNL     1      -2.120   0.133   3.850  0.00  0.00    +0.065 C 
ATOM     29  N   UNL     1      -3.131  -0.546   4.435  0.00  0.00    -0.156 NA
ATOM     30  N   UNL     1      -3.038  -1.773   4.355  0.00  0.00    -0.151 NA
ATOM     31  C   UNL     1      -1.804  -2.082   3.611  0.00  0.00    +0.284 C 
ATOM     32  C   UNL     1      -2.006   1.635   3.813  0.00  0.00    +0.067 C 
BRANCH  31  33
ATOM     33  O   UNL     1      -0.902  -2.836   4.423  0.00  0.00    -0.366 OA
ATOM     34  H   UNL     1      -1.219  -3.722   4.645  0.00  0.00    +0.212 HD
ENDBRANCH  31  33
ENDBRANCH   1  27
TORSDOF 8
