REMARK  Name = ZINC36300211
REMARK  8 active torsions:
REMARK  status: ('A' for Active; 'I' for Inactive)
REMARK    1  A    between atoms: C_1  and  O_2
REMARK    2  A    between atoms: O_2  and  C_3
REMARK    3  A    between atoms: C_6  and  C_11
REMARK    4  A    between atoms: C_8  and  O_9
REMARK    5  A    between atoms: O_9  and  C_10
REMARK    6  A    between atoms: C_12  and  C_22
REMARK    7  A    between atoms: C_22  and  C_23
REMARK    8  A    between atoms: C_23  and  N_24
REMARK                            x       y       z     vdW  Elec       q    Type
REMARK                         _______ _______ _______ _____ _____    ______ ____
ROOT
ATOM      1  C   UNL     1      -4.969  -2.620   0.038  0.00  0.00    +0.094 A 
ATOM      2  C   UNL     1      -6.061  -2.240   0.746  0.00  0.00    +0.050 A 
ATOM      3  N   UNL     1      -7.075  -3.150   0.467  0.00  0.00    -0.294 N 
ATOM      4  C   UNL     1      -8.408  -3.333   0.851  0.00  0.00    +0.036 A 
ATOM      5  C   UNL     1      -9.069  -4.372   0.340  0.00  0.00    +0.013 A 
ATOM      6  S   UNL     1      -7.872  -5.160  -0.715  0.00  0.00    -0.054 S 
ATOM      7  C   UNL     1      -6.526  -4.041  -0.408  0.00  0.00    +0.179 A 
ATOM      8  N   UNL     1      -5.289  -3.727  -0.664  0.00  0.00    -0.221 NA
ATOM      9  C   UNL     1     -10.484  -4.457   0.836  0.00  0.00    +0.044 C 
ATOM     10  C   UNL     1     -10.510  -3.548   2.085  0.00  0.00    +0.011 C 
ATOM     11  C   UNL     1      -9.358  -2.570   1.779  0.00  0.00    +0.055 C 
ENDROOT
BRANCH   1  15
ATOM     12  C   UNL     1      -1.196  -0.647   0.022  0.00  0.00    +0.162 A 
ATOM     13  C   UNL     1      -2.366   0.093  -0.054  0.00  0.00    +0.050 A 
ATOM     14  C   UNL     1      -3.591  -0.544  -0.049  0.00  0.00    +0.014 A 
ATOM     15  C   UNL     1      -3.653  -1.934   0.032  0.00  0.00    +0.006 A 
ATOM     16  C   UNL     1      -2.478  -2.679   0.107  0.00  0.00    +0.059 A 
ATOM     17  C   UNL     1      -1.252  -2.036   0.097  0.00  0.00    +0.162 A 
BRANCH  12  19
ATOM     18  C   UNL     1      -0.008   1.411  -0.063  0.00  0.00    +0.277 C 
ATOM     19  O   UNL     1       0.008  -0.015   0.017  0.00  0.00    -0.491 OA
ENDBRANCH  12  19
BRANCH  17  20
ATOM     20  O   UNL     1      -0.104  -2.760   0.166  0.00  0.00    -0.491 OA
ATOM     21  C   UNL     1      -0.236  -4.181   0.241  0.00  0.00    +0.277 C 
ENDBRANCH  17  20
ENDBRANCH   1  15
BRANCH   2  22
ATOM     22  C   UNL     1      -6.159  -1.051   1.666  0.00  0.00    +0.036 C 
BRANCH  22  23
ATOM     23  C   UNL     1      -5.638  -1.435   3.052  0.00  0.00    -0.080 C 
BRANCH  23  24
ATOM     24  N   UNL     1      -5.732  -0.276   3.950  0.00  0.00    +0.378 N 
ATOM     25  H   UNL     1      -5.178   0.482   3.580  0.00  0.00    -0.090 HD
ATOM     26  H   UNL     1      -6.696   0.016   4.021  0.00  0.00    -0.090 HD
ATOM     27  H   UNL     1      -5.389  -0.529   4.864  0.00  0.00    -0.090 HD
ENDBRANCH  23  24
ENDBRANCH  22  23
ENDBRANCH   2  22
TORSDOF 6
