REMARK  Name = ZINC60332803
REMARK  5 active torsions:
REMARK  status: ('A' for Active; 'I' for Inactive)
REMARK    1  A    between atoms: C_8  and  O_24
REMARK    2  A    between atoms: C_10  and  N_12
REMARK    3  A    between atoms: N_12  and  C_13
REMARK    4  A    between atoms: C_13  and  C_14
REMARK    5  A    between atoms: C_18  and  N_20
REMARK                            x       y       z     vdW  Elec       q    Type
REMARK                         _______ _______ _______ _____ _____    ______ ____
ROOT
ATOM      1  N   UNL     1       4.148  -1.058   1.305  0.00  0.00    +0.388 N 
ATOM      2  H   UNL     1       3.425  -1.296   1.968  0.00  0.00    -0.084 HD
ATOM      3  H   UNL     1       4.854  -1.779   1.304  0.00  0.00    -0.084 HD
ENDROOT
BRANCH   1  12
ATOM      4  C   UNL     1      -0.017   1.377   0.010  0.00  0.00    +0.000 A 
ATOM      5  C   UNL     1       1.172   2.083   0.002  0.00  0.00    +0.000 A 
ATOM      6  C   UNL     1       2.376   1.406  -0.013  0.00  0.00    +0.002 A 
ATOM      7  C   UNL     1       2.396   0.021  -0.021  0.00  0.00    -0.056 A 
ATOM      8  C   UNL     1       1.208  -0.685  -0.013  0.00  0.00    -0.043 A 
ATOM      9  C   UNL     1       0.002  -0.004   0.002  0.00  0.00    +0.004 A 
ATOM     10  C   UNL     1       1.496  -2.171  -0.025  0.00  0.00    +0.065 C 
ATOM     11  C   UNL     1       2.966  -2.294  -0.480  0.00  0.00    +0.109 C 
ATOM     12  C   UNL     1       3.564  -0.942  -0.037  0.00  0.00    -0.011 C 
BRANCH  11  13
ATOM     13  O   UNL     1       3.613  -3.382   0.184  0.00  0.00    -0.393 OA
ATOM     14  H   UNL     1       3.217  -4.245   0.002  0.00  0.00    +0.210 HD
ENDBRANCH  11  13
ENDBRANCH   1  12
BRANCH   1  15
ATOM     15  C   UNL     1       4.758   0.223   1.686  0.00  0.00    -0.046 C 
BRANCH  15  16
ATOM     16  C   UNL     1       5.358   0.104   3.064  0.00  0.00    -0.062 A 
ATOM     17  C   UNL     1       4.592   0.395   4.178  0.00  0.00    +0.003 A 
ATOM     18  C   UNL     1       5.141   0.286   5.441  0.00  0.00    +0.022 A 
ATOM     19  C   UNL     1       6.457  -0.115   5.591  0.00  0.00    +0.071 A 
ATOM     20  C   UNL     1       7.223  -0.406   4.476  0.00  0.00    +0.145 A 
ATOM     21  C   UNL     1       6.671  -0.301   3.213  0.00  0.00    +0.036 A 
ATOM     22 CL   UNL     1       7.148  -0.252   7.178  0.00  0.00    -0.081 Cl
BRANCH  20  23
ATOM     23  N   UNL     1       8.630  -0.835   4.636  0.00  0.00    +0.058 N 
ATOM     24  O   UNL     1       9.299  -1.089   3.661  0.00  0.00    -0.126 OA
ATOM     25  O   UNL     1       9.111  -0.931   5.741  0.00  0.00    -0.126 OA
ENDBRANCH  20  23
ENDBRANCH  15  16
ENDBRANCH   1  15
TORSDOF 5
