REMARK  Name = ZINC40178569
REMARK  9 active torsions:
REMARK  status: ('A' for Active; 'I' for Inactive)
REMARK    1  A    between atoms: C_4  and  N_34
REMARK    2  A    between atoms: C_5  and  C_7
REMARK    3  A    between atoms: C_9  and  S_21
REMARK    4  A    between atoms: C_10  and  N_12
REMARK    5  A    between atoms: N_12  and  C_13
REMARK    6  A    between atoms: C_13  and  C_14
REMARK    7  A    between atoms: C_14  and  C_15
REMARK    8  A    between atoms: C_15  and  N_16
REMARK    9  A    between atoms: S_21  and  C_24
REMARK                            x       y       z     vdW  Elec       q    Type
REMARK                         _______ _______ _______ _____ _____    ______ ____
ROOT
ATOM      1  C   UNL     1       1.637  -2.048   0.315  0.00  0.00    +0.234 A 
ATOM      2  N   UNL     1       0.656  -2.973   0.421  0.00  0.00    -0.188 NA
ATOM      3  C   UNL     1       1.185  -4.156   0.558  0.00  0.00    +0.243 A 
ATOM      4  C   UNL     1       2.666  -3.957   0.535  0.00  0.00    +0.233 A 
ATOM      5  O   UNL     1       2.849  -2.631   0.377  0.00  0.00    -0.420 OA
ENDROOT
BRANCH   1  10
ATOM      6  C   UNL     1       0.928   1.487   1.107  0.00  0.00    +0.001 A 
ATOM      7  C   UNL     1       0.995   2.052  -0.160  0.00  0.00    +0.002 A 
ATOM      8  C   UNL     1       1.274   1.266  -1.270  0.00  0.00    +0.033 A 
ATOM      9  C   UNL     1       1.486  -0.075  -1.128  0.00  0.00    +0.138 A 
ATOM     10  C   UNL     1       1.421  -0.662   0.154  0.00  0.00    +0.067 A 
ATOM     11  C   UNL     1       1.136   0.149   1.275  0.00  0.00    +0.015 A 
BRANCH   9  12
ATOM     12  N   UNL     1       1.782  -0.911  -2.314  0.00  0.00    +0.057 N 
ATOM     13  O   UNL     1       1.950  -0.347  -3.493  0.00  0.00    -0.126 OA
ATOM     14  O   UNL     1       1.878  -2.219  -2.191  0.00  0.00    -0.126 OA
ENDBRANCH   9  12
ENDBRANCH   1  10
BRANCH   3  15
ATOM     15  S   UNL     1       0.326  -5.684   0.734  0.00  0.00    +0.047 S 
ATOM     16  O   UNL     1       1.216  -6.576   1.392  0.00  0.00    -0.163 OA
ATOM     17  O   UNL     1      -0.959  -5.370   1.253  0.00  0.00    -0.163 OA
BRANCH  15  18
ATOM     18  C   UNL     1       0.073  -6.329  -0.885  0.00  0.00    +0.099 A 
ATOM     19  C   UNL     1      -1.070  -5.997  -1.589  0.00  0.00    +0.031 A 
ATOM     20  C   UNL     1      -1.273  -6.503  -2.859  0.00  0.00    +0.051 A 
ATOM     21  C   UNL     1      -0.330  -7.343  -3.432  0.00  0.00    +0.162 A 
ATOM     22  C   UNL     1       0.820  -7.675  -2.726  0.00  0.00    +0.164 A 
ATOM     23  C   UNL     1       1.019  -7.162  -1.452  0.00  0.00    +0.076 A 
ATOM     24  O   UNL     1       1.761  -8.491  -3.272  0.00  0.00    -0.485 OA
ATOM     25  C   UNL     1       1.357  -9.278  -4.398  0.00  0.00    +0.270 C 
ATOM     26  C   UNL     1       0.592  -8.368  -5.369  0.00  0.00    +0.270 C 
ATOM     27  O   UNL     1      -0.546  -7.835  -4.683  0.00  0.00    -0.485 OA
ENDBRANCH  15  18
ENDBRANCH   3  15
BRANCH   4  28
ATOM     28  N   UNL     1       3.603  -4.890   0.643  0.00  0.00    -0.312 N 
ATOM     29  H   UNL     1       3.350  -5.821   0.750  0.00  0.00    +0.149 HD
BRANCH  28  30
ATOM     30  C   UNL     1       5.018  -4.515   0.600  0.00  0.00    +0.106 C 
BRANCH  30  31
ATOM     31  C   UNL     1       5.883  -5.769   0.745  0.00  0.00    +0.040 C 
BRANCH  31  32
ATOM     32  C   UNL     1       7.361  -5.378   0.699  0.00  0.00    +0.124 C 
BRANCH  32  33
ATOM     33  N   UNL     1       8.189  -6.579   0.838  0.00  0.00    -0.338 N 
ATOM     34  C   UNL     1       8.643  -7.121   2.010  0.00  0.00    +0.104 A 
ATOM     35  C   UNL     1       9.361  -8.212   1.682  0.00  0.00    +0.101 A 
ATOM     36  N   UNL     1       9.346  -8.332   0.346  0.00  0.00    -0.352 N 
ATOM     37  C   UNL     1       8.642  -7.360  -0.166  0.00  0.00    +0.173 A 
ATOM     38  H   UNL     1       9.786  -9.033  -0.160  0.00  0.00    +0.166 HD
ENDBRANCH  32  33
ENDBRANCH  31  32
ENDBRANCH  30  31
ENDBRANCH  28  30
ENDBRANCH   4  28
TORSDOF 9
