REMARK  Name = ZINC52571876
REMARK  11 active torsions:
REMARK  status: ('A' for Active; 'I' for Inactive)
REMARK    1  A    between atoms: C_1  and  C_2
REMARK    2  A    between atoms: C_2  and  C_4
REMARK    3  A    between atoms: C_2  and  N_8
REMARK    4  A    between atoms: C_4  and  C_5
REMARK    5  A    between atoms: C_5  and  C_6
REMARK    6  A    between atoms: C_5  and  C_7
REMARK    7  A    between atoms: N_8  and  C_9
REMARK    8  A    between atoms: N_8  and  C_10
REMARK    9  A    between atoms: C_10  and  C_11
REMARK   10  A    between atoms: C_19  and  C_20
REMARK   11  A    between atoms: C_20  and  N_21
REMARK                            x       y       z     vdW  Elec       q    Type
REMARK                         _______ _______ _______ _____ _____    ______ ____
ROOT
ATOM      1  C   UNL     1       0.877  -0.316  -3.696  0.00  0.00    -0.017 A 
ATOM      2  C   UNL     1       2.057   0.255  -4.357  0.00  0.00    +0.022 A 
ATOM      3  C   UNL     1       2.855   1.375  -4.130  0.00  0.00    +0.012 A 
ATOM      4  C   UNL     1       3.912   1.633  -4.958  0.00  0.00    +0.001 A 
ATOM      5  C   UNL     1       4.195   0.786  -6.020  0.00  0.00    +0.004 A 
ATOM      6  C   UNL     1       3.417  -0.326  -6.260  0.00  0.00    +0.047 A 
ATOM      7  C   UNL     1       2.338  -0.606  -5.431  0.00  0.00    +0.135 A 
ATOM      8  O   UNL     1       1.416  -1.589  -5.408  0.00  0.00    -0.461 OA
ATOM      9  C   UNL     1       0.561  -1.421  -4.384  0.00  0.00    +0.090 A 
ENDROOT
BRANCH   1  10
ATOM     10  C   UNL     1       0.168   0.229  -2.482  0.00  0.00    -0.039 C 
BRANCH  10  11
ATOM     11  N   UNL     1       0.766  -0.342  -1.268  0.00  0.00    +0.382 N 
ATOM     12  C   UNL     1       0.499  -1.786  -1.222  0.00  0.00    -0.095 C 
ATOM     13  H   UNL     1       1.763  -0.184  -1.278  0.00  0.00    -0.081 HD
BRANCH  11  15
ATOM     14  C   UNL     1      -1.344   0.196  -0.148  0.00  0.00    -0.013 C 
ATOM     15  C   UNL     1       0.181   0.302  -0.085  0.00  0.00    -0.071 C 
BRANCH  15  16
ATOM     16  C   UNL     1       0.588   1.776  -0.052  0.00  0.00    -0.013 C 
BRANCH  16  17
ATOM     17  C   UNL     1       2.108   1.882   0.086  0.00  0.00    -0.019 C 
ATOM     18  C   UNL     1       2.529   3.349  -0.021  0.00  0.00    +0.007 C 
ATOM     19  C   UNL     1       2.537   1.327   1.446  0.00  0.00    +0.007 C 
ENDBRANCH  16  17
ENDBRANCH  15  16
ENDBRANCH  11  15
ENDBRANCH  10  11
ENDBRANCH   1  10
BRANCH   9  20
ATOM     20  C   UNL     1      -0.588  -2.340  -4.060  0.00  0.00    -0.010 C 
BRANCH  20  21
ATOM     21  N   UNL     1      -1.791  -1.892  -4.774  0.00  0.00    +0.383 N 
ATOM     22  H   UNL     1      -2.021  -0.952  -4.489  0.00  0.00    -0.089 HD
ATOM     23  H   UNL     1      -1.617  -1.908  -5.768  0.00  0.00    -0.089 HD
ATOM     24  H   UNL     1      -2.560  -2.507  -4.558  0.00  0.00    -0.089 HD
ENDBRANCH  20  21
ENDBRANCH   9  20
TORSDOF 7
