REMARK  Name = ZINC35315162
REMARK  8 active torsions:
REMARK  status: ('A' for Active; 'I' for Inactive)
REMARK    1  A    between atoms: C_1  and  C_2
REMARK    2  A    between atoms: C_2  and  C_3
REMARK    3  A    between atoms: C_9  and  C_11
REMARK    4  A    between atoms: C_12  and  N_28
REMARK    5  A    between atoms: C_17  and  O_26
REMARK    6  A    between atoms: C_18  and  O_24
REMARK    7  A    between atoms: O_24  and  C_25
REMARK    8  A    between atoms: O_26  and  C_27
REMARK                            x       y       z     vdW  Elec       q    Type
REMARK                         _______ _______ _______ _____ _____    ______ ____
ROOT
ATOM      1  C   UNL     1       3.474  -2.524  -6.527  0.00  0.00    +0.097 A 
ATOM      2  C   UNL     1       4.694  -2.887  -7.048  0.00  0.00    +0.053 A 
ATOM      3  C   UNL     1       4.756  -3.312  -8.441  0.00  0.00    +0.028 A 
ATOM      4  C   UNL     1       5.891  -3.721  -9.167  0.00  0.00    +0.022 A 
ATOM      5  C   UNL     1       5.740  -4.093 -10.504  0.00  0.00    +0.003 A 
ATOM      6  C   UNL     1       6.835  -4.513 -11.284  0.00  0.00    +0.059 A 
ATOM      7  C   UNL     1       6.636  -4.867 -12.585  0.00  0.00    +0.162 A 
ATOM      8  C   UNL     1       5.361  -4.822 -13.169  0.00  0.00    +0.163 A 
ATOM      9  C   UNL     1       4.265  -4.423 -12.460  0.00  0.00    +0.075 A 
ATOM     10  C   UNL     1       4.409  -4.048 -11.114  0.00  0.00    +0.051 A 
ATOM     11  N   UNL     1       3.367  -3.651 -10.381  0.00  0.00    -0.349 N 
ATOM     12  C   UNL     1       3.511  -3.302  -9.125  0.00  0.00    +0.088 A 
ATOM     13  S   UNL     1       2.354  -2.747  -7.895  0.00  0.00    -0.064 S 
ATOM     14  H   UNL     1       2.486  -3.621 -10.784  0.00  0.00    +0.166 HD
ENDROOT
BRANCH   1  21
ATOM     15  C   UNL     1       0.707  -0.490  -1.238  0.00  0.00    +0.103 A 
ATOM     16  N   UNL     1       1.982  -0.760  -1.437  0.00  0.00    -0.145 NA
ATOM     17  N   UNL     1       2.418  -1.163  -2.549  0.00  0.00    -0.126 NA
ATOM     18  C   UNL     1       1.617  -1.342  -3.591  0.00  0.00    +0.188 A 
ATOM     19  S   UNL     1       0.051  -0.874  -2.859  0.00  0.00    -0.035 S 
ATOM     20  N   UNL     1       1.909  -1.774  -4.879  0.00  0.00    -0.259 N 
ATOM     21  C   UNL     1       3.177  -2.084  -5.215  0.00  0.00    +0.258 C 
ATOM     22  O   UNL     1       4.067  -1.985  -4.390  0.00  0.00    -0.269 OA
ATOM     23  H   UNL     1       1.200  -1.852  -5.536  0.00  0.00    +0.157 HD
BRANCH  15  25
ATOM     24  C   UNL     1      -0.019   1.526   0.010  0.00  0.00    +0.011 C 
ATOM     25  C   UNL     1       0.002  -0.004   0.002  0.00  0.00    +0.061 C 
ENDBRANCH  15  25
ENDBRANCH   1  21
BRANCH   2  26
ATOM     26  N   UNL     1       5.839  -2.849  -6.266  0.00  0.00    -0.356 N 
ATOM     27  H   UNL     1       5.785  -2.565  -5.340  0.00  0.00    +0.142 HD
ATOM     28  H   UNL     1       6.694  -3.107  -6.644  0.00  0.00    +0.142 HD
ENDBRANCH   2  26
BRANCH   8  29
ATOM     29  O   UNL     1       5.214  -5.184 -14.470  0.00  0.00    -0.491 OA
ATOM     30  C   UNL     1       3.895  -5.120 -15.016  0.00  0.00    +0.277 C 
ENDBRANCH   8  29
BRANCH   7  31
ATOM     31  O   UNL     1       7.696  -5.271 -13.334  0.00  0.00    -0.491 OA
ATOM     32  C   UNL     1       8.972  -5.298 -12.691  0.00  0.00    +0.277 C 
ENDBRANCH   7  31
TORSDOF 5
