REMARK  Name = ZINC21335511
REMARK  6 active torsions:
REMARK  status: ('A' for Active; 'I' for Inactive)
REMARK    1  A    between atoms: C_1  and  C_2
REMARK    2  A    between atoms: C_2  and  C_3
REMARK    3  A    between atoms: C_3  and  C_25
REMARK    4  A    between atoms: N_6  and  N_10
REMARK    5  A    between atoms: C_11  and  C_13
REMARK    6  A    between atoms: C_13  and  N_14
REMARK                            x       y       z     vdW  Elec       q    Type
REMARK                         _______ _______ _______ _____ _____    ______ ____
ROOT
ATOM      1  N   UNL     1       0.304   4.637   2.974  0.00  0.00    -0.225 N 
ATOM      2  C   UNL     1       1.556   5.127   2.870  0.00  0.00    +0.213 C 
ATOM      3  O   UNL     1       2.432   4.452   2.372  0.00  0.00    -0.276 OA
ATOM      4  H   UNL     1      -0.490   5.249   3.426  0.00  0.00    +0.173 HD
ENDROOT
BRANCH   1   8
ATOM      5  C   UNL     1      -0.729   1.579   1.267  0.00  0.00    +0.111 C 
ATOM      6  C   UNL     1      -0.654   3.090   1.365  0.00  0.00    +0.263 C 
ATOM      7  O   UNL     1      -1.103   3.898   0.580  0.00  0.00    -0.271 OA
ATOM      8  N   UNL     1       0.015   3.349   2.506  0.00  0.00    -0.137 N 
ATOM      9  C   UNL     1       0.371   2.223   3.135  0.00  0.00    +0.326 C 
ATOM     10  O   UNL     1       0.984   2.200   4.184  0.00  0.00    -0.251 OA
ATOM     11  N   UNL     1      -0.026   1.119   2.477  0.00  0.00    -0.284 N 
ATOM     12  C   UNL     1      -0.013   1.086   0.008  0.00  0.00    +0.041 C 
ATOM     13  H   UNL     1       0.078   0.042   2.676  0.00  0.00    +0.151 HD
BRANCH   5  15
ATOM     14  C   UNL     1      -2.224  -0.420   1.358  0.00  0.00    +0.006 C 
ATOM     15  C   UNL     1      -2.184   1.107   1.276  0.00  0.00    +0.032 C 
ENDBRANCH   5  15
ENDBRANCH   1   8
BRANCH   2  16
ATOM     16  C   UNL     1       1.867   6.512   3.374  0.00  0.00    +0.020 C 
BRANCH  16  17
ATOM     17  N   UNL     1       3.288   6.808   3.148  0.00  0.00    +0.387 N 
ATOM     18  C   UNL     1       4.144   5.941   3.969  0.00  0.00    -0.059 C 
ATOM     19  C   UNL     1       5.612   6.225   3.646  0.00  0.00    +0.088 C 
ATOM     20  N   UNL     1       5.902   7.643   3.903  0.00  0.00    -0.313 N 
ATOM     21  C   UNL     1       5.046   8.510   3.082  0.00  0.00    +0.088 C 
ATOM     22  C   UNL     1       3.578   8.226   3.405  0.00  0.00    -0.059 C 
ATOM     23  C   UNL     1       7.243   7.922   3.690  0.00  0.00    +0.160 A 
ATOM     24  N   UNL     1       7.786   8.813   2.882  0.00  0.00    -0.233 NA
ATOM     25  C   UNL     1       9.096   8.954   2.802  0.00  0.00    +0.120 A 
ATOM     26  C   UNL     1       9.879   8.151   3.562  0.00  0.00    +0.068 A 
ATOM     27  S   UNL     1       8.640   7.183   4.410  0.00  0.00    -0.061 S 
ATOM     28  H   UNL     1       3.510   6.602   2.090  0.00  0.00    -0.081 HD
ENDBRANCH  16  17
ENDBRANCH   2  16
TORSDOF 4
