REMARK  Name = ZINC51336623
REMARK  11 active torsions:
REMARK  status: ('A' for Active; 'I' for Inactive)
REMARK    1  A    between atoms: C_1  and  C_2
REMARK    2  A    between atoms: N_6  and  O_7
REMARK    3  A    between atoms: O_7  and  C_8
REMARK    4  A    between atoms: C_8  and  C_9
REMARK    5  A    between atoms: N_11  and  CA_12
REMARK    6  A    between atoms: CA_12  and  CB_14
REMARK    7  A    between atoms: CA_12  and  C_21
REMARK    8  A    between atoms: CB_14  and  CG_15
REMARK    9  A    between atoms: C_34  and  C_42
REMARK   10  A    between atoms: C_39  and  C_40
REMARK   11  A    between atoms: C_39  and  O_41
REMARK                            x       y       z     vdW  Elec       q    Type
REMARK                         _______ _______ _______ _____ _____    ______ ____
ROOT
ATOM      1  C   UNK A   0      -0.019   1.526   0.010  0.00  0.00    +0.016 C 
ATOM      2  C   UNK A   0       0.002  -0.004   0.002  0.00  0.00    -0.007 C 
ATOM      3  C   UNK A   0      -1.436  -0.459   0.038  0.00  0.00    +0.017 C 
ATOM      4  C   UNK A   0      -1.600  -1.812   0.730  0.00  0.00    +0.059 C 
ATOM      5  C   UNK A   0      -0.984  -1.696   2.112  0.00  0.00    +0.080 C 
ATOM      6  N   UNK A   0      -1.632  -2.034   3.182  0.00  0.00    -0.089 NA
ATOM      7  C   UNK A   0       0.397  -1.178   2.165  0.00  0.00    +0.026 C 
ATOM      8  C   UNK A   0       0.841  -0.429   1.166  0.00  0.00    -0.062 C 
ATOM      9  C   UNK A   0       2.295   0.015   1.176  0.00  0.00    +0.031 C 
ATOM     10  C   UNK A   0       2.920  -0.422  -0.153  0.00  0.00    +0.008 C 
ATOM     11  C   UNK A   0       2.109   0.137  -1.323  0.00  0.00    -0.003 C 
ATOM     12  C   UNK A   0       0.686  -0.423  -1.301  0.00  0.00    +0.002 C 
ATOM     13  C   UNK A   0      -0.089   0.173  -2.481  0.00  0.00    +0.005 C 
ATOM     14  C   UNK A   0       0.567  -0.280  -3.781  0.00  0.00    +0.010 C 
ATOM     15  C   UNK A   0       2.002   0.247  -3.873  0.00  0.00    -0.000 C 
ATOM     16  C   UNK A   0       2.807  -0.163  -2.628  0.00  0.00    +0.001 C 
ATOM     17  C   UNK A   0       3.049  -1.670  -2.837  0.00  0.00    +0.007 C 
ATOM     18  C   UNK A   0       3.335  -1.782  -4.352  0.00  0.00    +0.035 C 
ATOM     19  C   UNK A   0       2.694  -0.547  -5.013  0.00  0.00    +0.069 C 
ATOM     20  C   UNK A   0       1.659  -0.984  -6.052  0.00  0.00    +0.042 C 
ATOM     21  C   UNK A   0       2.039   1.756  -4.120  0.00  0.00    +0.014 C 
ENDROOT
BRANCH  19  22
ATOM     22  O   UNK A   0       3.701   0.257  -5.630  0.00  0.00    -0.388 OA
ATOM     23  H   UNK A   0       4.170  -0.185  -6.352  0.00  0.00    +0.210 HD
ENDBRANCH  19  22
BRANCH   6  24
ATOM     24  O   UNK A   0      -2.955  -2.528   3.082  0.00  0.00    -0.384 OA
BRANCH  24  25
ATOM     25  C   UNK A   0      -3.548  -2.860   4.339  0.00  0.00    +0.358 C 
BRANCH  25  26
ATOM     26  C   UNK A   0      -4.947  -3.372   4.115  0.00  0.00    +0.254 C 
ATOM     27  O   UNK A   0      -5.394  -3.445   2.990  0.00  0.00    -0.272 OA
ATOM     28  N   PHE A   1      -5.703  -3.749   5.166  0.00  0.00    -0.299 N 
ATOM     29  H   PHE A   1      -5.346  -3.690   6.066  0.00  0.00    +0.150 HD
BRANCH  28  30
ATOM     30  CA  PHE A   1      -7.064  -4.246   4.948  0.00  0.00    +0.191 C 
BRANCH  30  31
ATOM     31  C   PHE A   1      -8.017  -3.082   4.864  0.00  0.00    +0.376 C 
ATOM     32  O   PHE A   1      -9.024  -3.167   4.182  0.00  0.00    -0.244 OA
ATOM     33  OXT PHE A   1      -7.781  -2.056   5.479  0.00  0.00    -0.244 OA
ENDBRANCH  30  31
BRANCH  30  34
ATOM     34  CB  PHE A   1      -7.468  -5.153   6.112  0.00  0.00    +0.069 C 
BRANCH  34  35
ATOM     35  CG  PHE A   1      -6.591  -6.379   6.121  0.00  0.00    -0.045 A 
ATOM     36  CD2 PHE A   1      -6.968  -7.503   5.410  0.00  0.00    +0.004 A 
ATOM     37  CE2 PHE A   1      -6.165  -8.628   5.418  0.00  0.00    +0.000 A 
ATOM     38  CZ  PHE A   1      -4.984  -8.628   6.137  0.00  0.00    +0.000 A 
ATOM     39  CE1 PHE A   1      -4.606  -7.504   6.847  0.00  0.00    +0.000 A 
ATOM     40  CD1 PHE A   1      -5.408  -6.378   6.835  0.00  0.00    +0.004 A 
ENDBRANCH  34  35
ENDBRANCH  30  34
ENDBRANCH  28  30
ENDBRANCH  25  26
ENDBRANCH  24  25
ENDBRANCH   6  24
TORSDOF 8
