REMARK  Name = ZINC48025184
REMARK  10 active torsions:
REMARK  status: ('A' for Active; 'I' for Inactive)
REMARK    1  A    between atoms: C_1  and  C_2
REMARK    2  A    between atoms: C_2  and  O_3
REMARK    3  A    between atoms: O_3  and  C_4
REMARK    4  A    between atoms: C_4  and  C_6
REMARK    5  A    between atoms: C_7  and  C_25
REMARK    6  A    between atoms: C_9  and  N_11
REMARK    7  A    between atoms: C_12  and  C_14
REMARK    8  A    between atoms: C_14  and  N_15
REMARK    9  A    between atoms: C_18  and  C_21
REMARK   10  A    between atoms: C_21  and  C_22
REMARK                            x       y       z     vdW  Elec       q    Type
REMARK                         _______ _______ _______ _____ _____    ______ ____
ROOT
ATOM      1  N   UNL     1      -6.775  -2.931   0.047  0.00  0.00    -0.282 N 
ATOM      2  C   UNL     1      -7.468  -1.775   0.053  0.00  0.00    +0.201 C 
ATOM      3  O   UNL     1      -6.879  -0.715   0.049  0.00  0.00    -0.278 OA
ATOM      4  H   UNL     1      -7.246  -3.779   0.050  0.00  0.00    +0.155 HD
ENDROOT
BRANCH   1   8
ATOM      5  C   UNL     1      -2.799  -2.398   0.016  0.00  0.00    +0.101 A 
ATOM      6  C   UNL     1      -3.174  -3.736   0.018  0.00  0.00    -0.028 A 
ATOM      7  C   UNL     1      -4.522  -3.979   0.028  0.00  0.00    +0.035 A 
ATOM      8  C   UNL     1      -5.386  -2.908   0.036  0.00  0.00    +0.073 A 
ATOM      9  S   UNL     1      -4.375  -1.567   0.036  0.00  0.00    -0.067 S 
ATOM     10  C   UNL     1      -2.161  -4.851   0.009  0.00  0.00    +0.045 C 
BRANCH   5  11
ATOM     11  C   UNL     1      -1.497  -1.839   0.006  0.00  0.00    +0.346 C 
ATOM     12  O   UNL     1      -0.522  -2.567  -0.007  0.00  0.00    -0.244 OA
BRANCH  11  13
ATOM     13  O   UNL     1      -1.339  -0.499   0.012  0.00  0.00    -0.461 OA
BRANCH  13  15
ATOM     14  C   UNL     1      -0.019   1.526   0.010  0.00  0.00    +0.048 C 
ATOM     15  C   UNL     1       0.002  -0.004   0.002  0.00  0.00    +0.229 C 
ENDBRANCH  13  15
ENDBRANCH  11  13
ENDBRANCH   5  11
ENDBRANCH   1   8
BRANCH   2  16
ATOM     16  C   UNL     1      -8.975  -1.800   0.065  0.00  0.00    +0.019 C 
BRANCH  16  17
ATOM     17  N   UNL     1      -9.487  -0.423   0.069  0.00  0.00    +0.385 N 
ATOM     18  C   UNL     1      -9.111   0.242  -1.184  0.00  0.00    -0.078 C 
ATOM     19  C   UNL     1      -9.572   1.701  -1.150  0.00  0.00    -0.015 C 
ATOM     20  C   UNL     1     -11.094   1.746  -0.983  0.00  0.00    -0.006 C 
ATOM     21  C   UNL     1     -11.480   0.985   0.289  0.00  0.00    -0.015 C 
ATOM     22  C   UNL     1     -10.949  -0.447   0.202  0.00  0.00    -0.078 C 
ATOM     23  H   UNL     1      -9.088   0.080   0.848  0.00  0.00    -0.081 HD
BRANCH  20  24
ATOM     24  C   UNL     1     -11.553   3.201  -0.869  0.00  0.00    +0.099 C 
BRANCH  24  25
ATOM     25  C   UNL     1     -13.058   3.251  -0.828  0.00  0.00    +0.211 C 
ATOM     26  O   UNL     1     -13.701   2.224  -0.885  0.00  0.00    -0.276 OA
ATOM     27  N   UNL     1     -13.691   4.437  -0.728  0.00  0.00    -0.329 N 
ATOM     28  H   UNL     1     -13.177   5.258  -0.683  0.00  0.00    +0.145 HD
ATOM     29  H   UNL     1     -14.660   4.469  -0.702  0.00  0.00    +0.145 HD
ENDBRANCH  24  25
ENDBRANCH  20  24
ENDBRANCH  16  17
ENDBRANCH   2  16
TORSDOF 8
