REMARK  Name = ZINC40865072
REMARK  4 active torsions:
REMARK  status: ('A' for Active; 'I' for Inactive)
REMARK    1  A    between atoms: C_5  and  N_7
REMARK    2  A    between atoms: N_10  and  C_13
REMARK    3  A    between atoms: CA_17  and  C_19
REMARK    4  A    between atoms: C_19  and  O_20
REMARK                            x       y       z     vdW  Elec       q    Type
REMARK                         _______ _______ _______ _____ _____    ______ ____
ROOT
ATOM      1  N   UNL     1       1.237  -2.078  -0.007  0.00  0.00    -0.326 N 
ATOM      2  C   UNL     1       1.240  -2.834   1.253  0.00  0.00    +0.124 C 
ATOM      3  C   UNL     1       0.062  -3.815   1.239  0.00  0.00    +0.124 C 
ATOM      4  N   UNL     1       0.082  -4.555  -0.031  0.00  0.00    -0.327 N 
ATOM      5  C   UNL     1       0.079  -3.800  -1.291  0.00  0.00    +0.124 C 
ATOM      6  C   UNL     1       1.252  -2.818  -1.277  0.00  0.00    +0.124 C 
ENDROOT
BRANCH   1  11
ATOM      7  C   UNL     1      -0.017   1.377   0.010  0.00  0.00    +0.002 A 
ATOM      8  C   UNL     1       1.170   2.087   0.017  0.00  0.00    +0.002 A 
ATOM      9  C   UNL     1       2.380   1.417   0.016  0.00  0.00    +0.022 A 
ATOM     10  C   UNL     1       2.406   0.035   0.008  0.00  0.00    +0.062 A 
ATOM     11  C   UNL     1       1.215  -0.681   0.001  0.00  0.00    +0.048 A 
ATOM     12  C   UNL     1       0.002  -0.004   0.002  0.00  0.00    +0.024 A 
ATOM     13 CL   UNL     1       3.925  -0.806   0.006  0.00  0.00    -0.082 Cl
ENDBRANCH   1  11
BRANCH   4  14
ATOM     14  C   UNL     1       0.104  -5.947  -0.039  0.00  0.00    +0.033 A 
ATOM     15  C   UNL     1       0.010  -6.657  -1.236  0.00  0.00    +0.040 A 
ATOM     16  C   UNL     1       0.037  -8.035  -1.202  0.00  0.00    +0.084 A 
ATOM     17  N   UNL     1       0.148  -8.681  -0.056  0.00  0.00    -0.362 N 
ATOM     18  CA  UNL     1       0.239  -8.046   1.097  0.00  0.00    +0.043 A 
ATOM     19  C   UNL     1       0.227  -6.668   1.148  0.00  0.00    +0.046 A 
ATOM     20  H   UNL     1       0.164  -9.651  -0.062  0.00  0.00    +0.165 HD
BRANCH  18  21
ATOM     21  C   UNL     1       0.365  -8.836   2.374  0.00  0.00    +0.208 C 
BRANCH  21  22
ATOM     22  O   UNL     1       0.448  -7.939   3.483  0.00  0.00    -0.389 OA
ATOM     23  H   UNL     1       0.530  -8.380   4.340  0.00  0.00    +0.210 HD
ENDBRANCH  21  22
ENDBRANCH  18  21
ENDBRANCH   4  14
TORSDOF 4
