REMARK  Name = ZINC40703427
REMARK  5 active torsions:
REMARK  status: ('A' for Active; 'I' for Inactive)
REMARK    1  A    between atoms: C_1  and  C_2
REMARK    2  A    between atoms: C_10  and  N_24
REMARK    3  A    between atoms: C_11  and  N_15
REMARK    4  A    between atoms: N_15  and  C_16
REMARK    5  A    between atoms: C_21  and  C_22
REMARK                            x       y       z     vdW  Elec       q    Type
REMARK                         _______ _______ _______ _____ _____    ______ ____
ROOT
ATOM      1  C   UNL     1      -1.508   1.443  -0.244  0.00  0.00    +0.045 C 
ATOM      2  C   UNL     1      -1.323  -0.047  -0.110  0.00  0.00    -0.032 A 
ATOM      3  C   UNL     1      -1.424  -0.658   1.133  0.00  0.00    +0.008 A 
ATOM      4  C   UNL     1      -1.248  -2.027   1.211  0.00  0.00    +0.044 A 
ATOM      5  C   UNL     1      -0.977  -2.743   0.049  0.00  0.00    +0.124 A 
ATOM      6  N   UNL     1      -0.888  -2.123  -1.118  0.00  0.00    -0.240 NA
ATOM      7  C   UNL     1      -1.057  -0.819  -1.223  0.00  0.00    +0.116 A 
ATOM      8  N   UNL     1      -0.797  -4.121   0.114  0.00  0.00    -0.283 N 
ATOM      9  C   UNL     1      -0.657  -4.859  -1.056  0.00  0.00    +0.150 A 
ATOM     10  C   UNL     1      -0.563  -6.252  -1.009  0.00  0.00    +0.106 A 
ATOM     11  C   UNL     1      -0.423  -6.944  -2.213  0.00  0.00    +0.149 A 
ATOM     12  N   UNL     1      -0.386  -6.256  -3.352  0.00  0.00    -0.219 NA
ATOM     13  C   UNL     1      -0.478  -4.942  -3.353  0.00  0.00    +0.225 A 
ATOM     14  N   UNL     1      -0.617  -4.251  -2.239  0.00  0.00    -0.219 NA
ATOM     15  H   UNL     1      -0.770  -4.566   0.975  0.00  0.00    +0.155 HD
ENDROOT
BRANCH  10  16
ATOM     16  N   UNL     1      -0.607  -6.936   0.216  0.00  0.00    -0.353 N 
ATOM     17  H   UNL     1      -0.704  -6.441   1.044  0.00  0.00    +0.143 HD
ATOM     18  H   UNL     1      -0.540  -7.904   0.233  0.00  0.00    +0.143 HD
ENDBRANCH  10  16
BRANCH  11  19
ATOM     19  N   UNL     1      -0.324  -8.331  -2.223  0.00  0.00    -0.298 N 
ATOM     20  H   UNL     1      -0.260  -8.819  -1.387  0.00  0.00    +0.154 HD
BRANCH  19  21
ATOM     21  C   UNL     1      -0.317  -9.023  -3.438  0.00  0.00    +0.035 A 
ATOM     22  C   UNL     1      -0.922  -8.468  -4.558  0.00  0.00    +0.025 A 
ATOM     23  C   UNL     1      -0.913  -9.153  -5.757  0.00  0.00    +0.022 A 
ATOM     24  C   UNL     1      -0.302 -10.393  -5.842  0.00  0.00    +0.041 A 
ATOM     25  C   UNL     1       0.300 -10.948  -4.728  0.00  0.00    +0.025 A 
ATOM     26  C   UNL     1       0.299 -10.264  -3.527  0.00  0.00    -0.028 A 
ATOM     27  C   UNL     1       0.961 -10.868  -2.315  0.00  0.00    +0.046 C 
ATOM     28 CL   UNL     1      -0.293 -11.252  -7.351  0.00  0.00    -0.084 Cl
ENDBRANCH  19  21
ENDBRANCH  11  19
TORSDOF 3
