REMARK  Name = ZINC49547770
REMARK  2 active torsions:
REMARK  status: ('A' for Active; 'I' for Inactive)
REMARK    1  A    between atoms: C_9  and  C_11
REMARK    2  A    between atoms: C_14  and  O_18
REMARK                            x       y       z     vdW  Elec       q    Type
REMARK                         _______ _______ _______ _____ _____    ______ ____
ROOT
ATOM      1  C   UNL     1      -0.019   1.541   0.011  0.00  0.00    +0.011 C 
ATOM      2  C   UNL     1       1.486   1.879  -0.002  0.00  0.00    +0.056 C 
ATOM      3  C   UNL     1       2.181   0.676   0.631  0.00  0.00    +0.054 A 
ATOM      4  C   UNL     1       1.320  -0.368   0.615  0.00  0.00    +0.014 A 
ATOM      5  S   UNL     1       2.273  -1.663   1.372  0.00  0.00    -0.057 S 
ATOM      6  C   UNL     1       3.677  -0.776   1.646  0.00  0.00    +0.165 A 
ATOM      7  N   UNL     1       3.377   0.409   1.173  0.00  0.00    -0.229 NA
ATOM      8  N   UNL     1       4.865  -1.198   2.232  0.00  0.00    -0.266 N 
ATOM      9  C   UNL     1       5.892  -0.336   2.369  0.00  0.00    +0.205 C 
ATOM     10  O   UNL     1       5.780   0.808   1.980  0.00  0.00    -0.277 OA
ATOM     11  C   UNL     1       0.002  -0.004   0.002  0.00  0.00    +0.045 C 
ATOM     12  H   UNL     1       4.955  -2.112   2.543  0.00  0.00    +0.157 HD
ENDROOT
BRANCH   9  13
ATOM     13  C   UNL     1       7.180  -0.793   3.004  0.00  0.00    +0.019 C 
ATOM     14  C   UNL     1       8.056  -1.536   1.972  0.00  0.00    +0.023 C 
ATOM     15  C   UNL     1       9.504  -1.118   2.300  0.00  0.00    +0.097 C 
ATOM     16  C   UNL     1       9.382  -0.158   3.502  0.00  0.00    -0.050 C 
ATOM     17  N   UNL     1       7.997   0.377   3.418  0.00  0.00    +0.388 N 
ATOM     18  H   UNL     1       7.944   1.108   2.725  0.00  0.00    -0.085 HD
ATOM     19  H   UNL     1       7.693   0.718   4.318  0.00  0.00    -0.085 HD
BRANCH  15  20
ATOM     20  O   UNL     1      10.283  -2.263   2.653  0.00  0.00    -0.394 OA
ATOM     21  H   UNL     1      11.203  -2.061   2.870  0.00  0.00    +0.210 HD
ENDBRANCH  15  20
ENDBRANCH   9  13
TORSDOF 2
