REMARK  Name = ZINC45125004
REMARK  8 active torsions:
REMARK  status: ('A' for Active; 'I' for Inactive)
REMARK    1  A    between atoms: C_1  and  C_2
REMARK    2  A    between atoms: C_2  and  C_4
REMARK    3  A    between atoms: C_2  and  N_14
REMARK    4  A    between atoms: C_8  and  S_10
REMARK    5  A    between atoms: S_10  and  N_13
REMARK    6  A    between atoms: N_17  and  C_18
REMARK    7  A    between atoms: N_17  and  C_19
REMARK    8  A    between atoms: C_19  and  C_20
REMARK                            x       y       z     vdW  Elec       q    Type
REMARK                         _______ _______ _______ _____ _____    ______ ____
ROOT
ATOM      1  N   UNL     1       0.514  -0.634  -1.538  0.00  0.00    -0.293 N 
ATOM      2  C   UNL     1       1.847  -0.639  -1.339  0.00  0.00    +0.303 C 
ATOM      3  O   UNL     1       2.305  -0.263  -0.277  0.00  0.00    -0.253 OA
ATOM      4  N   UNL     1       2.672  -1.060  -2.317  0.00  0.00    -0.284 N 
ATOM      5  C   UNL     1       2.121  -1.513  -3.597  0.00  0.00    +0.134 C 
ATOM      6  H   UNL     1       0.149  -0.934  -2.385  0.00  0.00    +0.151 HD
ENDROOT
BRANCH   1   8
ATOM      7  C   UNL     1      -0.516   1.347  -0.540  0.00  0.00    +0.033 C 
ATOM      8  C   UNL     1      -0.384  -0.176  -0.474  0.00  0.00    +0.102 C 
BRANCH   8   9
ATOM      9  C   UNL     1      -1.740  -0.806  -0.656  0.00  0.00    -0.026 A 
ATOM     10  C   UNL     1      -2.273  -0.947  -1.924  0.00  0.00    +0.005 A 
ATOM     11  C   UNL     1      -3.518  -1.525  -2.090  0.00  0.00    +0.002 A 
ATOM     12  C   UNL     1      -4.229  -1.963  -0.988  0.00  0.00    +0.028 A 
ATOM     13  C   UNL     1      -3.696  -1.824   0.279  0.00  0.00    +0.105 A 
ATOM     14  C   UNL     1      -2.449  -1.249   0.445  0.00  0.00    +0.034 A 
BRANCH  13  15
ATOM     15  S   UNL     1      -4.603  -2.381   1.683  0.00  0.00    +0.056 S 
ATOM     16  O   UNL     1      -4.123  -1.641   2.797  0.00  0.00    -0.153 OA
ATOM     17  O   UNL     1      -5.973  -2.388   1.305  0.00  0.00    -0.153 OA
BRANCH  15  18
ATOM     18  N   UNL     1      -4.177  -3.960   1.945  0.00  0.00    -0.204 NA
ATOM     19  H   UNL     1      -4.190  -4.323   2.844  0.00  0.00    +0.144 HD
ATOM     20  H   UNL     1      -3.915  -4.522   1.199  0.00  0.00    +0.144 HD
ENDBRANCH  15  18
ENDBRANCH  13  15
ENDBRANCH   8   9
ENDBRANCH   1   8
BRANCH   4  21
ATOM     21  C   UNL     1       4.121  -1.066  -2.102  0.00  0.00    +0.144 C 
BRANCH  21  22
ATOM     22  C   UNL     1       4.554  -2.430  -1.630  0.00  0.00    -0.022 A 
ATOM     23  C   UNL     1       3.653  -3.449  -1.565  0.00  0.00    +0.006 A 
ATOM     24  C   UNL     1       4.035  -4.717  -1.131  0.00  0.00    +0.001 A 
ATOM     25  C   UNL     1       5.319  -4.974  -0.761  0.00  0.00    +0.008 A 
ATOM     26  C   UNL     1       6.277  -3.948  -0.815  0.00  0.00    -0.018 A 
ATOM     27  C   UNL     1       5.890  -2.659  -1.262  0.00  0.00    -0.013 A 
ATOM     28  C   UNL     1       6.850  -1.634  -1.321  0.00  0.00    +0.009 A 
ATOM     29  C   UNL     1       8.135  -1.893  -0.957  0.00  0.00    +0.001 A 
ATOM     30  C   UNL     1       8.517  -3.161  -0.523  0.00  0.00    +0.001 A 
ATOM     31  C   UNL     1       7.612  -4.175  -0.440  0.00  0.00    +0.008 A 
ENDBRANCH  21  22
ENDBRANCH   4  21
TORSDOF 6
