REMARK  Name = ZINC60567617
REMARK  4 active torsions:
REMARK  status: ('A' for Active; 'I' for Inactive)
REMARK    1  A    between atoms: N_3  and  C_10
REMARK    2  A    between atoms: C_5  and  C_6
REMARK    3  A    between atoms: C_10  and  C_11
REMARK    4  A    between atoms: N_13  and  C_14
REMARK                            x       y       z     vdW  Elec       q    Type
REMARK                         _______ _______ _______ _____ _____    ______ ____
ROOT
ATOM      1  C   UNL     1       4.051  -0.064   1.127  0.00  0.00    +0.235 C 
ATOM      2  O   UNL     1       3.274  -0.602   1.887  0.00  0.00    -0.274 OA
ATOM      3  N   UNL     1       5.379  -0.197   1.315  0.00  0.00    -0.313 N 
ATOM      4  H   UNL     1       6.000   0.234   0.707  0.00  0.00    +0.149 HD
ENDROOT
BRANCH   3   5
ATOM      5  C   UNL     1       5.884  -0.991   2.437  0.00  0.00    +0.058 C 
ATOM      6  C   UNL     1       6.079  -2.470   2.012  0.00  0.00    +0.002 C 
ATOM      7  C   UNL     1       7.606  -2.721   2.133  0.00  0.00    -0.077 C 
ATOM      8  N   UNL     1       8.187  -1.375   2.002  0.00  0.00    +0.383 N 
ATOM      9  C   UNL     1       7.289  -0.528   2.833  0.00  0.00    -0.048 C 
ATOM     10  C   UNL     1       7.587   0.925   2.496  0.00  0.00    -0.014 C 
ATOM     11  C   UNL     1       9.038   1.208   2.915  0.00  0.00    -0.003 C 
ATOM     12  C   UNL     1       9.992   0.215   2.252  0.00  0.00    -0.019 C 
ATOM     13  C   UNL     1       9.543  -1.231   2.514  0.00  0.00    -0.078 C 
ATOM     14  H   UNL     1       8.150  -1.079   1.039  0.00  0.00    -0.081 HD
ENDBRANCH   3   5
BRANCH   1  15
ATOM     15  C   UNL     1       3.531   0.753  -0.028  0.00  0.00    +0.239 C 
BRANCH  15  18
ATOM     16  C   UNL     1      -0.017   1.395   0.010  0.00  0.00    +0.053 A 
ATOM     17  C   UNL     1       1.265   1.828  -0.000  0.00  0.00    +0.109 A 
ATOM     18  N   UNL     1       2.066   0.743  -0.014  0.00  0.00    -0.262 N 
ATOM     19  N   UNL     1       1.250  -0.396  -0.012  0.00  0.00    -0.167 NA
ATOM     20  C   UNL     1       0.002  -0.004   0.002  0.00  0.00    +0.165 A 
BRANCH  20  21
ATOM     21  C   UNL     1      -1.206  -0.904   0.009  0.00  0.00    +0.436 C 
ATOM     22  F   UNL     1      -1.594  -1.176  -1.308  0.00  0.00    -0.164 F 
ATOM     23  F   UNL     1      -0.892  -2.102   0.659  0.00  0.00    -0.164 F 
ATOM     24  F   UNL     1      -2.256  -0.270   0.682  0.00  0.00    -0.164 F 
ENDBRANCH  20  21
ENDBRANCH  15  18
ENDBRANCH   1  15
TORSDOF 4
