REMARK  Name = ZINC66763990
REMARK  4 active torsions:
REMARK  status: ('A' for Active; 'I' for Inactive)
REMARK    1  A    between atoms: C_1  and  C_2
REMARK    2  A    between atoms: C_5  and  N_8
REMARK    3  A    between atoms: C_10  and  C_15
REMARK    4  A    between atoms: N_17  and  C_18
REMARK                            x       y       z     vdW  Elec       q    Type
REMARK                         _______ _______ _______ _____ _____    ______ ____
ROOT
ATOM      1  N   UNL     1       2.853  -2.027  -0.036  0.00  0.00    -0.298 N 
ATOM      2  C   UNL     1       4.049  -2.874   0.048  0.00  0.00    +0.121 C 
ATOM      3  C   UNL     1       5.218  -1.985  -0.431  0.00  0.00    +0.101 C 
ATOM      4  C   UNL     1       4.686  -0.568  -0.117  0.00  0.00    +0.110 C 
ATOM      5  C   UNL     1       3.181  -0.727  -0.129  0.00  0.00    +0.217 C 
ATOM      6  O   UNL     1       2.387   0.186  -0.210  0.00  0.00    -0.276 OA
ENDROOT
BRANCH   1  11
ATOM      7  C   UNL     1       1.484  -2.461   4.301  0.00  0.00    +0.007 C 
ATOM      8  C   UNL     1       1.004  -2.662   2.862  0.00  0.00    -0.014 C 
ATOM      9  C   UNL     1       1.049  -1.325   2.118  0.00  0.00    +0.005 C 
ATOM     10  C   UNL     1       0.569  -1.527   0.680  0.00  0.00    +0.023 C 
ATOM     11  C   UNL     1       1.479  -2.534  -0.026  0.00  0.00    +0.076 C 
ATOM     12  C   UNL     1       1.434  -3.870   0.719  0.00  0.00    +0.023 C 
ATOM     13  C   UNL     1       1.914  -3.669   2.157  0.00  0.00    +0.005 C 
ENDBRANCH   1  11
BRANCH   3  14
ATOM     14  C   UNL     1       5.456  -2.157  -1.909  0.00  0.00    +0.218 C 
ATOM     15  O   UNL     1       4.764  -2.919  -2.550  0.00  0.00    -0.275 OA
ATOM     16  N   UNL     1       6.438  -1.463  -2.519  0.00  0.00    -0.312 N 
ATOM     17  H   UNL     1       6.991  -0.853  -2.006  0.00  0.00    +0.149 HD
BRANCH  16  18
ATOM     18  C   UNL     1       6.670  -1.630  -3.956  0.00  0.00    +0.077 C 
ATOM     19  C   UNL     1       7.589  -2.833  -4.190  0.00  0.00    +0.050 C 
ATOM     20  C   UNL     1       7.888  -2.952  -5.687  0.00  0.00    +0.161 C 
ATOM     21  O   UNL     1       8.482  -1.738  -6.151  0.00  0.00    -0.380 OA
ATOM     22  C   UNL     1       7.649  -0.587  -6.000  0.00  0.00    +0.161 C 
ATOM     23  C   UNL     1       7.340  -0.372  -4.516  0.00  0.00    +0.050 C 
ENDBRANCH  16  18
ENDBRANCH   3  14
TORSDOF 3
