REMARK  Name = ZINC53096297
REMARK  5 active torsions:
REMARK  status: ('A' for Active; 'I' for Inactive)
REMARK    1  A    between atoms: C_2  and  C_11
REMARK    2  A    between atoms: C_11  and  N_12
REMARK    3  A    between atoms: N_12  and  C_13
REMARK    4  A    between atoms: C_13  and  C_19
REMARK    5  A    between atoms: C_19  and  O_20
REMARK                            x       y       z     vdW  Elec       q    Type
REMARK                         _______ _______ _______ _____ _____    ______ ____
ROOT
ATOM      1  N   UNL     1       1.105   4.087   1.496  0.00  0.00    +0.387 N 
ATOM      2  H   UNL     1       1.951   3.833   1.983  0.00  0.00    -0.085 HD
ATOM      3  H   UNL     1       1.083   3.627   0.598  0.00  0.00    -0.085 HD
ENDROOT
BRANCH   1   4
ATOM      4  C   UNL     1       1.069   5.542   1.301  0.00  0.00    -0.044 C 
ATOM      5  C   UNL     1       2.237   5.966   0.408  0.00  0.00    -0.010 C 
ATOM      6  C   UNL     1       3.557   5.573   1.074  0.00  0.00    -0.001 C 
ATOM      7  C   UNL     1       3.672   6.272   2.430  0.00  0.00    -0.000 C 
ATOM      8  C   UNL     1       2.505   5.848   3.323  0.00  0.00    -0.001 C 
ATOM      9  C   UNL     1       1.184   6.241   2.657  0.00  0.00    -0.010 C 
BRANCH   4  10
ATOM     10  C   UNL     1      -0.251   5.935   0.635  0.00  0.00    +0.143 C 
BRANCH  10  11
ATOM     11  O   UNL     1      -0.418   5.186  -0.570  0.00  0.00    -0.396 OA
ATOM     12  H   UNL     1      -1.236   5.384  -1.046  0.00  0.00    +0.209 HD
ENDBRANCH  10  11
ENDBRANCH   4  10
ENDBRANCH   1   4
BRANCH   1  13
ATOM     13  C   UNL     1      -0.060   3.670   2.288  0.00  0.00    -0.046 C 
BRANCH  13  15
ATOM     14  C   UNL     1       0.644   1.682   3.635  0.00  0.00    +0.051 A 
ATOM     15  C   UNL     1      -0.003   2.182   2.520  0.00  0.00    -0.059 A 
ATOM     16  C   UNL     1      -0.598   1.320   1.619  0.00  0.00    +0.025 A 
ATOM     17  C   UNL     1      -0.549  -0.047   1.828  0.00  0.00    +0.087 A 
ATOM     18  C   UNL     1       0.099  -0.554   2.943  0.00  0.00    +0.184 A 
ATOM     19  C   UNL     1       0.698   0.315   3.851  0.00  0.00    +0.168 A 
ATOM     20  O   UNL     1       1.262  -0.422   4.853  0.00  0.00    -0.453 OA
ATOM     21  C   UNL     1       0.652  -1.723   4.764  0.00  0.00    +0.466 C 
ATOM     22  O   UNL     1       0.287  -1.835   3.376  0.00  0.00    -0.451 OA
ATOM     23 CL   UNL     1      -1.298  -1.126   0.693  0.00  0.00    -0.080 Cl
ENDBRANCH  13  15
ENDBRANCH   1  13
TORSDOF 5
