REMARK  Name = ZINC32071068
REMARK  12 active torsions:
REMARK  status: ('A' for Active; 'I' for Inactive)
REMARK    1  A    between atoms: C_1  and  C_2
REMARK    2  A    between atoms: C_2  and  C_3
REMARK    3  A    between atoms: C_2  and  N_4
REMARK    4  A    between atoms: N_4  and  C_5
REMARK    5  A    between atoms: N_4  and  C_12
REMARK    6  A    between atoms: C_5  and  C_6
REMARK    7  A    between atoms: C_12  and  C_14
REMARK    8  A    between atoms: C_12  and  C_16
REMARK    9  A    between atoms: C_14  and  N_15
REMARK   10  A    between atoms: C_20  and  O_23
REMARK   11  A    between atoms: C_21  and  O_22
REMARK   12  A    between atoms: O_23  and  C_24
REMARK                            x       y       z     vdW  Elec       q    Type
REMARK                         _______ _______ _______ _____ _____    ______ ____
ROOT
ATOM      1  C   UNL     1       2.014   1.231  -0.275  0.00  0.00    +0.074 C 
ENDROOT
BRANCH   1   2
ATOM      2  C   UNL     1       0.912   2.258  -0.259  0.00  0.00    +0.013 A 
ATOM      3  C   UNL     1      -0.016   2.294  -1.284  0.00  0.00    +0.009 A 
ATOM      4  C   UNL     1      -1.024   3.239  -1.275  0.00  0.00    +0.004 A 
ATOM      5  C   UNL     1      -1.117   4.146  -0.236  0.00  0.00    +0.049 A 
ATOM      6  C   UNL     1      -0.191   4.116   0.794  0.00  0.00    +0.162 A 
ATOM      7  C   UNL     1       0.828   3.168   0.782  0.00  0.00    +0.163 A 
BRANCH   7   8
ATOM      8  O   UNL     1       1.739   3.134   1.792  0.00  0.00    -0.503 OA
ATOM      9  H   UNL     1       1.672   3.857   2.618  0.00  0.00    +0.292 HD
ENDBRANCH   7   8
BRANCH   6  10
ATOM     10  O   UNL     1      -0.277   5.011   1.815  0.00  0.00    -0.491 OA
ATOM     11  C   UNL     1      -1.349   5.955   1.760  0.00  0.00    +0.277 C 
ENDBRANCH   6  10
ENDBRANCH   1   2
BRANCH   1  12
ATOM     12  N   UNL     1       1.579   0.058  -1.046  0.00  0.00    -0.291 NA
BRANCH  12  14
ATOM     13  C   UNL     1       1.865  -1.331   0.951  0.00  0.00    +0.024 C 
ATOM     14  C   UNL     1       0.916  -0.925  -0.178  0.00  0.00    +0.051 C 
ATOM     15  C   UNL     1      -0.351  -0.308   0.417  0.00  0.00    +0.024 C 
ENDBRANCH  12  14
BRANCH  12  16
ATOM     16  C   UNL     1       2.708  -0.549  -1.763  0.00  0.00    +0.120 C 
BRANCH  16  17
ATOM     17  C   UNL     1       2.238  -1.787  -2.483  0.00  0.00    -0.033 A 
ATOM     18  C   UNL     1       2.286  -3.015  -1.851  0.00  0.00    +0.005 A 
ATOM     19  C   UNL     1       1.850  -4.149  -2.510  0.00  0.00    +0.000 A 
ATOM     20  C   UNL     1       1.377  -4.057  -3.805  0.00  0.00    +0.000 A 
ATOM     21  C   UNL     1       1.334  -2.830  -4.440  0.00  0.00    +0.000 A 
ATOM     22  C   UNL     1       1.765  -1.694  -3.779  0.00  0.00    +0.005 A 
ENDBRANCH  16  17
ENDBRANCH  12  16
ENDBRANCH   1  12
BRANCH   1  23
ATOM     23  C   UNL     1       3.263   1.832  -0.923  0.00  0.00    -0.062 C 
BRANCH  23  24
ATOM     24  N   UNL     1       4.463   1.282  -0.278  0.00  0.00    +0.379 N 
ATOM     25  H   UNL     1       5.360   1.715  -0.744  0.00  0.00    -0.090 HD
ATOM     26  H   UNL     1       4.476   0.189  -0.401  0.00  0.00    -0.090 HD
ATOM     27  H   UNL     1       4.449   1.531   0.793  0.00  0.00    -0.090 HD
ENDBRANCH  23  24
ENDBRANCH   1  23
TORSDOF 9
