REMARK  Name = ZINC36908726
REMARK  6 active torsions:
REMARK  status: ('A' for Active; 'I' for Inactive)
REMARK    1  A    between atoms: C_1  and  C_2
REMARK    2  A    between atoms: C_2  and  N_3
REMARK    3  A    between atoms: C_6  and  C_9
REMARK    4  A    between atoms: C_9  and  N_10
REMARK    5  A    between atoms: N_10  and  C_11
REMARK    6  A    between atoms: C_19  and  C_21
REMARK                            x       y       z     vdW  Elec       q    Type
REMARK                         _______ _______ _______ _____ _____    ______ ____
ROOT
ATOM      1  C   UNL     1      -5.247  -1.595  -2.789  0.00  0.00    -0.025 C 
ENDROOT
BRANCH   1   5
ATOM      2  N   UNL     1      -1.366  -0.524   0.012  0.00  0.00    -0.251 N 
ATOM      3  C   UNL     1      -2.068  -0.652  -1.182  0.00  0.00    +0.167 A 
ATOM      4  N   UNL     1      -3.305  -1.061  -1.363  0.00  0.00    -0.231 NA
ATOM      5  C   UNL     1      -3.831  -1.127  -2.572  0.00  0.00    +0.034 A 
ATOM      6  C   UNL     1      -3.041  -0.756  -3.609  0.00  0.00    +0.069 A 
ATOM      7  S   UNL     1      -1.543  -0.315  -2.745  0.00  0.00    -0.060 S 
ATOM      8  C   UNL     1      -1.958  -0.846   1.179  0.00  0.00    +0.218 C 
ATOM      9  O   UNL     1      -3.067  -1.338   1.181  0.00  0.00    -0.276 OA
ATOM     10  C   UNL     1      -1.243  -0.594   2.481  0.00  0.00    +0.110 C 
BRANCH   2  12
ATOM     11  C   UNL     1       0.021   1.489   0.043  0.00  0.00    +0.025 C 
ATOM     12  C   UNL     1       0.016  -0.040   0.001  0.00  0.00    +0.112 C 
ENDBRANCH   2  12
ENDBRANCH   1   5
BRANCH   1  13
ATOM     13  N   UNL     1      -5.273  -3.061  -2.864  0.00  0.00    +0.385 N 
ATOM     14  H   UNL     1      -4.696  -3.369  -3.632  0.00  0.00    -0.085 HD
ATOM     15  H   UNL     1      -4.919  -3.449  -2.002  0.00  0.00    -0.085 HD
BRANCH  13  16
ATOM     16  C   UNL     1      -6.653  -3.517  -3.075  0.00  0.00    -0.068 C 
ATOM     17  C   UNL     1      -7.501  -3.131  -1.867  0.00  0.00    +0.007 C 
ATOM     18  C   UNL     1      -8.984  -3.352  -2.176  0.00  0.00    +0.164 C 
ATOM     19  S   UNL     1      -9.265  -5.122  -2.476  0.00  0.00    -0.031 S 
ATOM     20  O   UNL     1     -10.563  -5.286  -3.031  0.00  0.00    -0.174 OA
ATOM     21  O   UNL     1      -8.919  -5.840  -1.300  0.00  0.00    -0.174 OA
ATOM     22  C   UNL     1      -8.035  -5.488  -3.763  0.00  0.00    +0.164 C 
ATOM     23  C   UNL     1      -6.658  -5.030  -3.277  0.00  0.00    +0.007 C 
ENDBRANCH  13  16
ENDBRANCH   1  13
TORSDOF 4
