REMARK  Name = ZINC39688122
REMARK  6 active torsions:
REMARK  status: ('A' for Active; 'I' for Inactive)
REMARK    1  A    between atoms: C_5  and  C_7
REMARK    2  A    between atoms: C_11  and  C_20
REMARK    3  A    between atoms: N_22  and  C_23
REMARK    4  A    between atoms: C_23  and  C_24
REMARK    5  A    between atoms: C_24  and  O_25
REMARK    6  A    between atoms: O_25  and  C_26
REMARK                            x       y       z     vdW  Elec       q    Type
REMARK                         _______ _______ _______ _____ _____    ______ ____
ROOT
ATOM      1  C   UNL     1       1.190  -1.965  -0.097  0.00  0.00    +0.248 C 
ATOM      2  O   UNL     1       2.273  -2.516  -0.134  0.00  0.00    -0.270 OA
ATOM      3  N   UNL     1       0.068  -2.695   0.063  0.00  0.00    -0.296 N 
ATOM      4  C   UNL     1      -1.336  -2.222   0.027  0.00  0.00    +0.121 C 
ATOM      5  C   UNL     1      -2.104  -3.335  -0.720  0.00  0.00    +0.100 C 
ATOM      6  C   UNL     1      -1.250  -4.599  -0.527  0.00  0.00    -0.004 C 
ATOM      7  C   UNL     1      -0.041  -4.153   0.307  0.00  0.00    +0.115 C 
ATOM      8  C   UNL     1      -0.783  -5.133  -1.878  0.00  0.00    -0.010 C 
ATOM      9  C   UNL     1       0.016  -6.421  -1.664  0.00  0.00    -0.082 C 
ATOM     10  N   UNL     1      -0.826  -7.415  -0.987  0.00  0.00    +0.379 N 
ATOM     11  C   UNL     1      -1.194  -6.932   0.350  0.00  0.00    -0.082 C 
ATOM     12  C   UNL     1      -2.045  -5.665   0.221  0.00  0.00    -0.010 C 
ATOM     13  H   UNL     1      -1.663  -7.570  -1.529  0.00  0.00    -0.086 HD
ATOM     14  H   UNL     1      -0.318  -8.283  -0.901  0.00  0.00    -0.086 HD
ENDROOT
BRANCH   1  19
ATOM     15  C   UNL     1       0.066   1.588   0.367  0.00  0.00    +0.001 A 
ATOM     16  C   UNL     1       0.940   2.259  -0.472  0.00  0.00    +0.001 A 
ATOM     17  C   UNL     1       1.894   1.560  -1.188  0.00  0.00    +0.021 A 
ATOM     18  C   UNL     1       1.982   0.187  -1.072  0.00  0.00    +0.053 A 
ATOM     19  C   UNL     1       1.103  -0.496  -0.227  0.00  0.00    +0.055 A 
ATOM     20  C   UNL     1       0.142   0.216   0.493  0.00  0.00    +0.014 A 
ATOM     21 CL   UNL     1       3.180  -0.689  -1.973  0.00  0.00    -0.083 Cl
ENDBRANCH   1  19
BRANCH   5  22
ATOM     22  C   UNL     1      -3.471  -3.526  -0.116  0.00  0.00    +0.218 C 
ATOM     23  O   UNL     1      -3.647  -3.317   1.066  0.00  0.00    -0.275 OA
ATOM     24  N   UNL     1      -4.500  -3.928  -0.889  0.00  0.00    -0.312 N 
ATOM     25  H   UNL     1      -4.359  -4.094  -1.835  0.00  0.00    +0.149 HD
BRANCH  24  26
ATOM     26  C   UNL     1      -5.829  -4.113  -0.302  0.00  0.00    +0.145 C 
BRANCH  26  27
ATOM     27  C   UNL     1      -6.807  -4.569  -1.387  0.00  0.00    +0.247 C 
BRANCH  27  28
ATOM     28  O   UNL     1      -6.421  -5.859  -1.864  0.00  0.00    -0.490 OA
BRANCH  28  29
ATOM     29  C   UNL     1      -7.191  -6.413  -2.838  0.00  0.00    +0.121 A 
ATOM     30  C   UNL     1      -8.291  -5.725  -3.328  0.00  0.00    +0.048 A 
ATOM     31  C   UNL     1      -9.073  -6.289  -4.318  0.00  0.00    +0.042 A 
ATOM     32  C   UNL     1      -8.759  -7.540  -4.820  0.00  0.00    +0.124 A 
ATOM     33  C   UNL     1      -7.661  -8.228  -4.332  0.00  0.00    +0.042 A 
ATOM     34  C   UNL     1      -6.874  -7.664  -3.347  0.00  0.00    +0.048 A 
ATOM     35  F   UNL     1      -9.524  -8.090  -5.788  0.00  0.00    -0.205 F 
ENDBRANCH  28  29
ENDBRANCH  27  28
ENDBRANCH  26  27
ENDBRANCH  24  26
ENDBRANCH   5  22
TORSDOF 6
