REMARK  Name = ZINC20627159
REMARK  9 active torsions:
REMARK  status: ('A' for Active; 'I' for Inactive)
REMARK    1  A    between atoms: C_1  and  O_2
REMARK    2  A    between atoms: O_2  and  C_3
REMARK    3  A    between atoms: C_8  and  N_9
REMARK    4  A    between atoms: N_9  and  S_10
REMARK    5  A    between atoms: S_10  and  C_13
REMARK    6  A    between atoms: C_16  and  O_31
REMARK    7  A    between atoms: C_17  and  N_19
REMARK    8  A    between atoms: N_19  and  S_20
REMARK    9  A    between atoms: S_20  and  C_23
REMARK                            x       y       z     vdW  Elec       q    Type
REMARK                         _______ _______ _______ _____ _____    ______ ____
ROOT
ATOM      1  C   UNL     1       4.521   0.401   1.128  0.00  0.00    +0.111 A 
ATOM      2  C   UNL     1       4.214   0.049   2.429  0.00  0.00    +0.032 A 
ATOM      3  C   UNL     1       3.594   0.958   3.267  0.00  0.00    +0.049 A 
ATOM      4  C   UNL     1       3.279   2.225   2.804  0.00  0.00    +0.141 A 
ATOM      5  C   UNL     1       3.589   2.580   1.493  0.00  0.00    +0.117 A 
ATOM      6  C   UNL     1       4.205   1.662   0.656  0.00  0.00    +0.059 A 
ENDROOT
BRANCH   1   7
ATOM      7  S   UNL     1       5.311  -0.762   0.066  0.00  0.00    +0.073 S 
ATOM      8  O   UNL     1       5.984  -0.008  -0.934  0.00  0.00    -0.150 OA
ATOM      9  O   UNL     1       5.987  -1.686   0.907  0.00  0.00    -0.150 OA
BRANCH   7  10
ATOM     10  N   UNL     1       4.116  -1.610  -0.706  0.00  0.00    -0.213 N 
ATOM     11  H   UNL     1       4.042  -2.700  -0.574  0.00  0.00    +0.174 HD
BRANCH  10  17
ATOM     12  C   UNL     1       1.872  -1.359  -1.576  0.00  0.00    +0.142 A 
ATOM     13  C   UNL     1       0.970  -0.693  -2.389  0.00  0.00    +0.047 A 
ATOM     14  C   UNL     1       1.388   0.385  -3.148  0.00  0.00    +0.004 A 
ATOM     15  C   UNL     1       2.705   0.801  -3.098  0.00  0.00    +0.002 A 
ATOM     16  C   UNL     1       3.611   0.144  -2.286  0.00  0.00    +0.028 A 
ATOM     17  C   UNL     1       3.200  -0.941  -1.526  0.00  0.00    +0.090 A 
BRANCH  12  19
ATOM     18  C   UNL     1       0.087  -2.792  -0.930  0.00  0.00    +0.277 C 
ATOM     19  O   UNL     1       1.463  -2.419  -0.828  0.00  0.00    -0.493 OA
ENDBRANCH  12  19
ENDBRANCH  10  17
ENDBRANCH   7  10
ENDBRANCH   1   7
BRANCH   4  20
ATOM     20  O   UNL     1       2.670   3.119   3.627  0.00  0.00    -0.505 OA
ATOM     21  H   UNL     1       2.420   4.125   3.258  0.00  0.00    +0.292 HD
ENDBRANCH   4  20
BRANCH   5  22
ATOM     22  N   UNL     1       3.273   3.859   1.020  0.00  0.00    -0.094 NA
BRANCH  22  23
ATOM     23  S   UNL     1       2.132   4.044  -0.166  0.00  0.00    +0.095 S 
ATOM     24  O   UNL     1       2.445   3.100  -1.181  0.00  0.00    -0.148 OA
ATOM     25  O   UNL     1       2.038   5.439  -0.425  0.00  0.00    -0.148 OA
BRANCH  23  26
ATOM     26  C   UNL     1       0.584   3.554   0.518  0.00  0.00    +0.148 A 
ATOM     27  C   UNL     1      -0.427   4.483   0.676  0.00  0.00    +0.070 A 
ATOM     28  C   UNL     1      -1.643   4.098   1.214  0.00  0.00    +0.125 A 
ATOM     29  C   UNL     1      -1.848   2.781   1.590  0.00  0.00    +0.041 A 
ATOM     30  C   UNL     1      -0.835   1.854   1.436  0.00  0.00    +0.043 A 
ATOM     31  C   UNL     1       0.381   2.239   0.898  0.00  0.00    +0.150 A 
ATOM     32  F   UNL     1       1.369   1.331   0.743  0.00  0.00    -0.203 F 
ATOM     33  F   UNL     1      -2.631   5.006   1.368  0.00  0.00    -0.205 F 
ENDBRANCH  23  26
ENDBRANCH  22  23
ENDBRANCH   5  22
TORSDOF 8
