REMARK  Name = ZINC57432751
REMARK  6 active torsions:
REMARK  status: ('A' for Active; 'I' for Inactive)
REMARK    1  A    between atoms: C_1  and  C_2
REMARK    2  A    between atoms: C_3  and  C_23
REMARK    3  A    between atoms: C_7  and  N_8
REMARK    4  A    between atoms: C_9  and  C_11
REMARK    5  A    between atoms: N_13  and  C_20
REMARK    6  A    between atoms: C_20  and  C_21
REMARK                            x       y       z     vdW  Elec       q    Type
REMARK                         _______ _______ _______ _____ _____    ______ ____
ROOT
ATOM      1  N   UNL     1       0.135   0.088   2.418  0.00  0.00    -0.281 N 
ATOM      2  C   UNL     1       0.340  -0.568   3.578  0.00  0.00    +0.250 C 
ATOM      3  O   UNL     1       0.386  -1.784   3.590  0.00  0.00    -0.270 OA
ATOM      4  H   UNL     1       0.023   1.051   2.419  0.00  0.00    +0.155 HD
ENDROOT
BRANCH   2   5
ATOM      5  C   UNL     1       0.506   0.185   4.828  0.00  0.00    +0.062 A 
ATOM      6  C   UNL     1       0.473   1.541   4.975  0.00  0.00    +0.100 A 
ATOM      7  N   UNL     1       0.666   1.865   6.276  0.00  0.00    -0.342 N 
ATOM      8  C   UNL     1       0.833   0.727   7.037  0.00  0.00    +0.050 A 
ATOM      9  C   UNL     1       0.736  -0.375   6.172  0.00  0.00    +0.012 A 
ATOM     10  C   UNL     1       0.862  -1.669   6.673  0.00  0.00    +0.011 A 
ATOM     11  C   UNL     1       1.078  -1.861   8.020  0.00  0.00    +0.001 A 
ATOM     12  C   UNL     1       1.171  -0.773   8.876  0.00  0.00    +0.002 A 
ATOM     13  C   UNL     1       1.057   0.512   8.393  0.00  0.00    +0.026 A 
BRANCH   7  14
ATOM     14  C   UNL     1       0.692   3.233   6.801  0.00  0.00    +0.148 C 
BRANCH  14  15
ATOM     15  C   UNL     1       2.118   3.715   6.874  0.00  0.00    -0.013 C 
ATOM     16  C   UNL     1       2.464   4.829   6.277  0.00  0.00    +0.005 C 
ENDBRANCH  14  15
ENDBRANCH   7  14
ENDBRANCH   2   5
BRANCH   1  23
ATOM     17  C   UNL     1      -1.156   1.307   0.198  0.00  0.00    +0.046 C 
ATOM     18  C   UNL     1      -0.535  -0.063   0.106  0.00  0.00    -0.017 A 
ATOM     19  C   UNL     1      -0.578  -0.772  -1.094  0.00  0.00    +0.041 A 
ATOM     20  C   UNL     1      -0.000  -2.041  -1.171  0.00  0.00    +0.013 A 
ATOM     21  C   UNL     1       0.610  -2.590  -0.062  0.00  0.00    +0.003 A 
ATOM     22  C   UNL     1       0.652  -1.888   1.128  0.00  0.00    +0.023 A 
ATOM     23  C   UNL     1       0.085  -0.621   1.214  0.00  0.00    +0.037 A 
BRANCH  19  24
ATOM     24  C   UNL     1      -1.233  -0.182  -2.281  0.00  0.00    +0.242 C 
ATOM     25  O   UNL     1      -1.623   0.969  -2.251  0.00  0.00    -0.270 OA
ATOM     26  N   UNL     1      -1.397  -0.920  -3.397  0.00  0.00    -0.325 N 
ATOM     27  H   UNL     1      -1.087  -1.838  -3.421  0.00  0.00    +0.145 HD
ATOM     28  H   UNL     1      -1.827  -0.533  -4.176  0.00  0.00    +0.145 HD
ENDBRANCH  19  24
ENDBRANCH   1  23
TORSDOF 5
