REMARK  Name = ZINC12794523
REMARK  7 active torsions:
REMARK  status: ('A' for Active; 'I' for Inactive)
REMARK    1  A    between atoms: C_1  and  C_2
REMARK    2  A    between atoms: C_2  and  C_4
REMARK    3  A    between atoms: C_2  and  N_51
REMARK    4  A    between atoms: C_11  and  C_12
REMARK    5  A    between atoms: C_11  and  N_51
REMARK    6  A    between atoms: C_12  and  C_13
REMARK    7  A    between atoms: N_15  and  N_16
REMARK                            x       y       z     vdW  Elec       q    Type
REMARK                         _______ _______ _______ _____ _____    ______ ____
ROOT
ATOM      1  C   UNL     1      -0.754   3.465   1.277  0.00  0.00    +0.228 C 
ATOM      2  O   UNL     1      -0.246   4.083   0.366  0.00  0.00    -0.274 OA
ATOM      3  N   UNL     1      -1.337   4.125   2.297  0.00  0.00    -0.224 N 
ATOM      4  H   UNL     1      -1.744   3.631   3.026  0.00  0.00    +0.174 HD
ENDROOT
BRANCH   3   5
ATOM      5  N   UNL     1      -1.356   5.526   2.305  0.00  0.00    -0.137 N 
ATOM      6  C   UNL     1      -2.447   6.271   2.030  0.00  0.00    +0.263 C 
ATOM      7  O   UNL     1      -3.555   5.872   1.742  0.00  0.00    -0.271 OA
ATOM      8  C   UNL     1      -1.997   7.709   2.159  0.00  0.00    +0.114 C 
ATOM      9  C   UNL     1      -2.783   8.415   3.259  0.00  0.00    +0.035 C 
ATOM     10  C   UNL     1      -2.293   9.859   3.393  0.00  0.00    +0.003 C 
ATOM     11  C   UNL     1      -2.483  10.586   2.060  0.00  0.00    +0.000 C 
ATOM     12  C   UNL     1      -1.670   9.881   0.973  0.00  0.00    +0.003 C 
ATOM     13  C   UNL     1      -2.157   8.437   0.829  0.00  0.00    +0.035 C 
ATOM     14  N   UNL     1      -0.579   7.607   2.524  0.00  0.00    -0.284 N 
ATOM     15  C   UNL     1      -0.296   6.292   2.591  0.00  0.00    +0.326 C 
ATOM     16  O   UNL     1       0.800   5.849   2.876  0.00  0.00    -0.251 OA
ATOM     17  H   UNL     1       0.033   8.341   2.688  0.00  0.00    +0.151 HD
ENDBRANCH   3   5
BRANCH   1  18
ATOM     18  C   UNL     1      -0.734   1.958   1.269  0.00  0.00    +0.078 C 
BRANCH  18  19
ATOM     19  C   UNL     1      -0.018   1.465   0.010  0.00  0.00    -0.072 C 
BRANCH  19  20
ATOM     20  N   UNL     1      -0.002  -0.010   0.010  0.00  0.00    +0.384 N 
ATOM     21  H   UNL     1       0.492  -0.344   0.845  0.00  0.00    -0.085 HD
ATOM     22  H   UNL     1      -0.968  -0.359   0.021  0.00  0.00    -0.085 HD
BRANCH  20  24
ATOM     23  C   UNL     1       2.192  -0.561  -0.943  0.00  0.00    -0.009 C 
ATOM     24  C   UNL     1       0.683  -0.515  -1.195  0.00  0.00    -0.043 C 
BRANCH  24  25
ATOM     25  C   UNL     1       0.183  -1.902  -1.504  0.00  0.00    -0.043 A 
ATOM     26  C   UNL     1      -0.432  -2.651  -0.519  0.00  0.00    +0.003 A 
ATOM     27  C   UNL     1      -0.895  -3.922  -0.803  0.00  0.00    +0.000 A 
ATOM     28  C   UNL     1      -0.734  -4.449  -2.072  0.00  0.00    +0.001 A 
ATOM     29  C   UNL     1      -0.115  -3.703  -3.057  0.00  0.00    +0.020 A 
ATOM     30  C   UNL     1       0.344  -2.429  -2.773  0.00  0.00    +0.043 A 
ATOM     31 CL   UNL     1       1.123  -1.492  -4.010  0.00  0.00    -0.083 Cl
ENDBRANCH  24  25
ENDBRANCH  20  24
ENDBRANCH  19  20
ENDBRANCH  18  19
ENDBRANCH   1  18
TORSDOF 6
