REMARK  Name = ZINC67417806
REMARK  8 active torsions:
REMARK  status: ('A' for Active; 'I' for Inactive)
REMARK    1  A    between atoms: C_1  and  C_2
REMARK    2  A    between atoms: C_7  and  N_12
REMARK    3  A    between atoms: C_9  and  C_11
REMARK    4  A    between atoms: C_13  and  C_15
REMARK    5  A    between atoms: C_15  and  N_16
REMARK    6  A    between atoms: C_20  and  C_23
REMARK    7  A    between atoms: C_23  and  N_24
REMARK    8  A    between atoms: C_25  and  C_27
REMARK                            x       y       z     vdW  Elec       q    Type
REMARK                         _______ _______ _______ _____ _____    ______ ____
ROOT
ATOM      1  C   UNL     1       1.363  -0.333   6.074  0.00  0.00    +0.019 C 
ENDROOT
BRANCH   1   2
ATOM      2  N   UNL     1       1.093   0.564   7.206  0.00  0.00    +0.386 N 
ATOM      3  C   UNL     1       1.655   1.890   6.922  0.00  0.00    -0.078 C 
ATOM      4  C   UNL     1       1.307   2.849   8.062  0.00  0.00    -0.018 C 
ATOM      5  C   UNL     1       1.894   2.313   9.371  0.00  0.00    +0.001 C 
ATOM      6  C   UNL     1       1.358   0.900   9.618  0.00  0.00    -0.011 C 
ATOM      7  C   UNL     1       1.704   0.013   8.421  0.00  0.00    -0.073 C 
ATOM      8  H   UNL     1       0.096   0.645   7.339  0.00  0.00    -0.081 HD
BRANCH   6   9
ATOM      9  C   UNL     1       1.998   0.325  10.884  0.00  0.00    +0.105 C 
BRANCH   9  10
ATOM     10  N   UNL     1       1.573   1.109  12.046  0.00  0.00    -0.315 N 
ATOM     11  C   UNL     1       2.015   0.784  13.277  0.00  0.00    +0.210 C 
ATOM     12  O   UNL     1       2.764  -0.158  13.422  0.00  0.00    -0.276 OA
ATOM     13  C   UNL     1       1.577   1.591  14.472  0.00  0.00    +0.109 C 
ATOM     14  H   UNL     1       0.973   1.863  11.929  0.00  0.00    +0.149 HD
ENDBRANCH   9  10
ENDBRANCH   6   9
ENDBRANCH   1   2
BRANCH   1  16
ATOM     15  N   UNL     1       0.735  -0.503   3.687  0.00  0.00    -0.314 N 
ATOM     16  C   UNL     1       0.634   0.166   4.853  0.00  0.00    +0.197 C 
ATOM     17  O   UNL     1      -0.044   1.170   4.919  0.00  0.00    -0.278 OA
ATOM     18  H   UNL     1       1.276  -1.306   3.634  0.00  0.00    +0.149 HD
BRANCH  15  24
ATOM     19  C   UNL     1      -0.019   1.526   0.010  0.00  0.00    +0.008 C 
ATOM     20  C   UNL     1       0.002  -0.004   0.002  0.00  0.00    -0.009 C 
ATOM     21  C   UNL     1      -1.433  -0.534   0.013  0.00  0.00    +0.003 C 
ATOM     22  C   UNL     1      -2.149  -0.040   1.272  0.00  0.00    +0.002 C 
ATOM     23  C   UNL     1      -1.409  -0.547   2.511  0.00  0.00    +0.022 C 
ATOM     24  C   UNL     1       0.026  -0.018   2.500  0.00  0.00    +0.076 C 
ATOM     25  C   UNL     1       0.742  -0.511   1.242  0.00  0.00    +0.009 C 
ATOM     26  C   UNL     1       2.178   0.019   1.231  0.00  0.00    +0.009 C 
ENDBRANCH  15  24
ENDBRANCH   1  16
TORSDOF 5
