REMARK  Name = ZINC63900737
REMARK  8 active torsions:
REMARK  status: ('A' for Active; 'I' for Inactive)
REMARK    1  A    between atoms: C_1  and  C_2
REMARK    2  A    between atoms: C_2  and  C_4
REMARK    3  A    between atoms: C_2  and  O_10
REMARK    4  A    between atoms: O_10  and  C_11
REMARK    5  A    between atoms: C_11  and  C_13
REMARK    6  A    between atoms: C_13  and  C_14
REMARK    7  A    between atoms: C_14  and  C_15
REMARK    8  A    between atoms: C_15  and  C_16
REMARK                            x       y       z     vdW  Elec       q    Type
REMARK                         _______ _______ _______ _____ _____    ______ ____
ROOT
ATOM      1  C   UNL     1      -1.899  -0.716   1.212  0.00  0.00    +0.308 C 
ATOM      2  O   UNL     1      -1.272  -0.494   2.221  0.00  0.00    -0.251 OA
ENDROOT
BRANCH   1   3
ATOM      3  O   UNL     1      -1.339  -0.499   0.012  0.00  0.00    -0.452 OA
BRANCH   3   5
ATOM      4  C   UNL     1      -0.019   1.526   0.010  0.00  0.00    +0.062 C 
ATOM      5  C   UNL     1       0.002  -0.004   0.002  0.00  0.00    +0.259 C 
BRANCH   5   6
ATOM      6  C   UNL     1       0.707  -0.490  -1.238  0.00  0.00    +0.261 C 
ATOM      7  O   UNL     1       0.096  -1.114  -2.078  0.00  0.00    -0.271 OA
ATOM      8  N   UNL     1       2.018  -0.231  -1.413  0.00  0.00    -0.237 N 
ATOM      9  C   UNL     1       2.649  -0.665  -2.522  0.00  0.00    +0.303 C 
ATOM     10  O   UNL     1       2.036  -1.291  -3.364  0.00  0.00    -0.253 OA
ATOM     11  N   UNL     1       3.960  -0.406  -2.696  0.00  0.00    -0.313 N 
ATOM     12  H   UNL     1       2.508   0.269  -0.741  0.00  0.00    +0.159 HD
ATOM     13  H   UNL     1       4.450   0.093  -2.024  0.00  0.00    +0.146 HD
ATOM     14  H   UNL     1       4.414  -0.719  -3.494  0.00  0.00    +0.146 HD
ENDBRANCH   5   6
ENDBRANCH   3   5
ENDBRANCH   1   3
BRANCH   1  15
ATOM     15  C   UNL     1      -3.310  -1.237   1.302  0.00  0.00    +0.121 C 
BRANCH  15  16
ATOM     16  C   UNL     1      -3.703  -1.395   2.772  0.00  0.00    +0.015 C 
BRANCH  16  17
ATOM     17  C   UNL     1      -5.136  -1.925   2.863  0.00  0.00    +0.034 C 
BRANCH  17  18
ATOM     18  C   UNL     1      -5.523  -2.080   4.311  0.00  0.00    -0.042 C 
ATOM     19  C   UNL     1      -6.194  -1.188   5.074  0.00  0.00    -0.001 A 
ATOM     20  C   UNL     1      -6.742   0.145   4.795  0.00  0.00    +0.010 A 
ATOM     21  C   UNL     1      -7.378   0.813   5.784  0.00  0.00    +0.001 A 
ATOM     22  C   UNL     1      -7.525   0.267   7.067  0.00  0.00    +0.002 A 
ATOM     23  C   UNL     1      -7.048  -0.952   7.399  0.00  0.00    +0.026 A 
ATOM     24  C   UNL     1      -6.363  -1.743   6.436  0.00  0.00    +0.043 A 
ATOM     25  N   UNL     1      -5.817  -2.932   6.512  0.00  0.00    -0.380 N 
ATOM     26  C   UNL     1      -5.245  -3.269   5.204  0.00  0.00    +0.144 C 
ATOM     27  H   UNL     1      -5.798  -3.497   7.301  0.00  0.00    +0.160 HD
ENDBRANCH  17  18
ENDBRANCH  16  17
ENDBRANCH  15  16
ENDBRANCH   1  15
TORSDOF 7
