REMARK  Name = ZINC41152614
REMARK  8 active torsions:
REMARK  status: ('A' for Active; 'I' for Inactive)
REMARK    1  A    between atoms: C_1  and  C_2
REMARK    2  A    between atoms: C_2  and  C_3
REMARK    3  A    between atoms: C_3  and  C_4
REMARK    4  A    between atoms: C_3  and  C_5
REMARK    5  A    between atoms: C_3  and  N_20
REMARK    6  A    between atoms: C_7  and  C_10
REMARK    7  A    between atoms: C_13  and  O_16
REMARK    8  A    between atoms: O_16  and  C_17
REMARK                            x       y       z     vdW  Elec       q    Type
REMARK                         _______ _______ _______ _____ _____    ______ ____
ROOT
ATOM      1  C   UNL     1      -1.414  -2.036   0.129  0.00  0.00    +0.161 A 
ATOM      2  N   UNL     1      -1.971  -2.744   1.113  0.00  0.00    -0.193 NA
ATOM      3  C   UNL     1      -1.771  -4.028   0.912  0.00  0.00    +0.258 A 
ATOM      4  O   UNL     1      -1.069  -4.166  -0.227  0.00  0.00    -0.333 OA
ATOM      5  N   UNL     1      -0.854  -2.852  -0.720  0.00  0.00    -0.062 NA
ENDROOT
BRANCH   3   6
ATOM      6  C   UNL     1      -2.236  -5.126   1.784  0.00  0.00    +0.040 A 
ATOM      7  C   UNL     1      -2.964  -4.840   2.941  0.00  0.00    +0.017 A 
ATOM      8  C   UNL     1      -3.396  -5.867   3.751  0.00  0.00    +0.046 A 
ATOM      9  C   UNL     1      -3.108  -7.185   3.418  0.00  0.00    +0.127 A 
ATOM     10  C   UNL     1      -2.384  -7.473   2.268  0.00  0.00    +0.046 A 
ATOM     11  C   UNL     1      -1.953  -6.452   1.450  0.00  0.00    +0.017 A 
BRANCH   9  12
ATOM     12  O   UNL     1      -3.536  -8.195   4.220  0.00  0.00    -0.434 OA
BRANCH  12  13
ATOM     13  C   UNL     1      -3.205  -9.526   3.819  0.00  0.00    +0.541 C 
ATOM     14  F   UNL     1      -3.759  -9.785   2.560  0.00  0.00    -0.166 F 
ATOM     15  F   UNL     1      -1.814  -9.661   3.753  0.00  0.00    -0.166 F 
ENDBRANCH  12  13
ENDBRANCH   9  12
ENDBRANCH   3   6
BRANCH   1  16
ATOM     16  C   UNL     1      -1.433  -0.534   0.013  0.00  0.00    -0.009 C 
ATOM     17  C   UNL     1      -2.135  -0.131  -1.286  0.00  0.00    -0.003 C 
BRANCH  16  18
ATOM     18  N   UNL     1      -2.157   0.036   1.157  0.00  0.00    +0.386 N 
ATOM     19  H   UNL     1      -2.170   1.042   1.080  0.00  0.00    -0.089 HD
ATOM     20  H   UNL     1      -3.103  -0.313   1.165  0.00  0.00    -0.089 HD
ATOM     21  H   UNL     1      -1.694  -0.229   2.014  0.00  0.00    -0.089 HD
ENDBRANCH  16  18
BRANCH  16  23
ATOM     22  C   UNL     1      -0.019   1.526   0.010  0.00  0.00    +0.003 C 
ATOM     23  C   UNL     1       0.002  -0.004   0.002  0.00  0.00    -0.009 C 
ENDBRANCH  16  23
ENDBRANCH   1  16
TORSDOF 6
