REMARK  Name = ZINC34665615
REMARK  9 active torsions:
REMARK  status: ('A' for Active; 'I' for Inactive)
REMARK    1  A    between atoms: C_1  and  C_2
REMARK    2  A    between atoms: C_2  and  O_3
REMARK    3  A    between atoms: O_3  and  C_4
REMARK    4  A    between atoms: C_7  and  O_10
REMARK    5  A    between atoms: O_10  and  C_11
REMARK    6  A    between atoms: C_16  and  C_17
REMARK    7  A    between atoms: C_17  and  C_19
REMARK    8  A    between atoms: C_17  and  N_20
REMARK    9  A    between atoms: N_20  and  C_21
REMARK                            x       y       z     vdW  Elec       q    Type
REMARK                         _______ _______ _______ _____ _____    ______ ____
ROOT
ATOM      1  C   UNL     1      -3.246  -6.442   0.097  0.00  0.00    +0.130 A 
ATOM      2  C   UNL     1      -4.331  -5.577   0.099  0.00  0.00    +0.049 A 
ATOM      3  C   UNL     1      -5.613  -6.080   0.209  0.00  0.00    +0.042 A 
ATOM      4  C   UNL     1      -5.815  -7.446   0.318  0.00  0.00    +0.124 A 
ATOM      5  C   UNL     1      -4.733  -8.309   0.316  0.00  0.00    +0.044 A 
ATOM      6  C   UNL     1      -3.450  -7.810   0.200  0.00  0.00    -0.017 A 
ATOM      7  F   UNL     1      -7.069  -7.936   0.426  0.00  0.00    -0.205 F 
ENDROOT
BRANCH   6   8
ATOM      8  C   UNL     1      -2.272  -8.751   0.191  0.00  0.00    -0.041 C 
ATOM      9  C   UNL     1      -1.710  -8.876   1.608  0.00  0.00    -0.009 C 
BRANCH   8  10
ATOM     10  N   UNL     1      -2.705 -10.072  -0.283  0.00  0.00    +0.382 N 
ATOM     11  C   UNL     1      -1.537 -10.954  -0.406  0.00  0.00    -0.100 C 
ATOM     12  H   UNL     1      -3.359 -10.468   0.375  0.00  0.00    -0.085 HD
ATOM     13  H   UNL     1      -3.151  -9.977  -1.184  0.00  0.00    -0.085 HD
ENDBRANCH   8  10
ENDBRANCH   6   8
BRANCH   1  14
ATOM     14  O   UNL     1      -1.984  -5.948  -0.011  0.00  0.00    -0.456 OA
BRANCH  14  18
ATOM     15  C   UNL     1      -1.490  -1.851   0.067  0.00  0.00    +0.121 A 
ATOM     16  C   UNL     1      -1.917  -2.520   1.205  0.00  0.00    +0.049 A 
ATOM     17  C   UNL     1      -2.082  -3.891   1.179  0.00  0.00    +0.050 A 
ATOM     18  C   UNL     1      -1.821  -4.599   0.015  0.00  0.00    +0.129 A 
ATOM     19  C   UNL     1      -1.395  -3.929  -1.123  0.00  0.00    +0.050 A 
ATOM     20  C   UNL     1      -1.235  -2.558  -1.099  0.00  0.00    +0.049 A 
BRANCH  15  21
ATOM     21  O   UNL     1      -1.328  -0.501   0.093  0.00  0.00    -0.492 OA
BRANCH  21  23
ATOM     22  C   UNL     1      -1.371   1.665   1.164  0.00  0.00    +0.048 C 
ATOM     23  C   UNL     1      -1.608   0.163   1.327  0.00  0.00    +0.225 C 
ENDBRANCH  21  23
ENDBRANCH  15  21
ENDBRANCH  14  18
ENDBRANCH   1  14
TORSDOF 6
