REMARK  Name = ZINC24535140
REMARK  8 active torsions:
REMARK  status: ('A' for Active; 'I' for Inactive)
REMARK    1  A    between atoms: C_1  and  C_2
REMARK    2  A    between atoms: C_3  and  C_9
REMARK    3  A    between atoms: C_4  and  N_7
REMARK    4  A    between atoms: N_7  and  C_8
REMARK    5  A    between atoms: C_9  and  O_11
REMARK    6  A    between atoms: O_11  and  C_12
REMARK    7  A    between atoms: C_12  and  C_14
REMARK    8  A    between atoms: C_12  and  C_15
REMARK                            x       y       z     vdW  Elec       q    Type
REMARK                         _______ _______ _______ _____ _____    ______ ____
ROOT
ATOM      1  O   UNL     1      -3.862   4.901  -0.243  0.00  0.00    -0.449 OA
ENDROOT
BRANCH   1   2
ATOM      2  C   UNL     1      -5.150   5.030   0.136  0.00  0.00    +0.344 C 
ATOM      3  O   UNL     1      -5.741   4.082   0.616  0.00  0.00    -0.245 OA
BRANCH   2   6
ATOM      4  C   UNL     1      -5.121   7.067   2.262  0.00  0.00    +0.067 C 
ATOM      5  C   UNL     1      -5.840   7.295   0.958  0.00  0.00    +0.063 A 
ATOM      6  C   UNL     1      -5.838   6.313  -0.032  0.00  0.00    +0.109 A 
ATOM      7  C   UNL     1      -6.536   6.644  -1.200  0.00  0.00    +0.100 A 
ATOM      8  S   UNL     1      -7.123   8.231  -0.831  0.00  0.00    +0.027 S 
ATOM      9  N   UNL     1      -6.473   8.412   0.738  0.00  0.00    -0.213 NA
BRANCH   7  10
ATOM     10  N   UNL     1      -6.713   5.897  -2.347  0.00  0.00    -0.340 N 
ATOM     11  C   UNL     1      -7.489   6.443  -3.464  0.00  0.00    +0.126 C 
ATOM     12  H   UNL     1      -6.271   4.893  -2.423  0.00  0.00    +0.146 HD
ENDBRANCH   7  10
ENDBRANCH   2   6
ENDBRANCH   1   2
BRANCH   1  13
ATOM     13  C   UNL     1      -3.245   3.602  -0.047  0.00  0.00    +0.259 C 
ATOM     14  C   UNL     1      -3.455   2.744  -1.297  0.00  0.00    +0.062 C 
BRANCH  13  15
ATOM     15  C   UNL     1      -1.768   3.779   0.198  0.00  0.00    +0.264 C 
ATOM     16  O   UNL     1      -1.246   4.856   0.003  0.00  0.00    -0.271 OA
ATOM     17  N   UNL     1      -1.028   2.740   0.633  0.00  0.00    -0.221 N 
ATOM     18  C   UNL     1       0.433   2.747   0.803  0.00  0.00    +0.137 C 
ATOM     19  C   UNL     1       0.751   1.329   1.316  0.00  0.00    +0.125 C 
ATOM     20  N   UNL     1      -0.564   0.674   1.381  0.00  0.00    -0.297 N 
ATOM     21  C   UNL     1      -1.506   1.536   0.975  0.00  0.00    +0.309 C 
ATOM     22  O   UNL     1      -2.686   1.253   0.924  0.00  0.00    -0.252 OA
ATOM     23  H   UNL     1      -0.643  -0.368   1.725  0.00  0.00    +0.150 HD
ENDBRANCH  13  15
ENDBRANCH   1  13
TORSDOF 5
