REMARK  Name = ZINC15558589
REMARK  11 active torsions:
REMARK  status: ('A' for Active; 'I' for Inactive)
REMARK    1  A    between atoms: C_1  and  C_2
REMARK    2  A    between atoms: C_8  and  N_10
REMARK    3  A    between atoms: N_10  and  S_11
REMARK    4  A    between atoms: S_11  and  C_14
REMARK    5  A    between atoms: C_16  and  C_22
REMARK    6  A    between atoms: C_19  and  O_20
REMARK    7  A    between atoms: O_20  and  C_21
REMARK    8  A    between atoms: N_24  and  C_25
REMARK    9  A    between atoms: C_25  and  C_26
REMARK   10  A    between atoms: C_28  and  N_33
REMARK   11  A    between atoms: C_31  and  O_32
REMARK                            x       y       z     vdW  Elec       q    Type
REMARK                         _______ _______ _______ _____ _____    ______ ____
ROOT
ATOM      1  C   UNL     1       3.041  -1.095   3.582  0.00  0.00    +0.147 A 
ATOM      2  C   UNL     1       4.297  -1.586   3.862  0.00  0.00    +0.045 A 
ATOM      3  C   UNL     1       4.436  -2.766   4.597  0.00  0.00    +0.039 A 
ATOM      4  C   UNL     1       3.299  -3.444   5.046  0.00  0.00    +0.017 A 
ATOM      5  C   UNL     1       2.047  -2.947   4.762  0.00  0.00    +0.048 A 
ATOM      6  C   UNL     1       1.913  -1.769   4.035  0.00  0.00    +0.146 A 
ENDROOT
BRANCH   3   7
ATOM      7  C   UNL     1       5.780  -3.296   4.899  0.00  0.00    +0.244 C 
ATOM      8  O   UNL     1       6.768  -2.705   4.508  0.00  0.00    -0.270 OA
ATOM      9  N   UNL     1       5.912  -4.434   5.608  0.00  0.00    -0.307 N 
ATOM     10  H   UNL     1       5.124  -4.905   5.920  0.00  0.00    +0.149 HD
BRANCH   9  11
ATOM     11  C   UNL     1       7.247  -4.960   5.908  0.00  0.00    +0.143 C 
BRANCH  11  12
ATOM     12  C   UNL     1       7.118  -6.231   6.706  0.00  0.00    +0.013 A 
ATOM     13  C   UNL     1       7.352  -7.452   6.104  0.00  0.00    +0.041 A 
ATOM     14  C   UNL     1       7.234  -8.619   6.836  0.00  0.00    +0.127 A 
ATOM     15  C   UNL     1       6.882  -8.567   8.172  0.00  0.00    +0.036 A 
ATOM     16  C   UNL     1       6.648  -7.349   8.779  0.00  0.00    +0.048 A 
ATOM     17  C   UNL     1       6.771  -6.176   8.048  0.00  0.00    +0.122 A 
BRANCH  14  18
ATOM     18  N   UNL     1       7.484  -9.926   6.188  0.00  0.00    +0.056 N 
ATOM     19  O   UNL     1       7.791  -9.973   5.019  0.00  0.00    -0.126 OA
ATOM     20  O   UNL     1       7.381 -10.947   6.827  0.00  0.00    -0.126 OA
ENDBRANCH  14  18
BRANCH  17  21
ATOM     21  O   UNL     1       6.546  -4.976   8.644  0.00  0.00    -0.506 OA
ATOM     22  H   UNL     1       5.626  -4.680   8.598  0.00  0.00    +0.292 HD
ENDBRANCH  17  21
ENDBRANCH  11  12
ENDBRANCH   9  11
ENDBRANCH   3   7
BRANCH   1  23
ATOM     23  S   UNL     1       2.864   0.392   2.655  0.00  0.00    +0.062 S 
ATOM     24  O   UNL     1       4.176   0.820   2.319  0.00  0.00    -0.153 OA
ATOM     25  O   UNL     1       1.955   1.214   3.375  0.00  0.00    -0.153 OA
BRANCH  23  26
ATOM     26  N   UNL     1       2.116  -0.004   1.231  0.00  0.00    -0.187 NA
ATOM     27  H   UNL     1       2.589   0.100   0.390  0.00  0.00    +0.148 HD
BRANCH  26  34
ATOM     28  C   UNL     1      -0.019   1.526   0.010  0.00  0.00    +0.009 C 
ATOM     29  C   UNL     1       0.002  -0.004   0.002  0.00  0.00    +0.005 C 
ATOM     30  C   UNL     1       0.718  -0.497  -1.257  0.00  0.00    +0.005 C 
ATOM     31  C   UNL     1       0.739  -2.027  -1.265  0.00  0.00    +0.000 C 
ATOM     32  C   UNL     1       1.479  -2.534  -0.026  0.00  0.00    +0.002 C 
ATOM     33  C   UNL     1       0.763  -2.041   1.233  0.00  0.00    +0.020 C 
ATOM     34  C   UNL     1       0.742  -0.511   1.242  0.00  0.00    +0.079 C 
ENDBRANCH  26  34
ENDBRANCH  23  26
ENDBRANCH   1  23
BRANCH   6  35
ATOM     35  O   UNL     1       0.677  -1.280   3.762  0.00  0.00    -0.493 OA
ATOM     36  C   UNL     1      -0.439  -2.022   4.257  0.00  0.00    +0.277 C 
ENDBRANCH   6  35
TORSDOF 9
