REMARK  Name = ZINC35575450
REMARK  6 active torsions:
REMARK  status: ('A' for Active; 'I' for Inactive)
REMARK    1  A    between atoms: C_1  and  C_2
REMARK    2  A    between atoms: C_2  and  C_3
REMARK    3  A    between atoms: C_3  and  N_4
REMARK    4  A    between atoms: N_4  and  C_5
REMARK    5  A    between atoms: C_5  and  C_7
REMARK    6  A    between atoms: C_5  and  C_14
REMARK                            x       y       z     vdW  Elec       q    Type
REMARK                         _______ _______ _______ _____ _____    ______ ____
ROOT
ATOM      1  C   UNL     1       1.426  -2.440  -2.474  0.00  0.00    -0.010 C 
ENDROOT
BRANCH   1   2
ATOM      2  C   UNL     1       1.339  -3.943  -2.544  0.00  0.00    -0.053 A 
ATOM      3  C   UNL     1       1.477  -4.697  -1.393  0.00  0.00    +0.006 A 
ATOM      4  C   UNL     1       1.398  -6.075  -1.453  0.00  0.00    +0.050 A 
ATOM      5  C   UNL     1       1.181  -6.706  -2.668  0.00  0.00    +0.166 A 
ATOM      6  C   UNL     1       1.041  -5.946  -3.827  0.00  0.00    +0.166 A 
ATOM      7  C   UNL     1       1.116  -4.564  -3.759  0.00  0.00    +0.052 A 
ATOM      8  O   UNL     1       0.838  -6.791  -4.880  0.00  0.00    -0.453 OA
ATOM      9  C   UNL     1       1.260  -8.088  -4.419  0.00  0.00    +0.466 C 
ATOM     10  O   UNL     1       1.064  -8.026  -2.994  0.00  0.00    -0.453 OA
ENDBRANCH   1   2
BRANCH   1  11
ATOM     11  C   UNL     1       2.873  -2.022  -2.425  0.00  0.00    -0.057 A 
ATOM     12  C   UNL     1       3.572  -2.089  -1.234  0.00  0.00    +0.004 A 
ATOM     13  C   UNL     1       4.899  -1.706  -1.188  0.00  0.00    +0.020 A 
ATOM     14  C   UNL     1       5.528  -1.255  -2.335  0.00  0.00    +0.041 A 
ATOM     15  C   UNL     1       4.828  -1.188  -3.527  0.00  0.00    +0.020 A 
ATOM     16  C   UNL     1       3.502  -1.577  -3.572  0.00  0.00    +0.004 A 
ATOM     17 CL   UNL     1       7.195  -0.773  -2.279  0.00  0.00    -0.084 Cl
ENDBRANCH   1  11
BRANCH   1  18
ATOM     18  N   UNL     1       0.738  -1.966  -1.265  0.00  0.00    +0.386 N 
ATOM     19  H   UNL     1       1.226  -2.301  -0.447  0.00  0.00    -0.085 HD
ATOM     20  H   UNL     1      -0.208  -2.316  -1.258  0.00  0.00    -0.085 HD
BRANCH  18  21
ATOM     21  C   UNL     1       0.718  -0.497  -1.257  0.00  0.00    -0.082 C 
BRANCH  21  23
ATOM     22  C   UNL     1      -0.019   1.526   0.010  0.00  0.00    +0.002 C 
ATOM     23  C   UNL     1       0.002  -0.004   0.002  0.00  0.00    -0.022 C 
ENDBRANCH  21  23
ENDBRANCH  18  21
ENDBRANCH   1  18
TORSDOF 5
