REMARK  Name = ZINC06409802
REMARK  8 active torsions:
REMARK  status: ('A' for Active; 'I' for Inactive)
REMARK    1  A    between atoms: C_1  and  C_2
REMARK    2  A    between atoms: C_7  and  C_14
REMARK    3  A    between atoms: C_14  and  C_16
REMARK    4  A    between atoms: C_14  and  N_69
REMARK    5  A    between atoms: N_20  and  C_21
REMARK    6  A    between atoms: C_21  and  C_22
REMARK    7  A    between atoms: C_21  and  C_23
REMARK    8  A    between atoms: C_21  and  C_24
REMARK                            x       y       z     vdW  Elec       q    Type
REMARK                         _______ _______ _______ _____ _____    ______ ____
ROOT
ATOM      1  C   UNL     1      -4.770   1.156   0.210  0.00  0.00    +0.039 C 
ENDROOT
BRANCH   1   8
ATOM      2  C   UNL     1       2.514   4.297   1.044  0.00  0.00    +0.044 C 
ATOM      3  C   UNL     1       1.246   3.497   0.890  0.00  0.00    -0.048 A 
ATOM      4  C   UNL     1       1.310   2.111   0.845  0.00  0.00    +0.004 A 
ATOM      5  C   UNL     1       0.173   1.367   0.706  0.00  0.00    +0.010 A 
ATOM      6  C   UNL     1      -1.066   2.007   0.603  0.00  0.00    -0.001 A 
ATOM      7  C   UNL     1      -2.305   1.240   0.457  0.00  0.00    +0.017 A 
ATOM      8  C   UNL     1      -3.478   1.915   0.366  0.00  0.00    +0.011 A 
ATOM      9  C   UNL     1      -3.492   3.325   0.417  0.00  0.00    +0.251 A 
ATOM     10  O   UNL     1      -4.557   3.912   0.333  0.00  0.00    -0.268 OA
ATOM     11  N   UNL     1      -2.360   4.038   0.555  0.00  0.00    -0.322 N 
ATOM     12  H   UNL     1      -2.406   5.006   0.586  0.00  0.00    +0.169 HD
ATOM     13  C   UNL     1      -1.136   3.412   0.653  0.00  0.00    +0.049 A 
ATOM     14  C   UNL     1       0.036   4.149   0.795  0.00  0.00    +0.029 A 
ENDBRANCH   1   8
BRANCH   1  25
ATOM     15  C   UNL     1      -4.594   1.643  -2.155  0.00  0.00    -0.077 C 
ATOM     16  C   UNL     1      -5.318   2.283  -3.341  0.00  0.00    -0.018 C 
ATOM     17  C   UNL     1      -6.591   1.488  -3.644  0.00  0.00    +0.003 C 
ATOM     18  C   UNL     1      -7.473   1.455  -2.394  0.00  0.00    -0.044 C 
ATOM     19  C   UNL     1      -6.687   0.840  -1.235  0.00  0.00    -0.071 C 
ATOM     20  C   UNL     1      -7.890   2.881  -2.028  0.00  0.00    +0.005 C 
ATOM     21  C   UNL     1      -8.774   2.850  -0.779  0.00  0.00    +0.000 C 
ATOM     22  C   UNL     1     -10.021   2.009  -1.059  0.00  0.00    +0.000 C 
ATOM     23  C   UNL     1      -9.604   0.583  -1.423  0.00  0.00    +0.000 C 
ATOM     24  C   UNL     1      -8.720   0.613  -2.671  0.00  0.00    +0.005 C 
ATOM     25  N   UNL     1      -5.487   1.665  -0.977  0.00  0.00    +0.390 N 
ATOM     26  H   UNL     1      -5.781   2.633  -0.800  0.00  0.00    -0.080 HD
ENDBRANCH   1  25
BRANCH   1  27
ATOM     27  C   UNL     1      -5.631   1.374   1.428  0.00  0.00    +0.143 A 
ATOM     28  N   UNL     1      -6.209   2.494   1.787  0.00  0.00    -0.115 NA
ATOM     29  N   UNL     1      -6.857   2.276   2.879  0.00  0.00    -0.023 NA
ATOM     30  N   UNL     1      -6.700   1.047   3.230  0.00  0.00    -0.043 NA
ATOM     31  N   UNL     1      -5.951   0.458   2.361  0.00  0.00    -0.225 N 
BRANCH  31  32
ATOM     32  C   UNL     1      -5.527  -0.944   2.384  0.00  0.00    +0.059 C 
ATOM     33  C   UNL     1      -3.999  -1.016   2.382  0.00  0.00    +0.036 C 
ATOM     34  C   UNL     1      -6.068  -1.619   3.647  0.00  0.00    +0.036 C 
ATOM     35  C   UNL     1      -6.074  -1.663   1.148  0.00  0.00    +0.036 C 
ENDBRANCH  31  32
ENDBRANCH   1  27
TORSDOF 4
