REMARK  Name = ZINC36208036
REMARK  9 active torsions:
REMARK  status: ('A' for Active; 'I' for Inactive)
REMARK    1  A    between atoms: C_1  and  C_2
REMARK    2  A    between atoms: C_2  and  N_3
REMARK    3  A    between atoms: N_3  and  C_4
REMARK    4  A    between atoms: N_3  and  C_22
REMARK    5  A    between atoms: C_4  and  C_5
REMARK    6  A    between atoms: C_17  and  C_21
REMARK    7  A    between atoms: C_22  and  C_23
REMARK    8  A    between atoms: C_23  and  C_25
REMARK    9  A    between atoms: C_23  and  O_26
REMARK                            x       y       z     vdW  Elec       q    Type
REMARK                         _______ _______ _______ _____ _____    ______ ____
ROOT
ATOM      1  C   UNL     1       0.321   1.484   2.247  0.00  0.00    +0.094 A 
ATOM      2  N   UNL     1      -0.232   2.202   3.259  0.00  0.00    -0.312 N 
ATOM      3  H   UNL     1      -0.639   1.735   4.005  0.00  0.00    +0.170 HD
ATOM      4  C   UNL     1      -0.226   3.548   3.248  0.00  0.00    +0.260 A 
ATOM      5  O   UNL     1      -0.725   4.178   4.164  0.00  0.00    -0.267 OA
ATOM      6  C   UNL     1       0.378   4.228   2.140  0.00  0.00    +0.075 A 
ATOM      7  C   UNL     1       0.500   5.668   1.915  0.00  0.00    -0.023 A 
ATOM      8  C   UNL     1       1.118   6.060   0.781  0.00  0.00    -0.004 A 
ATOM      9  S   UNL     1       1.569   4.556  -0.041  0.00  0.00    -0.073 S 
ATOM     10  C   UNL     1       0.922   3.402   1.143  0.00  0.00    +0.116 A 
ATOM     11  N   UNL     1       0.883   2.075   1.227  0.00  0.00    -0.229 NA
ATOM     12  C   UNL     1       1.366   7.465   0.322  0.00  0.00    +0.046 C 
ATOM     13  C   UNL     1       0.483   8.408   1.151  0.00  0.00    -0.009 C 
ATOM     14  C   UNL     1       0.629   8.044   2.631  0.00  0.00    +0.008 C 
ATOM     15  C   UNL     1      -0.042   6.697   2.903  0.00  0.00    +0.037 C 
ATOM     16  C   UNL     1       0.928   9.855   0.928  0.00  0.00    +0.008 C 
ENDROOT
BRANCH   1  17
ATOM     17  C   UNL     1       0.290  -0.021   2.305  0.00  0.00    -0.003 C 
BRANCH  17  18
ATOM     18  N   UNL     1       0.817  -0.571   1.049  0.00  0.00    +0.386 N 
ATOM     19  H   UNL     1       1.728  -0.178   0.866  0.00  0.00    -0.081 HD
BRANCH  18  21
ATOM     20  C   UNL     1      -1.429  -0.946   0.148  0.00  0.00    -0.017 C 
ATOM     21  C   UNL     1      -0.092  -0.230  -0.054  0.00  0.00    -0.082 C 
ENDBRANCH  18  21
BRANCH  18  22
ATOM     22  C   UNL     1       0.926  -2.031   1.160  0.00  0.00    -0.047 C 
BRANCH  22  23
ATOM     23  C   UNL     1       1.627  -2.587  -0.081  0.00  0.00    +0.095 C 
ATOM     24  C   UNL     1       1.895  -4.081   0.110  0.00  0.00    +0.035 C 
BRANCH  23  25
ATOM     25  O   UNL     1       0.793  -2.395  -1.225  0.00  0.00    -0.394 OA
ATOM     26  H   UNL     1       1.175  -2.724  -2.050  0.00  0.00    +0.210 HD
ENDBRANCH  23  25
ENDBRANCH  22  23
ENDBRANCH  18  22
ENDBRANCH  17  18
ENDBRANCH   1  17
TORSDOF 6
