REMARK  Name = ZINC44930252
REMARK  9 active torsions:
REMARK  status: ('A' for Active; 'I' for Inactive)
REMARK    1  A    between atoms: C_1  and  C_2
REMARK    2  A    between atoms: C_5  and  O_21
REMARK    3  A    between atoms: C_6  and  C_8
REMARK    4  A    between atoms: C_8  and  C_10
REMARK    5  A    between atoms: C_8  and  O_20
REMARK    6  A    between atoms: C_10  and  N_11
REMARK    7  A    between atoms: N_11  and  C_12
REMARK    8  A    between atoms: C_12  and  C_19
REMARK    9  A    between atoms: O_21  and  C_22
REMARK                            x       y       z     vdW  Elec       q    Type
REMARK                         _______ _______ _______ _____ _____    ______ ____
ROOT
ATOM      1  C   UNL     1       0.052  -2.841   2.493  0.00  0.00    +0.131 C 
ENDROOT
BRANCH   1   7
ATOM      2  C   UNL     1      -0.018   1.503   0.010  0.00  0.00    +0.044 C 
ATOM      3  C   UNL     1       0.002  -0.004   0.002  0.00  0.00    -0.050 A 
ATOM      4  C   UNL     1       0.006  -0.688  -1.200  0.00  0.00    +0.007 A 
ATOM      5  C   UNL     1       0.024  -2.069  -1.210  0.00  0.00    +0.046 A 
ATOM      6  C   UNL     1       0.039  -2.770  -0.013  0.00  0.00    +0.126 A 
ATOM      7  C   UNL     1       0.036  -2.082   1.191  0.00  0.00    +0.021 A 
ATOM      8  C   UNL     1       0.023  -0.701   1.196  0.00  0.00    +0.013 A 
BRANCH   6   9
ATOM      9  O   UNL     1       0.057  -4.129  -0.021  0.00  0.00    -0.495 OA
ATOM     10  C   UNL     1       0.058  -4.771  -1.298  0.00  0.00    +0.277 C 
ENDBRANCH   6   9
ENDBRANCH   1   7
BRANCH   1  11
ATOM     11  O   UNL     1       0.616  -2.018   3.517  0.00  0.00    -0.389 OA
ATOM     12  H   UNL     1       0.131  -1.196   3.672  0.00  0.00    +0.210 HD
ENDBRANCH   1  11
BRANCH   1  13
ATOM     13  C   UNL     1      -1.378  -3.225   2.878  0.00  0.00    -0.045 C 
BRANCH  13  14
ATOM     14  N   UNL     1      -1.362  -3.965   4.147  0.00  0.00    +0.386 N 
ATOM     15  H   UNL     1      -0.806  -4.800   4.042  0.00  0.00    -0.085 HD
ATOM     16  H   UNL     1      -0.964  -3.384   4.870  0.00  0.00    -0.085 HD
BRANCH  14  17
ATOM     17  C   UNL     1      -2.735  -4.334   4.516  0.00  0.00    -0.050 C 
ATOM     18  C   UNL     1      -3.585  -3.065   4.572  0.00  0.00    +0.011 C 
ATOM     19  C   UNL     1      -4.753  -3.243   5.582  0.00  0.00    +0.164 C 
ATOM     20  S   UNL     1      -3.870  -4.170   6.913  0.00  0.00    -0.032 S 
ATOM     21  O   UNL     1      -3.141  -3.252   7.717  0.00  0.00    -0.174 OA
ATOM     22  O   UNL     1      -4.774  -5.078   7.528  0.00  0.00    -0.174 OA
ATOM     23  C   UNL     1      -2.697  -5.107   5.848  0.00  0.00    +0.153 C 
ATOM     24  C   UNL     1      -3.303  -5.252   3.431  0.00  0.00    -0.009 C 
ENDBRANCH  14  17
ENDBRANCH  13  14
ENDBRANCH   1  13
TORSDOF 6
