REMARK  Name = ZINC17080611
REMARK  7 active torsions:
REMARK  status: ('A' for Active; 'I' for Inactive)
REMARK    1  A    between atoms: C_1  and  C_2
REMARK    2  A    between atoms: C_2  and  C_3
REMARK    3  A    between atoms: C_3  and  O_4
REMARK    4  A    between atoms: O_4  and  C_5
REMARK    5  A    between atoms: C_8  and  C_11
REMARK    6  A    between atoms: C_27  and  C_29
REMARK    7  A    between atoms: C_27  and  C_30
REMARK                            x       y       z     vdW  Elec       q    Type
REMARK                         _______ _______ _______ _____ _____    ______ ____
ROOT
ATOM      1  C   UNL     1      -2.151   2.563   7.438  0.00  0.00    +0.092 C 
ATOM      2  C   UNL     1      -2.139   4.058   7.560  0.00  0.00    +0.069 A 
ATOM      3  C   UNL     1      -0.944   4.735   7.835  0.00  0.00    +0.259 A 
ATOM      4  O   UNL     1       0.101   4.120   7.981  0.00  0.00    -0.267 OA
ATOM      5  N   UNL     1      -0.970   6.081   7.934  0.00  0.00    -0.295 N 
ATOM      6  H   UNL     1      -0.153   6.568   8.126  0.00  0.00    +0.172 HD
ATOM      7  C   UNL     1      -2.139   6.756   7.766  0.00  0.00    +0.195 A 
ATOM      8  N   UNL     1      -3.265   6.125   7.508  0.00  0.00    -0.201 NA
ATOM      9  C   UNL     1      -3.300   4.792   7.403  0.00  0.00    +0.136 A 
ATOM     10  N   UNL     1      -4.489   4.141   7.138  0.00  0.00    -0.302 N 
ATOM     11  C   UNL     1      -4.629   2.808   7.411  0.00  0.00    +0.017 C 
ATOM     12  C   UNL     1      -3.549   2.013   7.563  0.00  0.00    +0.024 C 
ATOM     13  C   UNL     1      -3.692   0.642   7.840  0.00  0.00    +0.162 C 
ATOM     14  O   UNL     1      -2.700  -0.042   7.991  0.00  0.00    -0.292 OA
ATOM     15  C   UNL     1      -5.050   0.005   7.955  0.00  0.00    +0.086 C 
ATOM     16  C   UNL     1      -6.042   0.789   7.088  0.00  0.00    -0.023 C 
ATOM     17  C   UNL     1      -6.027   2.252   7.540  0.00  0.00    +0.058 C 
ATOM     18  C   UNL     1      -5.625   0.700   5.619  0.00  0.00    +0.011 C 
ATOM     19  C   UNL     1      -7.447   0.210   7.262  0.00  0.00    +0.011 C 
ATOM     20  N   UNL     1      -2.144   8.122   7.865  0.00  0.00    -0.329 N 
ATOM     21  H   UNL     1      -5.231   4.634   6.754  0.00  0.00    +0.153 HD
ATOM     22  H   UNL     1      -2.972   8.614   7.747  0.00  0.00    +0.145 HD
ATOM     23  H   UNL     1      -1.320   8.598   8.054  0.00  0.00    +0.145 HD
ENDROOT
BRANCH   1  27
ATOM     24  C   UNL     1      -0.547   1.458   3.634  0.00  0.00    +0.121 A 
ATOM     25  C   UNL     1      -1.686   2.247   3.705  0.00  0.00    +0.046 A 
ATOM     26  C   UNL     1      -2.205   2.598   4.936  0.00  0.00    +0.008 A 
ATOM     27  C   UNL     1      -1.585   2.173   6.097  0.00  0.00    -0.035 A 
ATOM     28  C   UNL     1      -0.447   1.391   6.028  0.00  0.00    +0.008 A 
ATOM     29  C   UNL     1       0.073   1.032   4.800  0.00  0.00    +0.046 A 
BRANCH  24  30
ATOM     30  O   UNL     1      -0.038   1.106   2.425  0.00  0.00    -0.492 OA
BRANCH  30  31
ATOM     31  C   UNL     1      -0.729   1.579   1.267  0.00  0.00    +0.229 C 
BRANCH  31  33
ATOM     32  C   UNL     1      -0.753   1.593  -1.232  0.00  0.00    +0.007 C 
ATOM     33  C   UNL     1      -0.013   1.086   0.008  0.00  0.00    +0.038 C 
ENDBRANCH  31  33
ENDBRANCH  30  31
ENDBRANCH  24  30
ENDBRANCH   1  27
TORSDOF 4
