REMARK  Name = ZINC53860902
REMARK  7 active torsions:
REMARK  status: ('A' for Active; 'I' for Inactive)
REMARK    1  A    between atoms: C_1  and  C_2
REMARK    2  A    between atoms: C_2  and  N_3
REMARK    3  A    between atoms: N_3  and  C_4
REMARK    4  A    between atoms: C_8  and  C_21
REMARK    5  A    between atoms: C_11  and  C_13
REMARK    6  A    between atoms: C_13  and  N_14
REMARK    7  A    between atoms: C_17  and  C_20
REMARK                            x       y       z     vdW  Elec       q    Type
REMARK                         _______ _______ _______ _____ _____    ______ ____
ROOT
ATOM      1  C   UNL     1       0.733  -1.960   1.184  0.00  0.00    -0.070 C 
ATOM      2  C   UNL     1      -0.696  -2.490   1.321  0.00  0.00    -0.015 C 
ATOM      3  C   UNL     1      -1.300  -1.995   2.636  0.00  0.00    +0.002 C 
ATOM      4  C   UNL     1      -0.455  -2.500   3.807  0.00  0.00    -0.014 C 
ATOM      5  C   UNL     1       0.974  -1.970   3.671  0.00  0.00    +0.003 C 
ATOM      6  C   UNL     1       1.578  -2.465   2.355  0.00  0.00    -0.042 C 
ATOM      7  C   UNL     1      -1.059  -2.006   5.123  0.00  0.00    +0.007 C 
ENDROOT
BRANCH   1   8
ATOM      8  N   UNL     1       0.713  -0.491   1.192  0.00  0.00    +0.381 N 
ATOM      9  H   UNL     1       1.659  -0.141   1.185  0.00  0.00    -0.086 HD
ATOM     10  H   UNL     1       0.240  -0.165   2.022  0.00  0.00    -0.086 HD
BRANCH   8  12
ATOM     11  C   UNL     1      -0.019   1.526   0.010  0.00  0.00    -0.017 C 
ATOM     12  C   UNL     1       0.002  -0.004   0.002  0.00  0.00    -0.086 C 
ENDBRANCH   8  12
ENDBRANCH   1   8
BRANCH   6  13
ATOM     13  C   UNL     1       3.007  -1.934   2.218  0.00  0.00    -0.077 C 
BRANCH  13  14
ATOM     14  N   UNL     1       3.847  -2.515   3.274  0.00  0.00    +0.380 N 
ATOM     15  C   UNL     1       3.942  -3.966   3.079  0.00  0.00    -0.079 C 
ATOM     16  C   UNL     1       4.750  -4.586   4.222  0.00  0.00    -0.016 C 
ATOM     17  C   UNL     1       6.155  -3.978   4.235  0.00  0.00    -0.018 C 
ATOM     18  C   UNL     1       6.041  -2.456   4.364  0.00  0.00    -0.016 C 
ATOM     19  C   UNL     1       5.186  -1.915   3.216  0.00  0.00    -0.079 C 
ATOM     20  C   UNL     1       6.942  -4.535   5.423  0.00  0.00    +0.007 C 
ATOM     21  H   UNL     1       3.433  -2.325   4.175  0.00  0.00    -0.082 HD
ENDBRANCH  13  14
ENDBRANCH   6  13
TORSDOF 4
