REMARK  Name = ZINC63296181
REMARK  3 active torsions:
REMARK  status: ('A' for Active; 'I' for Inactive)
REMARK    1  A    between atoms: C_4  and  N_7
REMARK    2  A    between atoms: C_13  and  C_15
REMARK    3  A    between atoms: C_15  and  N_16
REMARK                            x       y       z     vdW  Elec       q    Type
REMARK                         _______ _______ _______ _____ _____    ______ ____
ROOT
ATOM      1  N   UNL     1       8.417  -4.395   1.163  0.00  0.00    -0.291 N 
ATOM      2  C   UNL     1       8.685  -5.713   1.248  0.00  0.00    +0.303 C 
ATOM      3  O   UNL     1       7.775  -6.519   1.264  0.00  0.00    -0.253 OA
ATOM      4  N   UNL     1       9.963  -6.138   1.314  0.00  0.00    -0.283 N 
ATOM      5  C   UNL     1      11.048  -5.159   1.421  0.00  0.00    +0.114 C 
ATOM      6  C   UNL     1      12.027  -5.348   0.248  0.00  0.00    +0.052 C 
ATOM      7  C   UNL     1      12.282  -6.830   0.131  0.00  0.00    -0.035 C 
ATOM      8  C   UNL     1      13.411  -7.526   0.084  0.00  0.00    +0.001 A 
ATOM      9  C   UNL     1      14.819  -7.103   0.017  0.00  0.00    +0.030 A 
ATOM     10  C   UNL     1      15.745  -8.100   0.001  0.00  0.00    +0.042 A 
ATOM     11  C   UNL     1      15.412  -9.459   0.044  0.00  0.00    +0.022 A 
ATOM     12  C   UNL     1      14.143  -9.937   0.099  0.00  0.00    +0.027 A 
ATOM     13  C   UNL     1      13.083  -8.984   0.112  0.00  0.00    +0.043 A 
ATOM     14  N   UNL     1      11.795  -9.159   0.137  0.00  0.00    -0.376 N 
ATOM     15  C   UNL     1      11.149  -7.848   0.065  0.00  0.00    +0.124 C 
ATOM     16  C   UNL     1      10.252  -7.581   1.284  0.00  0.00    +0.138 C 
ATOM     17 CL   UNL     1      17.423  -7.665  -0.079  0.00  0.00    -0.084 Cl
ATOM     18  H   UNL     1       9.142  -3.758   1.073  0.00  0.00    +0.151 HD
ATOM     19  H   UNL     1      11.340 -10.014   0.193  0.00  0.00    +0.160 HD
ENDROOT
BRANCH   1  20
ATOM     20  C   UNL     1       7.030  -3.926   1.208  0.00  0.00    +0.201 C 
BRANCH  20  27
ATOM     21  N   UNL     1       3.614  -0.657  -0.043  0.00  0.00    -0.327 N 
ATOM     22  C   UNL     1       4.880   0.079  -0.171  0.00  0.00    +0.124 C 
ATOM     23  C   UNL     1       5.788  -0.301   1.004  0.00  0.00    +0.126 C 
ATOM     24  N   UNL     1       5.828  -1.766   1.113  0.00  0.00    -0.297 N 
ATOM     25  C   UNL     1       4.562  -2.501   1.242  0.00  0.00    +0.126 C 
ATOM     26  C   UNL     1       3.654  -2.121   0.071  0.00  0.00    +0.124 C 
ATOM     27  C   UNL     1       7.005  -2.423   1.095  0.00  0.00    +0.233 C 
ATOM     28  O   UNL     1       8.043  -1.805   0.989  0.00  0.00    -0.274 OA
BRANCH  21  32
ATOM     29  C   UNL     1      -0.021   1.374   0.014  0.00  0.00    +0.000 A 
ATOM     30  C   UNL     1      -0.003  -0.009   0.007  0.00  0.00    +0.002 A 
ATOM     31  C   UNL     1       1.201  -0.685  -0.012  0.00  0.00    +0.023 A 
ATOM     32  C   UNL     1       2.394   0.024  -0.024  0.00  0.00    +0.030 A 
ATOM     33  C   UNL     1       2.373   1.413  -0.018  0.00  0.00    +0.023 A 
ATOM     34  C   UNL     1       1.166   2.084   0.001  0.00  0.00    +0.002 A 
ENDBRANCH  21  32
ENDBRANCH  20  27
ENDBRANCH   1  20
TORSDOF 3
