REMARK  Name = ZINC62237916
REMARK  9 active torsions:
REMARK  status: ('A' for Active; 'I' for Inactive)
REMARK    1  A    between atoms: C_1  and  C_2
REMARK    2  A    between atoms: C_2  and  C_3
REMARK    3  A    between atoms: C_2  and  C_4
REMARK    4  A    between atoms: C_4  and  C_5
REMARK    5  A    between atoms: C_6  and  C_19
REMARK    6  A    between atoms: N_9  and  C_10
REMARK    7  A    between atoms: C_13  and  O_17
REMARK    8  A    between atoms: O_17  and  C_18
REMARK    9  A    between atoms: C_19  and  N_20
REMARK                            x       y       z     vdW  Elec       q    Type
REMARK                         _______ _______ _______ _____ _____    ______ ____
ROOT
ATOM      1  C   UNL     1      -1.859  -1.786  -0.599  0.00  0.00    +0.066 A 
ATOM      2  C   UNL     1      -1.998  -2.337  -1.828  0.00  0.00    +0.069 A 
ATOM      3  N   UNL     1      -1.976  -3.663  -1.655  0.00  0.00    -0.136 NA
ATOM      4  N   UNL     1      -1.833  -3.921  -0.403  0.00  0.00    -0.060 NA
ATOM      5  N   UNL     1      -1.752  -2.827   0.270  0.00  0.00    -0.217 N 
ENDROOT
BRANCH   5   6
ATOM      6  C   UNL     1      -1.586  -2.726   1.660  0.00  0.00    +0.069 A 
ATOM      7  C   UNL     1      -0.693  -1.803   2.188  0.00  0.00    +0.031 A 
ATOM      8  C   UNL     1      -0.529  -1.704   3.555  0.00  0.00    +0.049 A 
ATOM      9  C   UNL     1      -1.258  -2.526   4.403  0.00  0.00    +0.138 A 
ATOM     10  C   UNL     1      -2.151  -3.449   3.876  0.00  0.00    +0.085 A 
ATOM     11  C   UNL     1      -2.320  -3.545   2.508  0.00  0.00    +0.051 A 
ATOM     12 CL   UNL     1      -3.062  -4.479   4.937  0.00  0.00    -0.080 Cl
BRANCH   9  13
ATOM     13  O   UNL     1      -1.096  -2.429   5.749  0.00  0.00    -0.494 OA
ATOM     14  C   UNL     1      -0.159  -1.458   6.221  0.00  0.00    +0.277 C 
ENDBRANCH   9  13
ENDBRANCH   5   6
BRANCH   1  15
ATOM     15  C   UNL     1      -1.824  -0.317  -0.263  0.00  0.00    +0.060 C 
BRANCH  15  17
ATOM     16  C   UNL     1      -3.157   1.598   0.630  0.00  0.00    +0.007 C 
ATOM     17  C   UNL     1      -3.220   0.144   0.159  0.00  0.00    -0.011 C 
ATOM     18  C   UNL     1      -4.175   0.034  -1.032  0.00  0.00    +0.007 C 
ENDBRANCH  15  17
ENDBRANCH   1  15
BRANCH   2  19
ATOM     19  C   UNL     1      -2.149  -1.600  -3.134  0.00  0.00    -0.026 C 
BRANCH  19  20
ATOM     20  N   UNL     1      -0.822  -1.358  -3.716  0.00  0.00    +0.382 N 
ATOM     21  H   UNL     1      -0.360  -2.240  -3.878  0.00  0.00    -0.090 HD
ATOM     22  H   UNL     1      -0.923  -0.865  -4.590  0.00  0.00    -0.090 HD
ATOM     23  H   UNL     1      -0.272  -0.802  -3.078  0.00  0.00    -0.090 HD
ENDBRANCH  19  20
ENDBRANCH   2  19
TORSDOF 6
