REMARK  Name = ZINC40034043
REMARK  8 active torsions:
REMARK  status: ('A' for Active; 'I' for Inactive)
REMARK    1  A    between atoms: C_1  and  C_2
REMARK    2  A    between atoms: C_2  and  C_3
REMARK    3  A    between atoms: C_2  and  C_4
REMARK    4  A    between atoms: C_2  and  N_5
REMARK    5  A    between atoms: C_9  and  C_11
REMARK    6  A    between atoms: C_11  and  S_12
REMARK    7  A    between atoms: S_12  and  C_13
REMARK    8  A    between atoms: C_17  and  C_19
REMARK                            x       y       z     vdW  Elec       q    Type
REMARK                         _______ _______ _______ _____ _____    ______ ____
ROOT
ATOM      1  C   UNL     1       6.995  -0.746  -5.547  0.00  0.00    +0.339 C 
ATOM      2  N   UNL     1       6.205  -0.303  -6.708  0.00  0.00    -0.219 N 
ATOM      3  N   UNL     1       5.714  -1.476  -7.299  0.00  0.00    -0.145 NA
ATOM      4  C   UNL     1       6.120  -2.521  -6.628  0.00  0.00    +0.238 C 
ATOM      5  O   UNL     1       6.893  -2.177  -5.565  0.00  0.00    -0.443 OA
ATOM      6  H   UNL     1       6.056   0.609  -7.003  0.00  0.00    +0.173 HD
ENDROOT
BRANCH   4   7
ATOM      7  C   UNL     1       5.798  -3.843  -6.966  0.00  0.00    +0.043 C 
ATOM      8  C   UNL     1       5.019  -4.273  -8.042  0.00  0.00    +0.008 A 
ATOM      9  C   UNL     1       4.348  -3.579  -9.070  0.00  0.00    +0.010 A 
ATOM     10  C   UNL     1       3.650  -4.272 -10.006  0.00  0.00    +0.001 A 
ATOM     11  C   UNL     1       3.577  -5.666  -9.981  0.00  0.00    +0.002 A 
ATOM     12  C   UNL     1       4.198  -6.397  -9.022  0.00  0.00    +0.026 A 
ATOM     13  C   UNL     1       4.946  -5.743  -8.010  0.00  0.00    +0.043 A 
ATOM     14  N   UNL     1       5.629  -6.217  -6.986  0.00  0.00    -0.380 N 
ATOM     15  C   UNL     1       6.226  -5.102  -6.244  0.00  0.00    +0.154 C 
ATOM     16  H   UNL     1       5.724  -7.156  -6.761  0.00  0.00    +0.160 HD
ENDBRANCH   4   7
BRANCH   1  17
ATOM     17  S   UNL     1       6.293  -0.081  -4.012  0.00  0.00    -0.087 S 
BRANCH  17  18
ATOM     18  C   UNL     1       4.591  -0.709  -3.999  0.00  0.00    +0.170 C 
BRANCH  18  23
ATOM     19  N   UNL     1       0.688  -0.476  -1.203  0.00  0.00    -0.294 N 
ATOM     20  C   UNL     1       1.972  -0.132  -1.427  0.00  0.00    +0.306 C 
ATOM     21  O   UNL     1       2.560   0.570  -0.629  0.00  0.00    -0.252 OA
ATOM     22  N   UNL     1       2.602  -0.567  -2.536  0.00  0.00    -0.240 N 
ATOM     23  C   UNL     1       3.886  -0.223  -2.760  0.00  0.00    +0.230 C 
ATOM     24  O   UNL     1       4.473   0.478  -1.963  0.00  0.00    -0.274 OA
ATOM     25  H   UNL     1       0.218  -1.037  -1.840  0.00  0.00    +0.151 HD
ATOM     26  H   UNL     1       2.132  -1.127  -3.173  0.00  0.00    +0.159 HD
BRANCH  19  28
ATOM     27  C   UNL     1      -0.019   1.526   0.010  0.00  0.00    +0.031 C 
ATOM     28  C   UNL     1       0.002  -0.004   0.002  0.00  0.00    +0.028 C 
ATOM     29  C   UNL     1       0.742  -0.511   1.242  0.00  0.00    +0.031 C 
ATOM     30  C   UNL     1      -1.433  -0.534   0.013  0.00  0.00    +0.031 C 
ENDBRANCH  19  28
ENDBRANCH  18  23
ENDBRANCH  17  18
ENDBRANCH   1  17
TORSDOF 5
