REMARK  Name = ZINC00805671
REMARK  7 active torsions:
REMARK  status: ('A' for Active; 'I' for Inactive)
REMARK    1  A    between atoms: C_1  and  C_2
REMARK    2  A    between atoms: C_2  and  C_3
REMARK    3  A    between atoms: C_2  and  C_4
REMARK    4  A    between atoms: C_2  and  C_5
REMARK    5  A    between atoms: C_17  and  C_20
REMARK    6  A    between atoms: C_23  and  O_27
REMARK    7  A    between atoms: C_25  and  O_26
REMARK                            x       y       z     vdW  Elec       q    Type
REMARK                         _______ _______ _______ _____ _____    ______ ____
ROOT
ATOM      1  C   UNL     1       0.718  -0.497  -1.257  0.00  0.00    -0.000 C 
ATOM      2  C   UNL     1       2.153   0.037  -1.274  0.00  0.00    +0.009 C 
ATOM      3  C   UNL     1       2.948  -0.644  -2.389  0.00  0.00    +0.037 C 
ATOM      4  C   UNL     1       2.177  -0.507  -3.697  0.00  0.00    -0.023 A 
ATOM      5  C   UNL     1       0.859  -0.211  -3.696  0.00  0.00    -0.004 A 
ATOM      6  S   UNL     1       0.400  -0.158  -5.409  0.00  0.00    -0.078 S 
ATOM      7  C   UNL     1       1.921  -0.522  -6.105  0.00  0.00    +0.080 A 
ATOM      8  C   UNL     1       2.782  -0.679  -5.008  0.00  0.00    +0.068 A 
ATOM      9  C   UNL     1       4.198  -1.008  -5.292  0.00  0.00    +0.248 C 
ATOM     10  O   UNL     1       4.977  -1.281  -4.397  0.00  0.00    -0.270 OA
ATOM     11  N   UNL     1       4.589  -0.994  -6.583  0.00  0.00    -0.289 N 
ATOM     12  C   UNL     1       3.772  -0.455  -7.666  0.00  0.00    +0.194 C 
ATOM     13  N   UNL     1       2.336  -0.659  -7.404  0.00  0.00    -0.316 N 
ATOM     14  C   UNL     1      -0.018   0.016  -2.503  0.00  0.00    +0.046 C 
ATOM     15  H   UNL     1       5.459  -1.362  -6.804  0.00  0.00    +0.151 HD
ATOM     16  H   UNL     1       1.715  -0.880  -8.116  0.00  0.00    +0.149 HD
ENDROOT
BRANCH  12  17
ATOM     17  C   UNL     1       4.044   1.021  -7.801  0.00  0.00    +0.032 A 
ATOM     18  C   UNL     1       3.022   1.882  -8.156  0.00  0.00    +0.014 A 
ATOM     19  C   UNL     1       3.269   3.236  -8.281  0.00  0.00    +0.046 A 
ATOM     20  C   UNL     1       4.543   3.735  -8.050  0.00  0.00    +0.120 A 
ATOM     21  C   UNL     1       5.569   2.873  -7.694  0.00  0.00    +0.091 A 
ATOM     22  C   UNL     1       5.319   1.516  -7.564  0.00  0.00    +0.127 A 
BRANCH  22  23
ATOM     23  O   UNL     1       6.322   0.670  -7.210  0.00  0.00    -0.506 OA
ATOM     24  H   UNL     1       6.815   0.309  -7.960  0.00  0.00    +0.292 HD
ENDBRANCH  22  23
BRANCH  20  25
ATOM     25  O   UNL     1       4.785   5.066  -8.172  0.00  0.00    -0.507 OA
ATOM     26  H   UNL     1       4.655   5.566  -7.355  0.00  0.00    +0.292 HD
ENDBRANCH  20  25
ENDBRANCH  12  17
BRANCH   1  28
ATOM     27  C   UNL     1      -0.019   1.526   0.010  0.00  0.00    +0.011 C 
ATOM     28  C   UNL     1       0.002  -0.004   0.002  0.00  0.00    -0.035 C 
ATOM     29  C   UNL     1       0.742  -0.511   1.242  0.00  0.00    +0.011 C 
ATOM     30  C   UNL     1      -1.433  -0.534   0.013  0.00  0.00    +0.011 C 
ENDBRANCH   1  28
TORSDOF 4
