REMARK  Name = ZINC39448552
REMARK  9 active torsions:
REMARK  status: ('A' for Active; 'I' for Inactive)
REMARK    1  A    between atoms: C_1  and  C_2
REMARK    2  A    between atoms: C_2  and  O_3
REMARK    3  A    between atoms: O_3  and  C_4
REMARK    4  A    between atoms: C_4  and  C_6
REMARK    5  A    between atoms: C_8  and  N_16
REMARK    6  A    between atoms: C_17  and  C_20
REMARK    7  A    between atoms: N_18  and  O_19
REMARK    8  A    between atoms: C_20  and  C_23
REMARK    9  A    between atoms: N_21  and  O_22
REMARK                            x       y       z     vdW  Elec       q    Type
REMARK                         _______ _______ _______ _____ _____    ______ ____
ROOT
ATOM      1  N   UNL     1      -0.159  -1.443  -4.304  0.00  0.00    -0.296 N 
ATOM      2  C   UNL     1       0.052  -0.120  -3.938  0.00  0.00    +0.191 C 
ATOM      3  N   UNL     1       1.010   0.181  -3.112  0.00  0.00    -0.069 NA
ATOM      4  H   UNL     1      -0.820  -1.659  -4.981  0.00  0.00    +0.154 HD
ENDROOT
BRANCH   1   6
ATOM      5  C   UNL     1       1.472  -2.304  -2.521  0.00  0.00    +0.234 C 
ATOM      6  C   UNL     1       0.555  -2.428  -3.717  0.00  0.00    +0.052 C 
ATOM      7  C   UNL     1       0.599  -3.765  -4.087  0.00  0.00    +0.018 A 
ATOM      8  C   UNL     1      -0.038  -4.491  -5.120  0.00  0.00    +0.011 A 
ATOM      9  C   UNL     1       0.195  -5.821  -5.249  0.00  0.00    +0.001 A 
ATOM     10  C   UNL     1       1.053  -6.502  -4.383  0.00  0.00    +0.002 A 
ATOM     11  C   UNL     1       1.697  -5.870  -3.371  0.00  0.00    +0.026 A 
ATOM     12  C   UNL     1       1.505  -4.479  -3.172  0.00  0.00    +0.045 A 
ATOM     13  N   UNL     1       2.006  -3.647  -2.277  0.00  0.00    -0.367 N 
ATOM     14  H   UNL     1       2.627  -3.886  -1.571  0.00  0.00    +0.161 HD
BRANCH   5  15
ATOM     15  C   UNL     1       0.696  -1.827  -1.320  0.00  0.00    +0.336 C 
ATOM     16  O   UNL     1       0.201  -2.629  -0.564  0.00  0.00    -0.248 OA
BRANCH  15  17
ATOM     17  O   UNL     1       0.556  -0.512  -1.090  0.00  0.00    -0.463 OA
BRANCH  17  19
ATOM     18  C   UNL     1      -0.243   1.394   0.163  0.00  0.00    +0.048 C 
ATOM     19  C   UNL     1      -0.192  -0.132   0.067  0.00  0.00    +0.229 C 
ENDBRANCH  17  19
ENDBRANCH  15  17
ENDBRANCH   5  15
ENDBRANCH   1   6
BRANCH   3  20
ATOM     20  O   UNL     1       1.302   1.538  -2.831  0.00  0.00    -0.408 OA
ATOM     21  H   UNL     1       2.077   1.664  -2.266  0.00  0.00    +0.328 HD
ENDBRANCH   3  20
BRANCH   2  22
ATOM     22  C   UNL     1      -0.812   0.947  -4.489  0.00  0.00    +0.153 C 
ATOM     23  N   UNL     1      -1.830   0.637  -5.240  0.00  0.00    -0.083 NA
BRANCH  22  24
ATOM     24  C   UNL     1      -0.520   2.368  -4.186  0.00  0.00    +0.007 A 
ATOM     25  C   UNL     1       0.249   3.127  -5.067  0.00  0.00    +0.010 A 
ATOM     26  C   UNL     1       0.517   4.450  -4.780  0.00  0.00    +0.001 A 
ATOM     27  C   UNL     1       0.026   5.022  -3.620  0.00  0.00    +0.000 A 
ATOM     28  C   UNL     1      -0.737   4.274  -2.742  0.00  0.00    +0.001 A 
ATOM     29  C   UNL     1      -1.017   2.952  -3.021  0.00  0.00    +0.010 A 
ENDBRANCH  22  24
BRANCH  23  30
ATOM     30  O   UNL     1      -2.594   1.660  -5.853  0.00  0.00    -0.409 OA
ATOM     31  H   UNL     1      -3.329   1.333  -6.391  0.00  0.00    +0.328 HD
ENDBRANCH  23  30
ENDBRANCH   2  22
TORSDOF 8
