REMARK  Name = ZINC57848132
REMARK  7 active torsions:
REMARK  status: ('A' for Active; 'I' for Inactive)
REMARK    1  A    between atoms: C_1  and  C_2
REMARK    2  A    between atoms: C_2  and  C_3
REMARK    3  A    between atoms: C_6  and  C_9
REMARK    4  A    between atoms: C_9  and  C_23
REMARK    5  A    between atoms: N_12  and  C_16
REMARK    6  A    between atoms: C_16  and  C_17
REMARK    7  A    between atoms: C_23  and  C_24
REMARK                            x       y       z     vdW  Elec       q    Type
REMARK                         _______ _______ _______ _____ _____    ______ ____
ROOT
ATOM      1  C   UNL     1       2.707  -1.868  -4.752  0.00  0.00    +0.138 C 
ATOM      2  C   UNL     1       2.627  -3.379  -4.853  0.00  0.00    +0.251 C 
ATOM      3  O   UNL     1       3.072  -4.189  -4.069  0.00  0.00    -0.272 OA
ATOM      4  N   UNL     1       1.958  -3.633  -5.994  0.00  0.00    -0.224 N 
ATOM      5  C   UNL     1       1.607  -2.505  -6.623  0.00  0.00    +0.310 C 
ATOM      6  O   UNL     1       0.996  -2.479  -7.673  0.00  0.00    -0.252 OA
ATOM      7  N   UNL     1       2.007  -1.403  -5.963  0.00  0.00    -0.281 N 
ATOM      8  H   UNL     1       1.863  -0.483  -6.231  0.00  0.00    +0.152 HD
ENDROOT
BRANCH   1  12
ATOM      9  C   UNL     1       0.707  -0.490  -1.238  0.00  0.00    -0.048 A 
ATOM     10  C   UNL     1      -0.011  -0.719  -2.397  0.00  0.00    +0.004 A 
ATOM     11  C   UNL     1       0.636  -1.164  -3.534  0.00  0.00    +0.006 A 
ATOM     12  C   UNL     1       2.002  -1.381  -3.513  0.00  0.00    -0.015 A 
ATOM     13  C   UNL     1       2.720  -1.152  -2.354  0.00  0.00    +0.006 A 
ATOM     14  C   UNL     1       2.073  -0.702  -1.218  0.00  0.00    +0.004 A 
BRANCH   9  16
ATOM     15  C   UNL     1      -0.019   1.526   0.010  0.00  0.00    +0.009 C 
ATOM     16  C   UNL     1       0.002  -0.004   0.002  0.00  0.00    +0.032 C 
ENDBRANCH   9  16
ENDBRANCH   1  12
BRANCH   1  17
ATOM     17  C   UNL     1       4.164  -1.401  -4.759  0.00  0.00    +0.037 C 
ATOM     18  C   UNL     1       4.821  -1.801  -6.082  0.00  0.00    +0.007 C 
ENDBRANCH   1  17
BRANCH   4  19
ATOM     19  C   UNL     1       1.653  -4.979  -6.487  0.00  0.00    +0.121 C 
BRANCH  19  20
ATOM     20  C   UNL     1       0.300  -5.431  -5.932  0.00  0.00    +0.003 C 
ATOM     21  C   UNL     1       0.395  -5.578  -4.410  0.00  0.00    -0.014 C 
ATOM     22  C   UNL     1      -0.936  -6.106  -3.871  0.00  0.00    -0.082 C 
ATOM     23  N   UNL     1      -1.229  -7.412  -4.473  0.00  0.00    +0.379 N 
ATOM     24  C   UNL     1      -1.392  -7.266  -5.925  0.00  0.00    -0.082 C 
ATOM     25  C   UNL     1      -0.078  -6.782  -6.543  0.00  0.00    -0.014 C 
ATOM     26  H   UNL     1      -0.468  -8.047  -4.284  0.00  0.00    -0.086 HD
ATOM     27  H   UNL     1      -2.079  -7.782  -4.076  0.00  0.00    -0.086 HD
ENDBRANCH  19  20
ENDBRANCH   4  19
TORSDOF 5
