REMARK  Name = ZINC01897111
REMARK  8 active torsions:
REMARK  status: ('A' for Active; 'I' for Inactive)
REMARK    1  A    between atoms: C_1  and  C_2
REMARK    2  A    between atoms: C_5  and  N_9
REMARK    3  A    between atoms: C_7  and  C_8
REMARK    4  A    between atoms: C_17  and  C_21
REMARK    5  A    between atoms: C_17  and  N_25
REMARK    6  A    between atoms: C_26  and  C_28
REMARK    7  A    between atoms: C_33  and  O_34
REMARK    8  A    between atoms: O_34  and  C_35
REMARK                            x       y       z     vdW  Elec       q    Type
REMARK                         _______ _______ _______ _____ _____    ______ ____
ROOT
ATOM      1  N   UNL     1      -0.086  -4.151  -0.075  0.00  0.00    -0.249 N 
ATOM      2  C   UNL     1      -0.144  -4.851  -1.263  0.00  0.00    +0.125 A 
ATOM      3  C   UNL     1      -0.079  -6.212  -1.216  0.00  0.00    +0.097 A 
ATOM      4  C   UNL     1       0.044  -6.870   0.015  0.00  0.00    +0.262 A 
ATOM      5  N   UNL     1       0.098  -6.142   1.150  0.00  0.00    -0.274 N 
ATOM      6  C   UNL     1       0.037  -4.799   1.096  0.00  0.00    +0.335 A 
ATOM      7  O   UNL     1       0.091  -4.159   2.128  0.00  0.00    -0.246 OA
ATOM      8  O   UNL     1       0.102  -8.086   0.060  0.00  0.00    -0.267 OA
ATOM      9  C   UNL     1      -0.166  -6.699  -2.643  0.00  0.00    +0.240 C 
ATOM     10  C   UNL     1      -0.284  -5.419  -3.447  0.00  0.00    +0.256 C 
ATOM     11  O   UNL     1      -0.381  -5.324  -4.652  0.00  0.00    -0.272 OA
ATOM     12  N   UNL     1      -0.262  -4.410  -2.559  0.00  0.00    -0.269 N 
ATOM     13  H   UNL     1       0.183  -6.589   2.007  0.00  0.00    +0.173 HD
ATOM     14  H   UNL     1      -0.324  -3.474  -2.805  0.00  0.00    +0.156 HD
ENDROOT
BRANCH   1  19
ATOM     15  C   UNL     1      -0.346   1.518  -0.135  0.00  0.00    +0.044 C 
ATOM     16  C   UNL     1      -0.277   0.013  -0.119  0.00  0.00    -0.047 A 
ATOM     17  C   UNL     1      -1.297  -0.719   0.462  0.00  0.00    +0.005 A 
ATOM     18  C   UNL     1      -1.237  -2.098   0.478  0.00  0.00    +0.026 A 
ATOM     19  C   UNL     1      -0.150  -2.751  -0.090  0.00  0.00    +0.053 A 
ATOM     20  C   UNL     1       0.872  -2.014  -0.672  0.00  0.00    +0.030 A 
ATOM     21  C   UNL     1       0.804  -0.635  -0.689  0.00  0.00    -0.046 A 
ATOM     22  C   UNL     1       1.910   0.166  -1.326  0.00  0.00    +0.044 C 
ENDBRANCH   1  19
BRANCH   9  23
ATOM     23  C   UNL     1       1.103  -7.462  -3.030  0.00  0.00    +0.424 C 
ATOM     24  F   UNL     1       1.197  -8.629  -2.264  0.00  0.00    -0.167 F 
ATOM     25  F   UNL     1       1.049  -7.799  -4.387  0.00  0.00    -0.167 F 
ATOM     26  F   UNL     1       2.222  -6.657  -2.793  0.00  0.00    -0.167 F 
ENDBRANCH   9  23
BRANCH   9  27
ATOM     27  N   UNL     1      -1.352  -7.538  -2.831  0.00  0.00    -0.287 N 
ATOM     28  C   UNL     1      -2.582  -7.006  -2.691  0.00  0.00    +0.249 C 
ATOM     29  O   UNL     1      -2.709  -5.858  -2.312  0.00  0.00    -0.270 OA
ATOM     30  H   UNL     1      -1.252  -8.476  -3.057  0.00  0.00    +0.151 HD
BRANCH  28  31
ATOM     31  C   UNL     1      -3.776  -7.818  -2.996  0.00  0.00    +0.078 A 
ATOM     32  C   UNL     1      -3.635  -9.140  -3.426  0.00  0.00    +0.017 A 
ATOM     33  C   UNL     1      -4.754  -9.893  -3.709  0.00  0.00    +0.001 A 
ATOM     34  C   UNL     1      -6.019  -9.345  -3.569  0.00  0.00    +0.004 A 
ATOM     35  C   UNL     1      -6.172  -8.040  -3.146  0.00  0.00    +0.046 A 
ATOM     36  C   UNL     1      -5.057  -7.270  -2.851  0.00  0.00    +0.132 A 
BRANCH  36  37
ATOM     37  O   UNL     1      -5.207  -5.989  -2.430  0.00  0.00    -0.494 OA
ATOM     38  C   UNL     1      -6.543  -5.498  -2.306  0.00  0.00    +0.277 C 
ENDBRANCH  36  37
ENDBRANCH  28  31
ENDBRANCH   9  27
TORSDOF 5
