REMARK  Name = ZINC54640673
REMARK  4 active torsions:
REMARK  status: ('A' for Active; 'I' for Inactive)
REMARK    1  A    between atoms: C_7  and  C_9
REMARK    2  A    between atoms: C_9  and  C_16
REMARK    3  A    between atoms: C_16  and  N_17
REMARK    4  A    between atoms: N_17  and  C_18
REMARK                            x       y       z     vdW  Elec       q    Type
REMARK                         _______ _______ _______ _____ _____    ______ ____
ROOT
ATOM      1  C   UNL     1      -1.632  -0.560  -0.218  0.00  0.00    -0.019 C 
ATOM      2  C   UNL     1      -2.010  -0.110  -1.629  0.00  0.00    +0.029 C 
ATOM      3  C   UNL     1      -3.548  -0.204  -1.830  0.00  0.00    +0.166 C 
ATOM      4  S   UNL     1      -4.112   0.394  -0.177  0.00  0.00    -0.031 S 
ATOM      5  O   UNL     1      -5.312  -0.279   0.179  0.00  0.00    -0.174 OA
ATOM      6  O   UNL     1      -4.069   1.814  -0.154  0.00  0.00    -0.174 OA
ATOM      7  C   UNL     1      -2.722  -0.271   0.832  0.00  0.00    +0.171 C 
ENDROOT
BRANCH   1  14
ATOM      8  C   UNL     1      -0.607   1.671   0.295  0.00  0.00    +0.028 C 
ATOM      9  C   UNL     1       0.737   2.432   0.397  0.00  0.00    +0.166 C 
ATOM     10  S   UNL     1       1.901   1.315  -0.486  0.00  0.00    -0.031 S 
ATOM     11  O   UNL     1       2.303   1.934  -1.701  0.00  0.00    -0.174 OA
ATOM     12  O   UNL     1       2.890   0.861   0.428  0.00  0.00    -0.174 OA
ATOM     13  C   UNL     1       0.757  -0.076  -0.872  0.00  0.00    +0.170 C 
ATOM     14  C   UNL     1      -0.347   0.159   0.198  0.00  0.00    +0.017 C 
ENDBRANCH   1  14
BRANCH   1  15
ATOM     15  C   UNL     1      -1.363  -2.067  -0.243  0.00  0.00    -0.073 C 
BRANCH  15  16
ATOM     16  N   UNL     1      -0.836  -2.492   1.060  0.00  0.00    +0.381 N 
ATOM     17  H   UNL     1       0.064  -2.062   1.215  0.00  0.00    -0.086 HD
ATOM     18  H   UNL     1      -1.474  -2.209   1.789  0.00  0.00    -0.086 HD
BRANCH  16  19
ATOM     19  C   UNL     1      -0.689  -3.953   1.076  0.00  0.00    -0.072 C 
ATOM     20  C   UNL     1      -1.545  -4.738   2.072  0.00  0.00    -0.017 C 
ATOM     21  C   UNL     1      -0.041  -4.585   2.310  0.00  0.00    -0.017 C 
ENDBRANCH  16  19
ENDBRANCH  15  16
ENDBRANCH   1  15
TORSDOF 4
