REMARK  Name = ZINC44053755
REMARK  6 active torsions:
REMARK  status: ('A' for Active; 'I' for Inactive)
REMARK    1  A    between atoms: C_1  and  C_2
REMARK    2  A    between atoms: C_5  and  O_9
REMARK    3  A    between atoms: C_7  and  C_8
REMARK    4  A    between atoms: O_9  and  C_10
REMARK    5  A    between atoms: C_16  and  N_18
REMARK    6  A    between atoms: N_18  and  C_19
REMARK                            x       y       z     vdW  Elec       q    Type
REMARK                         _______ _______ _______ _____ _____    ______ ____
ROOT
ATOM      1  C   UNL     1      -0.052  -4.772  -1.292  0.00  0.00    +0.165 C 
ATOM      2  C   UNL     1      -1.529  -4.909  -1.669  0.00  0.00    +0.107 C 
ATOM      3  C   UNL     1      -2.248  -5.750  -0.613  0.00  0.00    +0.173 C 
ATOM      4  C   UNL     1      -1.610  -7.137  -0.532  0.00  0.00    +0.063 C 
ATOM      5  C   UNL     1      -0.134  -6.997  -0.157  0.00  0.00    -0.007 C 
ATOM      6  C   UNL     1       0.585  -6.161  -1.218  0.00  0.00    -0.030 C 
ATOM      7  O   UNL     1      -2.145  -5.101   0.665  0.00  0.00    -0.346 OA
ATOM      8  C   UNL     1      -3.371  -4.342   0.794  0.00  0.00    +0.191 C 
ATOM      9  C   UNL     1      -4.397  -5.282   0.112  0.00  0.00    +0.191 C 
ATOM     10  O   UNL     1      -3.634  -5.875  -0.958  0.00  0.00    -0.346 OA
ENDROOT
BRANCH   6  11
ATOM     11  N   UNL     1       2.004  -6.030  -0.859  0.00  0.00    +0.381 N 
ATOM     12  C   UNL     1       2.645  -7.351  -0.904  0.00  0.00    -0.100 C 
ATOM     13  H   UNL     1       2.460  -5.412  -1.513  0.00  0.00    -0.086 HD
ATOM     14  H   UNL     1       2.081  -5.650   0.073  0.00  0.00    -0.086 HD
ENDBRANCH   6  11
BRANCH   1  15
ATOM     15  O   UNL     1       0.057  -4.129  -0.021  0.00  0.00    -0.490 OA
BRANCH  15  20
ATOM     16  C   UNL     1       0.002   1.503   0.009  0.00  0.00    +0.044 C 
ATOM     17  C   UNL     1       0.017  -0.004   0.001  0.00  0.00    -0.047 A 
ATOM     18  C   UNL     1      -0.200  -0.690  -1.180  0.00  0.00    +0.007 A 
ATOM     19  C   UNL     1      -0.187  -2.071  -1.190  0.00  0.00    +0.046 A 
ATOM     20  C   UNL     1       0.044  -2.770  -0.014  0.00  0.00    +0.121 A 
ATOM     21  C   UNL     1       0.261  -2.079   1.169  0.00  0.00    +0.049 A 
ATOM     22  C   UNL     1       0.253  -0.698   1.173  0.00  0.00    -0.044 A 
ATOM     23  C   UNL     1       0.494   0.053   2.457  0.00  0.00    +0.044 C 
ENDBRANCH  15  20
ENDBRANCH   1  15
TORSDOF 3
