REMARK  Name = ZINC64717691
REMARK  6 active torsions:
REMARK  status: ('A' for Active; 'I' for Inactive)
REMARK    1  A    between atoms: N_9  and  C_14
REMARK    2  A    between atoms: C_10  and  O_13
REMARK    3  A    between atoms: C_14  and  C_15
REMARK    4  A    between atoms: N_17  and  C_18
REMARK    5  A    between atoms: C_18  and  C_19
REMARK    6  A    between atoms: C_19  and  C_20
REMARK                            x       y       z     vdW  Elec       q    Type
REMARK                         _______ _______ _______ _____ _____    ______ ____
ROOT
ATOM      1  C   UNL     1       2.224  -4.804  -1.561  0.00  0.00    +0.231 C 
ATOM      2  O   UNL     1       1.916  -4.084  -2.488  0.00  0.00    -0.274 OA
ATOM      3  N   UNL     1       2.249  -6.141  -1.727  0.00  0.00    -0.314 N 
ATOM      4  H   UNL     1       2.496  -6.717  -0.986  0.00  0.00    +0.149 HD
ENDROOT
BRANCH   1   5
ATOM      5  C   UNL     1       2.578  -4.203  -0.226  0.00  0.00    +0.207 C 
BRANCH   5  14
ATOM      6  C   UNL     1      -0.017   1.375   0.010  0.00  0.00    +0.001 A 
ATOM      7  C   UNL     1       1.168   2.095   0.002  0.00  0.00    +0.002 A 
ATOM      8  C   UNL     1       2.386   1.444  -0.015  0.00  0.00    +0.024 A 
ATOM      9  C   UNL     1       2.422   0.060  -0.024  0.00  0.00    +0.042 A 
ATOM     10  C   UNL     1       1.223  -0.674  -0.013  0.00  0.00    +0.058 A 
ATOM     11  C   UNL     1       0.002  -0.004   0.002  0.00  0.00    +0.015 A 
ATOM     12  C   UNL     1       1.301  -2.146  -0.013  0.00  0.00    +0.252 C 
ATOM     13  O   UNL     1       0.318  -2.814   0.246  0.00  0.00    -0.270 OA
ATOM     14  N   UNL     1       2.475  -2.744  -0.304  0.00  0.00    -0.248 N 
ATOM     15  C   UNL     1       3.647  -1.961  -0.696  0.00  0.00    +0.300 C 
ATOM     16  N   UNL     1       3.620  -0.645  -0.047  0.00  0.00    -0.303 N 
ATOM     17  H   UNL     1       4.421  -0.275   0.357  0.00  0.00    +0.150 HD
BRANCH  15  18
ATOM     18  O   UNL     1       3.646  -1.786  -2.114  0.00  0.00    -0.359 OA
ATOM     19  H   UNL     1       4.397  -1.275  -2.448  0.00  0.00    +0.213 HD
ENDBRANCH  15  18
ENDBRANCH   5  14
ENDBRANCH   1   5
BRANCH   3  20
ATOM     20  C   UNL     1       1.906  -6.726  -3.025  0.00  0.00    +0.108 C 
BRANCH  20  21
ATOM     21  C   UNL     1       2.013  -8.250  -2.943  0.00  0.00    +0.052 C 
BRANCH  21  22
ATOM     22  C   UNL     1       1.659  -8.851  -4.279  0.00  0.00    -0.040 C 
ATOM     23  C   UNL     1       2.516  -9.210  -5.262  0.00  0.00    +0.002 A 
ATOM     24  C   UNL     1       3.978  -9.149  -5.376  0.00  0.00    +0.048 A 
ATOM     25  C   UNL     1       4.567  -9.594  -6.512  0.00  0.00    +0.124 A 
ATOM     26  C   UNL     1       3.814 -10.109  -7.580  0.00  0.00    +0.040 A 
ATOM     27  C   UNL     1       2.468 -10.195  -7.547  0.00  0.00    +0.029 A 
ATOM     28  C   UNL     1       1.746  -9.757  -6.402  0.00  0.00    +0.043 A 
ATOM     29  N   UNL     1       0.463  -9.738  -6.134  0.00  0.00    -0.380 N 
ATOM     30  C   UNL     1       0.275  -9.181  -4.790  0.00  0.00    +0.144 C 
ATOM     31  F   UNL     1       5.912  -9.540  -6.621  0.00  0.00    -0.205 F 
ATOM     32  H   UNL     1      -0.243 -10.044  -6.724  0.00  0.00    +0.160 HD
ENDBRANCH  21  22
ENDBRANCH  20  21
ENDBRANCH   3  20
TORSDOF 6
