REMARK  Name = ZINC63142436
REMARK  7 active torsions:
REMARK  status: ('A' for Active; 'I' for Inactive)
REMARK    1  A    between atoms: C_7  and  N_15
REMARK    2  A    between atoms: N_15  and  C_16
REMARK    3  A    between atoms: C_16  and  C_17
REMARK    4  A    between atoms: N_19  and  CA_20
REMARK    5  A    between atoms: CA_20  and  CB_22
REMARK    6  A    between atoms: CA_20  and  C_32
REMARK    7  A    between atoms: CB_22  and  CG_23
REMARK                            x       y       z     vdW  Elec       q    Type
REMARK                         _______ _______ _______ _____ _____    ______ ____
ROOT
ATOM      1  C   UNK A   0      -1.237  -4.799  -0.468  0.00  0.00    +0.231 C 
ATOM      2  O   UNK A   0      -2.172  -4.099  -0.139  0.00  0.00    -0.274 OA
ATOM      3  N   TRP A   1      -1.451  -6.076  -0.843  0.00  0.00    -0.301 N 
ATOM      4  H   TRP A   1      -0.704  -6.636  -1.105  0.00  0.00    +0.150 HD
ENDROOT
BRANCH   1   5
ATOM      5  C   UNK A   0       0.163  -4.242  -0.456  0.00  0.00    +0.197 C 
BRANCH   5   6
ATOM      6  N   UNK A   0       0.128  -2.845  -0.014  0.00  0.00    -0.334 N 
ATOM      7  H   UNK A   0      -0.182  -2.626   0.879  0.00  0.00    +0.147 HD
BRANCH   6  14
ATOM      8  C   UNK A   0      -2.627  -0.779  -2.425  0.00  0.00    +0.001 A 
ATOM      9  C   UNK A   0      -2.178   0.231  -3.276  0.00  0.00    +0.002 A 
ATOM     10  C   UNK A   0      -0.861   0.561  -3.341  0.00  0.00    +0.026 A 
ATOM     11  C   UNK A   0       0.074  -0.123  -2.538  0.00  0.00    +0.049 A 
ATOM     12  C   UNK A   0      -0.387  -1.151  -1.673  0.00  0.00    +0.020 A 
ATOM     13  C   UNK A   0      -1.756  -1.463  -1.634  0.00  0.00    +0.012 A 
ATOM     14  C   UNK A   0       0.538  -1.843  -0.866  0.00  0.00    +0.046 A 
ATOM     15  C   UNK A   0       1.895  -1.475  -0.959  0.00  0.00    +0.020 A 
ATOM     16  C   UNK A   0       2.873  -2.121  -0.185  0.00  0.00    +0.012 A 
ATOM     17  C   UNK A   0       4.176  -1.746  -0.295  0.00  0.00    +0.001 A 
ATOM     18  C   UNK A   0       4.556  -0.726  -1.168  0.00  0.00    +0.002 A 
ATOM     19  C   UNK A   0       3.638  -0.077  -1.932  0.00  0.00    +0.026 A 
ATOM     20  C   UNK A   0       2.276  -0.436  -1.849  0.00  0.00    +0.049 A 
ATOM     21  N   UNK A   0       1.367   0.191  -2.594  0.00  0.00    -0.354 N 
ATOM     22  H   UNK A   0       1.656   0.897  -3.193  0.00  0.00    +0.166 HD
ENDBRANCH   6  14
ENDBRANCH   5   6
ENDBRANCH   1   5
BRANCH   3  23
ATOM     23  CA  TRP A   1      -2.812  -6.618  -0.855  0.00  0.00    +0.190 C 
BRANCH  23  24
ATOM     24  C   TRP A   1      -3.166  -7.116   0.523  0.00  0.00    +0.376 C 
ATOM     25  O   TRP A   1      -4.325  -7.093   0.900  0.00  0.00    -0.244 OA
ATOM     26  OXT TRP A   1      -2.294  -7.542   1.260  0.00  0.00    -0.244 OA
ENDBRANCH  23  24
BRANCH  23  27
ATOM     27  CB  TRP A   1      -2.891  -7.776  -1.851  0.00  0.00    +0.067 C 
BRANCH  27  28
ATOM     28  CG  TRP A   1      -2.657  -7.255  -3.246  0.00  0.00    -0.039 C 
ATOM     29  CD2 TRP A   1      -1.486  -7.237  -3.921  0.00  0.00    -0.001 A 
ATOM     30  CE3 TRP A   1      -0.130  -7.677  -3.572  0.00  0.00    +0.010 A 
ATOM     31  CZ3 TRP A   1       0.863  -7.524  -4.478  0.00  0.00    +0.001 A 
ATOM     32  CH2 TRP A   1       0.630  -6.956  -5.738  0.00  0.00    +0.002 A 
ATOM     33  CZ2 TRP A   1      -0.588  -6.527  -6.131  0.00  0.00    +0.026 A 
ATOM     34  CE2 TRP A   1      -1.705  -6.640  -5.258  0.00  0.00    +0.043 A 
ATOM     35  NE1 TRP A   1      -2.964  -6.303  -5.404  0.00  0.00    -0.380 N 
ATOM     36  CD1 TRP A   1      -3.687  -6.654  -4.177  0.00  0.00    +0.144 C 
ATOM     37  HE1 TRP A   1      -3.353  -5.894  -6.193  0.00  0.00    +0.160 HD
ENDBRANCH  27  28
ENDBRANCH  23  27
ENDBRANCH   3  23
TORSDOF 7
