REMARK  Name = ZINC39976634
REMARK  8 active torsions:
REMARK  status: ('A' for Active; 'I' for Inactive)
REMARK    1  A    between atoms: C_1  and  C_2
REMARK    2  A    between atoms: C_6  and  C_26
REMARK    3  A    between atoms: C_7  and  N_8
REMARK    4  A    between atoms: N_8  and  C_9
REMARK    5  A    between atoms: C_9  and  C_11
REMARK    6  A    between atoms: C_9  and  C_12
REMARK    7  A    between atoms: N_14  and  N_15
REMARK    8  A    between atoms: C_16  and  C_17
REMARK                            x       y       z     vdW  Elec       q    Type
REMARK                         _______ _______ _______ _____ _____    ______ ____
ROOT
ATOM      1  C   UNL     1       0.900   0.013   4.716  0.00  0.00    +0.252 C 
ATOM      2  O   UNL     1       1.517   1.016   4.427  0.00  0.00    -0.272 OA
ATOM      3  N   UNL     1       0.518  -0.199   5.990  0.00  0.00    -0.205 N 
ATOM      4  H   UNL     1       0.024  -1.001   6.221  0.00  0.00    +0.177 HD
ENDROOT
BRANCH   1   5
ATOM      5  C   UNL     1       0.561  -0.996   3.649  0.00  0.00    +0.155 C 
ATOM      6  C   UNL     1      -0.959  -1.151   3.558  0.00  0.00    +0.038 C 
BRANCH   5   7
ATOM      7  N   UNL     1       1.083  -0.537   2.359  0.00  0.00    -0.333 N 
ATOM      8  H   UNL     1       0.632   0.174   1.879  0.00  0.00    +0.147 HD
BRANCH   7  15
ATOM      9  C   UNL     1       0.914  -3.232   1.460  0.00  0.00    +0.045 C 
ATOM     10  C   UNL     1       2.193  -2.439   1.371  0.00  0.00    -0.029 A 
ATOM     11  C   UNL     1       3.328  -3.015   0.835  0.00  0.00    +0.005 A 
ATOM     12  C   UNL     1       4.501  -2.289   0.752  0.00  0.00    +0.001 A 
ATOM     13  C   UNL     1       4.543  -0.983   1.204  0.00  0.00    +0.005 A 
ATOM     14  C   UNL     1       3.412  -0.400   1.742  0.00  0.00    -0.029 A 
ATOM     15  C   UNL     1       2.230  -1.125   1.821  0.00  0.00    +0.034 A 
ATOM     16  C   UNL     1       3.458   1.023   2.235  0.00  0.00    +0.045 C 
ENDBRANCH   7  15
ENDBRANCH   5   7
ENDBRANCH   1   5
BRANCH   3  17
ATOM     17  N   UNL     1       0.833   0.739   6.982  0.00  0.00    -0.188 NA
ATOM     18  C   UNL     1       0.586   0.471   8.239  0.00  0.00    +0.136 C 
BRANCH  18  19
ATOM     19  C   UNL     1       0.137  -0.805   8.609  0.00  0.00    +0.000 C 
ATOM     20  C   UNL     1      -0.018  -1.301   9.901  0.00  0.00    +0.004 A 
ATOM     21  C   UNL     1       0.205  -0.733  11.175  0.00  0.00    +0.010 A 
ATOM     22  C   UNL     1      -0.038  -1.467  12.290  0.00  0.00    +0.001 A 
ATOM     23  C   UNL     1      -0.507  -2.781  12.215  0.00  0.00    +0.002 A 
ATOM     24  C   UNL     1      -0.744  -3.390  11.029  0.00  0.00    +0.026 A 
ATOM     25  C   UNL     1      -0.513  -2.687   9.816  0.00  0.00    +0.043 A 
ATOM     26  N   UNL     1      -0.662  -3.046   8.559  0.00  0.00    -0.380 N 
ATOM     27  C   UNL     1      -0.285  -1.928   7.688  0.00  0.00    +0.150 C 
ATOM     28  H   UNL     1      -0.975  -3.913   8.256  0.00  0.00    +0.160 HD
ENDBRANCH  18  19
ENDBRANCH   3  17
TORSDOF 5
