REMARK  Name = ZINC08789928
REMARK  8 active torsions:
REMARK  status: ('A' for Active; 'I' for Inactive)
REMARK    1  A    between atoms: C_1  and  C_2
REMARK    2  A    between atoms: C_2  and  C_3
REMARK    3  A    between atoms: C_14  and  C_16
REMARK    4  A    between atoms: C_16  and  C_18
REMARK    5  A    between atoms: C_16  and  O_19
REMARK    6  A    between atoms: N_22  and  C_25
REMARK    7  A    between atoms: C_25  and  C_26
REMARK    8  A    between atoms: C_26  and  C_27
REMARK                            x       y       z     vdW  Elec       q    Type
REMARK                         _______ _______ _______ _____ _____    ______ ____
ROOT
ATOM      1  C   UNL     1      -0.742   1.585  -1.213  0.00  0.00    -0.047 A 
ATOM      2  C   UNL     1      -1.751   0.826  -1.777  0.00  0.00    +0.005 A 
ATOM      3  C   UNL     1      -2.424   1.280  -2.891  0.00  0.00    +0.024 A 
ATOM      4  C   UNL     1      -2.085   2.503  -3.465  0.00  0.00    +0.036 A 
ATOM      5  C   UNL     1      -1.066   3.257  -2.891  0.00  0.00    -0.027 A 
ATOM      6  C   UNL     1      -0.399   2.801  -1.776  0.00  0.00    +0.008 A 
ATOM      7  C   UNL     1      -0.952   4.499  -3.729  0.00  0.00    +0.050 C 
ATOM      8  C   UNL     1       0.452   4.651  -4.324  0.00  0.00    +0.088 C 
ATOM      9  C   UNL     1       1.172   5.653  -3.380  0.00  0.00    +0.075 C 
ATOM     10  C   UNL     1       0.130   5.990  -2.292  0.00  0.00    -0.028 C 
ATOM     11  C   UNL     1       2.285   4.836  -2.763  0.00  0.00    +0.224 C 
ATOM     12  O   UNL     1       3.097   5.249  -1.963  0.00  0.00    -0.275 OA
ATOM     13  N   UNL     1       2.236   3.587  -3.239  0.00  0.00    -0.241 N 
ATOM     14  C   UNL     1       1.249   3.365  -4.115  0.00  0.00    +0.225 C 
ATOM     15  O   UNL     1       1.024   2.307  -4.664  0.00  0.00    -0.275 OA
ATOM     16  C   UNL     1      -1.993   4.342  -4.803  0.00  0.00    +0.211 C 
ATOM     17  O   UNL     1      -2.234   5.125  -5.698  0.00  0.00    -0.277 OA
ATOM     18  N   UNL     1      -2.606   3.164  -4.580  0.00  0.00    -0.286 N 
ATOM     19  H   UNL     1      -3.325   2.815  -5.129  0.00  0.00    +0.155 HD
ATOM     20  N   UNL     1      -1.155   5.695  -2.930  0.00  0.00    +0.396 N 
ATOM     21  H   UNL     1      -1.876   5.529  -2.218  0.00  0.00    -0.083 HD
ATOM     22  H   UNL     1      -1.441   6.478  -3.530  0.00  0.00    -0.083 HD
ENDROOT
BRANCH   1  24
ATOM     23  C   UNL     1      -0.729   1.579   1.267  0.00  0.00    +0.009 C 
ATOM     24  C   UNL     1      -0.013   1.086   0.008  0.00  0.00    +0.032 C 
ENDBRANCH   1  24
BRANCH  10  25
ATOM     25  C   UNL     1       0.230   7.463  -1.892  0.00  0.00    +0.098 C 
ATOM     26  C   UNL     1      -0.861   7.790  -0.871  0.00  0.00    +0.036 C 
BRANCH  25  27
ATOM     27  O   UNL     1       1.513   7.714  -1.315  0.00  0.00    -0.394 OA
ATOM     28  H   UNL     1       1.697   7.190  -0.523  0.00  0.00    +0.210 HD
ENDBRANCH  25  27
ENDBRANCH  10  25
BRANCH  13  29
ATOM     29  C   UNL     1       3.184   2.546  -2.834  0.00  0.00    +0.121 C 
BRANCH  29  30
ATOM     30  C   UNL     1       2.638   1.807  -1.611  0.00  0.00    +0.054 C 
BRANCH  30  31
ATOM     31  C   UNL     1       3.614   0.737  -1.194  0.00  0.00    -0.046 A 
ATOM     32  C   UNL     1       3.507  -0.538  -1.718  0.00  0.00    +0.004 A 
ATOM     33  C   UNL     1       4.405  -1.518  -1.339  0.00  0.00    +0.000 A 
ATOM     34  C   UNL     1       5.404  -1.227  -0.429  0.00  0.00    +0.000 A 
ATOM     35  C   UNL     1       5.507   0.047   0.099  0.00  0.00    +0.000 A 
ATOM     36  C   UNL     1       4.612   1.028  -0.284  0.00  0.00    +0.004 A 
ENDBRANCH  30  31
ENDBRANCH  29  30
ENDBRANCH  13  29
TORSDOF 6
