REMARK  Name = ZINC01747327
REMARK  8 active torsions:
REMARK  status: ('A' for Active; 'I' for Inactive)
REMARK    1  A    between atoms: C_1  and  C_2
REMARK    2  A    between atoms: C_2  and  C_4
REMARK    3  A    between atoms: C_2  and  S_20
REMARK    4  A    between atoms: N_6  and  C_7
REMARK    5  A    between atoms: C_8  and  C_16
REMARK    6  A    between atoms: C_16  and  O_18
REMARK    7  A    between atoms: O_18  and  C_19
REMARK    8  A    between atoms: S_20  and  C_21
REMARK                            x       y       z     vdW  Elec       q    Type
REMARK                         _______ _______ _______ _____ _____    ______ ____
ROOT
ATOM      1  C   UNL     1      -0.018   1.503   0.010  0.00  0.00    +0.231 C 
ATOM      2  O   UNL     1      -1.077   2.095   0.018  0.00  0.00    -0.274 OA
ATOM      3  N   UNL     1       1.139   2.192   0.003  0.00  0.00    -0.278 N 
ATOM      4  H   UNL     1       1.986   1.719  -0.008  0.00  0.00    +0.155 HD
ENDROOT
BRANCH   3   5
ATOM      5  C   UNL     1       1.121   3.578   0.011  0.00  0.00    +0.086 A 
ATOM      6  C   UNL     1       2.197   4.456   0.011  0.00  0.00    +0.091 A 
ATOM      7  C   UNL     1       1.902   5.879   0.015  0.00  0.00    -0.021 A 
ATOM      8  C   UNL     1       0.589   6.195   0.030  0.00  0.00    -0.004 A 
ATOM      9  S   UNL     1      -0.251   4.636   0.030  0.00  0.00    -0.077 S 
ATOM     10  C   UNL     1      -0.010   7.567   0.045  0.00  0.00    +0.043 C 
ATOM     11  C   UNL     1       1.090   8.571   0.418  0.00  0.00    +0.005 C 
ATOM     12  C   UNL     1       2.331   8.283  -0.433  0.00  0.00    +0.005 C 
ATOM     13  C   UNL     1       2.970   6.966   0.010  0.00  0.00    +0.037 C 
BRANCH   6  14
ATOM     14  C   UNL     1       3.577   3.966   0.003  0.00  0.00    +0.342 C 
ATOM     15  O   UNL     1       4.146   3.768  -1.054  0.00  0.00    -0.245 OA
BRANCH  14  16
ATOM     16  O   UNL     1       4.217   3.734   1.167  0.00  0.00    -0.464 OA
ATOM     17  C   UNL     1       5.583   3.249   1.083  0.00  0.00    +0.280 C 
ENDBRANCH  14  16
ENDBRANCH   6  14
ENDBRANCH   3   5
BRANCH   1  19
ATOM     18  C   UNL     1       0.246  -0.503  -1.424  0.00  0.00    +0.029 C 
ATOM     19  C   UNL     1       0.002  -0.004   0.002  0.00  0.00    +0.136 C 
BRANCH  19  20
ATOM     20  S   UNL     1      -1.591  -0.634   0.599  0.00  0.00    -0.086 S 
BRANCH  20  21
ATOM     21  C   UNL     1      -1.360  -2.379   0.671  0.00  0.00    +0.182 A 
ATOM     22  C   UNL     1      -2.449  -3.260   1.124  0.00  0.00    +0.286 A 
ATOM     23  O   UNL     1      -3.523  -2.793   1.454  0.00  0.00    -0.265 OA
ATOM     24  N   UNL     1      -2.241  -4.593   1.164  0.00  0.00    -0.272 N 
ATOM     25  H   UNL     1      -2.951  -5.185   1.458  0.00  0.00    +0.174 HD
ATOM     26  C   UNL     1      -1.049  -5.100   0.801  0.00  0.00    +0.343 A 
ATOM     27  O   UNL     1      -0.873  -6.303   0.845  0.00  0.00    -0.245 OA
ATOM     28  N   UNL     1      -0.048  -4.301   0.390  0.00  0.00    -0.227 N 
ATOM     29  H   UNL     1       0.802  -4.692   0.135  0.00  0.00    +0.194 HD
ATOM     30  N   UNL     1      -0.215  -2.913   0.327  0.00  0.00    -0.158 NA
ENDBRANCH  20  21
ENDBRANCH  19  20
ENDBRANCH   1  19
TORSDOF 6
