REMARK  Name = ZINC37788193
REMARK  6 active torsions:
REMARK  status: ('A' for Active; 'I' for Inactive)
REMARK    1  A    between atoms: C_1  and  C_2
REMARK    2  A    between atoms: C_2  and  O_3
REMARK    3  A    between atoms: O_3  and  C_4
REMARK    4  A    between atoms: C_4  and  C_6
REMARK    5  A    between atoms: C_9  and  N_12
REMARK    6  A    between atoms: N_12  and  C_13
REMARK                            x       y       z     vdW  Elec       q    Type
REMARK                         _______ _______ _______ _____ _____    ______ ____
ROOT
ATOM      1  C   UNL     1       1.958  -2.525   2.357  0.00  0.00    +0.098 C 
ATOM      2  C   UNL     1       1.167  -1.976   3.546  0.00  0.00    +0.013 C 
ATOM      3  C   UNL     1       1.750  -2.532   4.847  0.00  0.00    -0.015 C 
ATOM      4  C   UNL     1       1.658  -4.059   4.835  0.00  0.00    -0.071 C 
ATOM      5  C   UNL     1       2.448  -4.609   3.646  0.00  0.00    -0.015 C 
ATOM      6  C   UNL     1       1.865  -4.053   2.345  0.00  0.00    +0.013 C 
ENDROOT
BRANCH   4   7
ATOM      7  N   UNL     1       2.217  -4.594   6.084  0.00  0.00    +0.383 N 
ATOM      8  H   UNL     1       3.208  -4.404   6.117  0.00  0.00    -0.085 HD
ATOM      9  H   UNL     1       1.764  -4.154   6.871  0.00  0.00    -0.085 HD
BRANCH   7  10
ATOM     10  C   UNL     1       1.995  -6.045   6.139  0.00  0.00    -0.071 C 
ATOM     11  C   UNL     1       0.496  -6.327   6.258  0.00  0.00    -0.016 C 
ATOM     12  C   UNL     1       0.225  -7.794   5.920  0.00  0.00    -0.002 C 
ATOM     13  C   UNL     1       1.024  -8.187   4.676  0.00  0.00    -0.000 C 
ATOM     14  C   UNL     1       2.099  -9.205   5.062  0.00  0.00    -0.000 C 
ATOM     15  C   UNL     1       3.249  -8.487   5.771  0.00  0.00    -0.000 C 
ATOM     16  C   UNL     1       2.832  -8.145   7.202  0.00  0.00    -0.002 C 
ATOM     17  C   UNL     1       2.722  -6.626   7.353  0.00  0.00    -0.016 C 
ENDBRANCH   7  10
ENDBRANCH   4   7
BRANCH   1  18
ATOM     18  C   UNL     1       1.384  -1.977   1.076  0.00  0.00    +0.310 C 
ATOM     19  O   UNL     1       0.945  -2.731   0.239  0.00  0.00    -0.251 OA
BRANCH  18  20
ATOM     20  O   UNL     1       1.359  -0.652   0.865  0.00  0.00    -0.465 OA
BRANCH  20  22
ATOM     21  C   UNL     1       0.859   1.325  -0.432  0.00  0.00    +0.048 C 
ATOM     22  C   UNL     1       0.800  -0.203  -0.371  0.00  0.00    +0.229 C 
ENDBRANCH  20  22
ENDBRANCH  18  20
ENDBRANCH   1  18
TORSDOF 5
