REMARK  Name = ZINC55638047
REMARK  7 active torsions:
REMARK  status: ('A' for Active; 'I' for Inactive)
REMARK    1  A    between atoms: C_3  and  S_22
REMARK    2  A    between atoms: C_5  and  S_7
REMARK    3  A    between atoms: S_7  and  N_10
REMARK    4  A    between atoms: N_10  and  C_11
REMARK    5  A    between atoms: C_14  and  O_18
REMARK    6  A    between atoms: O_18  and  C_19
REMARK    7  A    between atoms: S_22  and  N_25
REMARK                            x       y       z     vdW  Elec       q    Type
REMARK                         _______ _______ _______ _____ _____    ______ ____
ROOT
ATOM      1  S   UNL     1       1.232  -2.441  -0.022  0.00  0.00    +0.092 S 
ATOM      2  O   UNL     1      -0.013  -2.861  -0.562  0.00  0.00    -0.148 OA
ATOM      3  O   UNL     1       2.477  -2.827  -0.588  0.00  0.00    -0.148 OA
ENDROOT
BRANCH   1   8
ATOM      4  C   UNL     1      -0.017   1.378   0.010  0.00  0.00    +0.004 A 
ATOM      5  C   UNL     1       1.171   2.085   0.002  0.00  0.00    +0.028 A 
ATOM      6  C   UNL     1       2.377   1.411  -0.013  0.00  0.00    +0.107 A 
ATOM      7  C   UNL     1       2.396   0.028  -0.020  0.00  0.00    +0.057 A 
ATOM      8  C   UNL     1       1.209  -0.679  -0.012  0.00  0.00    +0.112 A 
ATOM      9  C   UNL     1       0.002  -0.004   0.002  0.00  0.00    +0.029 A 
BRANCH   6  10
ATOM     10  S   UNL     1       3.891   2.312  -0.024  0.00  0.00    +0.056 S 
ATOM     11  O   UNL     1       4.872   1.453  -0.588  0.00  0.00    -0.153 OA
ATOM     12  O   UNL     1       3.597   3.593  -0.566  0.00  0.00    -0.153 OA
BRANCH  10  13
ATOM     13  N   UNL     1       4.327   2.556   1.555  0.00  0.00    -0.204 NA
ATOM     14  H   UNL     1       3.768   2.215   2.271  0.00  0.00    +0.144 HD
ATOM     15  H   UNL     1       5.142   3.039   1.764  0.00  0.00    +0.144 HD
ENDBRANCH  10  13
ENDBRANCH   6  10
ENDBRANCH   1   8
BRANCH   1  16
ATOM     16  N   UNL     1       1.256  -2.939   1.557  0.00  0.00    -0.098 NA
BRANCH  16  17
ATOM     17  C   UNL     1       1.278  -4.305   1.859  0.00  0.00    +0.077 A 
ATOM     18  C   UNL     1       1.285  -5.243   0.835  0.00  0.00    +0.030 A 
ATOM     19  C   UNL     1       1.307  -6.592   1.133  0.00  0.00    +0.051 A 
ATOM     20  C   UNL     1       1.320  -7.011   2.455  0.00  0.00    +0.162 A 
ATOM     21  C   UNL     1       1.312  -6.074   3.480  0.00  0.00    +0.167 A 
ATOM     22  C   UNL     1       1.297  -4.724   3.183  0.00  0.00    +0.068 A 
ATOM     23  F   UNL     1       1.325  -6.482   4.768  0.00  0.00    -0.202 F 
BRANCH  20  24
ATOM     24  O   UNL     1       1.340  -8.339   2.747  0.00  0.00    -0.431 OA
BRANCH  24  25
ATOM     25  C   UNL     1       1.347  -9.246   1.643  0.00  0.00    +0.541 C 
ATOM     26  F   UNL     1       0.197  -9.049   0.870  0.00  0.00    -0.166 F 
ATOM     27  F   UNL     1       2.482  -9.017   0.858  0.00  0.00    -0.166 F 
ENDBRANCH  24  25
ENDBRANCH  20  24
ENDBRANCH  16  17
ENDBRANCH   1  16
TORSDOF 7
