REMARK  Name = ZINC20310126
REMARK  7 active torsions:
REMARK  status: ('A' for Active; 'I' for Inactive)
REMARK    1  A    between atoms: C_1  and  C_2
REMARK    2  A    between atoms: C_2  and  O_3
REMARK    3  A    between atoms: O_3  and  C_4
REMARK    4  A    between atoms: C_9  and  N_12
REMARK    5  A    between atoms: N_12  and  C_13
REMARK    6  A    between atoms: C_13  and  C_15
REMARK    7  A    between atoms: C_13  and  C_16
REMARK                            x       y       z     vdW  Elec       q    Type
REMARK                         _______ _______ _______ _____ _____    ______ ____
ROOT
ATOM      1  N   UNL     1       1.365   1.594  -0.002  0.00  0.00    +0.388 N 
ATOM      2  H   UNL     1       1.731   1.642  -1.039  0.00  0.00    -0.084 HD
ATOM      3  H   UNL     1       1.389   2.600   0.441  0.00  0.00    -0.084 HD
ENDROOT
BRANCH   1   9
ATOM      4  C   UNL     1      -4.013   2.017   0.052  0.00  0.00    +0.403 C 
ATOM      5  O   UNL     1      -4.559   2.310  -0.994  0.00  0.00    -0.226 OA
ATOM      6  N   UNL     1      -2.826   1.380   0.037  0.00  0.00    -0.268 N 
ATOM      7  C   UNL     1      -2.178   1.033  -1.236  0.00  0.00    +0.109 C 
ATOM      8  C   UNL     1      -0.752   1.593  -1.232  0.00  0.00    +0.003 C 
ATOM      9  C   UNL     1      -0.013   1.086   0.008  0.00  0.00    -0.068 C 
ATOM     10  C   UNL     1      -0.729   1.579   1.268  0.00  0.00    +0.003 C 
ATOM     11  C   UNL     1      -2.154   1.019   1.293  0.00  0.00    +0.109 C 
BRANCH   4  12
ATOM     12  O   UNL     1      -4.595   2.329   1.225  0.00  0.00    -0.451 OA
BRANCH  12  14
ATOM     13  C   UNL     1      -6.375   3.284   2.585  0.00  0.00    +0.048 C 
ATOM     14  C   UNL     1      -5.874   3.015   1.165  0.00  0.00    +0.230 C 
ENDBRANCH  12  14
ENDBRANCH   4  12
ENDBRANCH   1   9
BRANCH   1  15
ATOM     15  C   UNL     1       2.256   0.718   0.771  0.00  0.00    +0.014 C 
ATOM     16  C   UNL     1       2.741  -0.429  -0.118  0.00  0.00    -0.004 C 
BRANCH  15  17
ATOM     17  C   UNL     1       3.440   1.511   1.260  0.00  0.00    +0.206 C 
ATOM     18  O   UNL     1       3.534   2.689   0.991  0.00  0.00    -0.277 OA
ATOM     19  N   UNL     1       4.396   0.910   1.997  0.00  0.00    -0.242 N 
ATOM     20  C   UNL     1       5.455   1.619   2.434  0.00  0.00    +0.303 C 
ATOM     21  O   UNL     1       5.549   2.800   2.164  0.00  0.00    -0.253 OA
ATOM     22  N   UNL     1       6.410   1.018   3.171  0.00  0.00    -0.313 N 
ATOM     23  H   UNL     1       4.311  -0.159   2.241  0.00  0.00    +0.159 HD
ATOM     24  H   UNL     1       7.275   1.597   3.528  0.00  0.00    +0.146 HD
ATOM     25  H   UNL     1       6.325  -0.051   3.415  0.00  0.00    +0.146 HD
ENDBRANCH  15  17
ENDBRANCH   1  15
TORSDOF 5
