REMARK  Name = ZINC02241689
REMARK  8 active torsions:
REMARK  status: ('A' for Active; 'I' for Inactive)
REMARK    1  A    between atoms: C_1  and  C_2
REMARK    2  A    between atoms: N_8  and  C_9
REMARK    3  A    between atoms: C_9  and  C_10
REMARK    4  A    between atoms: C_15  and  O_16
REMARK    5  A    between atoms: O_16  and  C_17
REMARK    6  A    between atoms: C_18  and  C_26
REMARK    7  A    between atoms: C_20  and  C_24
REMARK    8  A    between atoms: C_21  and  N_23
REMARK                            x       y       z     vdW  Elec       q    Type
REMARK                         _______ _______ _______ _____ _____    ______ ____
ROOT
ATOM      1  C   UNL     1      -6.717   0.437  -1.479  0.00  0.00    +0.064 C 
ATOM      2  C   UNL     1      -5.622   1.395  -1.086  0.00  0.00    +0.023 A 
ATOM      3  C   UNL     1      -4.414   0.914  -0.725  0.00  0.00    +0.068 A 
ATOM      4  C   UNL     1      -3.386   1.807  -0.355  0.00  0.00    +0.141 A 
ATOM      5  C   UNL     1      -3.641   3.162  -0.373  0.00  0.00    +0.072 A 
ATOM      6  C   UNL     1      -4.910   3.615  -0.756  0.00  0.00    +0.259 A 
ATOM      7  O   UNL     1      -5.149   4.812  -0.776  0.00  0.00    -0.267 OA
ATOM      8  N   UNL     1      -5.865   2.732  -1.101  0.00  0.00    -0.308 N 
ATOM      9  C   UNL     1      -2.574   4.149   0.014  0.00  0.00    +0.103 C 
ATOM     10  C   UNL     1      -1.225   3.487   0.003  0.00  0.00    +0.098 C 
ATOM     11  C   UNL     1      -1.104   2.138  -0.005  0.00  0.00    +0.199 C 
ATOM     12  O   UNL     1      -2.177   1.329   0.008  0.00  0.00    -0.441 OA
ENDROOT
BRANCH   9  13
ATOM     13  C   UNL     1      -2.857   4.673   1.399  0.00  0.00    -0.034 A 
ATOM     14  C   UNL     1      -2.916   3.799   2.469  0.00  0.00    +0.005 A 
ATOM     15  C   UNL     1      -3.170   4.279   3.740  0.00  0.00    +0.015 A 
ATOM     16  C   UNL     1      -3.375   5.633   3.939  0.00  0.00    +0.018 A 
ATOM     17  C   UNL     1      -3.321   6.505   2.868  0.00  0.00    +0.015 A 
ATOM     18  C   UNL     1      -3.062   6.025   1.598  0.00  0.00    +0.005 A 
ATOM     19 BR   UNL     1      -3.729   6.289   5.677  0.00  0.00    -0.050 Br
ENDBRANCH   9  13
BRANCH  11  20
ATOM     20  N   UNL     1       0.150   1.582  -0.019  0.00  0.00    -0.328 N 
ATOM     21  H   UNL     1       0.253   0.617  -0.021  0.00  0.00    +0.145 HD
ATOM     22  H   UNL     1       0.934   2.153  -0.032  0.00  0.00    +0.145 HD
ENDBRANCH  11  20
BRANCH  10  23
ATOM     23  C   UNL     1      -0.044   4.298  -0.006  0.00  0.00    +0.101 C 
ATOM     24  N   UNL     1       0.892   4.941  -0.013  0.00  0.00    -0.191 NA
ENDBRANCH  10  23
BRANCH   8  25
ATOM     25  C   UNL     1      -7.188   3.220  -1.499  0.00  0.00    +0.164 C 
BRANCH  25  26
ATOM     26  C   UNL     1      -8.079   3.301  -0.287  0.00  0.00    +0.014 A 
ATOM     27  C   UNL     1      -8.985   2.292  -0.026  0.00  0.00    +0.009 A 
ATOM     28  C   UNL     1      -9.800   2.363   1.089  0.00  0.00    +0.001 A 
ATOM     29  C   UNL     1      -9.717   3.450   1.940  0.00  0.00    +0.004 A 
ATOM     30  C   UNL     1      -8.817   4.465   1.681  0.00  0.00    +0.046 A 
ATOM     31  C   UNL     1      -7.995   4.393   0.565  0.00  0.00    +0.125 A 
BRANCH  31  32
ATOM     32  O   UNL     1      -7.108   5.390   0.308  0.00  0.00    -0.495 OA
ATOM     33  C   UNL     1      -7.076   6.483   1.228  0.00  0.00    +0.277 C 
ENDBRANCH  31  32
ENDBRANCH  25  26
ENDBRANCH   8  25
TORSDOF 6
