REMARK  Name = ZINC43303381
REMARK  8 active torsions:
REMARK  status: ('A' for Active; 'I' for Inactive)
REMARK    1  A    between atoms: C_1  and  C_2
REMARK    2  A    between atoms: C_2  and  N_3
REMARK    3  A    between atoms: C_7  and  C_9
REMARK    4  A    between atoms: C_9  and  C_11
REMARK    5  A    between atoms: C_9  and  N_12
REMARK    6  A    between atoms: N_12  and  C_13
REMARK    7  A    between atoms: C_13  and  C_15
REMARK    8  A    between atoms: C_13  and  C_16
REMARK                            x       y       z     vdW  Elec       q    Type
REMARK                         _______ _______ _______ _____ _____    ______ ____
ROOT
ATOM      1  N   UNL     1      -4.487  -5.625   0.015  0.00  0.00    -0.299 NA
ATOM      2  H   UNL     1      -3.680  -5.973  -0.481  0.00  0.00    +0.123 HD
ENDROOT
BRANCH   1   3
ATOM      3  C   UNL     1      -4.507  -4.156   0.023  0.00  0.00    +0.138 C 
ATOM      4  C   UNL     1      -5.223  -3.662   1.282  0.00  0.00    +0.034 C 
BRANCH   3   9
ATOM      5  N   UNL     1      -1.372  -0.511   0.012  0.00  0.00    -0.299 N 
ATOM      6  C   UNL     1      -1.601  -1.839   0.007  0.00  0.00    +0.306 C 
ATOM      7  O   UNL     1      -0.666  -2.617  -0.006  0.00  0.00    -0.252 OA
ATOM      8  N   UNL     1      -2.865  -2.306   0.017  0.00  0.00    -0.239 N 
ATOM      9  C   UNL     1      -3.093  -3.634   0.012  0.00  0.00    +0.237 C 
ATOM     10  O   UNL     1      -2.161  -4.409  -0.001  0.00  0.00    -0.274 OA
ATOM     11  H   UNL     1      -2.118   0.109   0.023  0.00  0.00    +0.150 HD
ATOM     12  H   UNL     1      -3.611  -1.686   0.028  0.00  0.00    +0.159 HD
BRANCH   5  14
ATOM     13  C   UNL     1      -0.019   1.526   0.010  0.00  0.00    +0.024 C 
ATOM     14  C   UNL     1       0.002  -0.004   0.002  0.00  0.00    +0.102 C 
ENDBRANCH   5  14
ENDBRANCH   3   9
ENDBRANCH   1   3
BRANCH   1  15
ATOM     15  C   UNL     1      -5.728  -6.165  -0.556  0.00  0.00    +0.083 C 
ATOM     16  C   UNL     1      -5.607  -6.220  -2.080  0.00  0.00    +0.029 C 
BRANCH  15  17
ATOM     17  C   UNL     1      -5.965  -7.553  -0.020  0.00  0.00    -0.010 A 
ATOM     18  C   UNL     1      -4.917  -8.272   0.523  0.00  0.00    +0.046 A 
ATOM     19  C   UNL     1      -5.133  -9.547   1.015  0.00  0.00    +0.142 A 
ATOM     20  C   UNL     1      -6.402 -10.103   0.964  0.00  0.00    +0.077 A 
ATOM     21  C   UNL     1      -7.450  -9.382   0.421  0.00  0.00    +0.043 A 
ATOM     22  C   UNL     1      -7.232  -8.106  -0.067  0.00  0.00    +0.047 A 
ATOM     23 CL   UNL     1      -8.550  -7.199  -0.743  0.00  0.00    -0.083 Cl
ATOM     24 CL   UNL     1      -6.676 -11.702   1.580  0.00  0.00    -0.081 Cl
ATOM     25  F   UNL     1      -4.109 -10.251   1.545  0.00  0.00    -0.204 F 
ENDBRANCH  15  17
ENDBRANCH   1  15
TORSDOF 5
