REMARK  Name = ZINC42015560
REMARK  6 active torsions:
REMARK  status: ('A' for Active; 'I' for Inactive)
REMARK    1  A    between atoms: C_1  and  C_2
REMARK    2  A    between atoms: C_2  and  C_3
REMARK    3  A    between atoms: C_3  and  C_5
REMARK    4  A    between atoms: C_3  and  N_6
REMARK    5  A    between atoms: C_7  and  C_11
REMARK    6  A    between atoms: C_16  and  N_17
REMARK                            x       y       z     vdW  Elec       q    Type
REMARK                         _______ _______ _______ _____ _____    ______ ____
ROOT
ATOM      1  C   UNL     1      -2.915  -2.248  -2.141  0.00  0.00    +0.041 A 
ATOM      2  C   UNL     1      -2.462  -1.229  -2.980  0.00  0.00    +0.015 A 
ATOM      3  C   UNL     1      -3.267  -0.768  -3.999  0.00  0.00    +0.021 A 
ATOM      4  C   UNL     1      -4.527  -1.312  -4.196  0.00  0.00    +0.043 A 
ATOM      5  C   UNL     1      -4.988  -2.321  -3.372  0.00  0.00    +0.043 A 
ATOM      6  C   UNL     1      -4.187  -2.800  -2.344  0.00  0.00    +0.037 A 
ATOM      7 CL   UNL     1      -5.531  -0.723  -5.484  0.00  0.00    -0.083 Cl
ENDROOT
BRANCH   1   9
ATOM      8  N   UNL     1      -1.387  -1.991  -0.138  0.00  0.00    -0.222 N 
ATOM      9  C   UNL     1      -2.055  -2.746  -1.046  0.00  0.00    +0.184 A 
ATOM     10  N   UNL     1      -1.792  -4.006  -0.768  0.00  0.00    -0.108 NA
ATOM     11  N   UNL     1      -1.010  -4.089   0.247  0.00  0.00    -0.023 NA
ATOM     12  N   UNL     1      -0.715  -2.913   0.684  0.00  0.00    -0.043 NA
BRANCH   8  13
ATOM     13  C   UNL     1      -1.367  -0.530  -0.037  0.00  0.00    +0.108 C 
ATOM     14  C   UNL     1      -1.774  -0.110   1.376  0.00  0.00    +0.033 C 
BRANCH  13  16
ATOM     15  C   UNL     1       0.038   1.512  -0.353  0.00  0.00    +0.006 C 
ATOM     16  C   UNL     1       0.044  -0.018  -0.335  0.00  0.00    +0.023 C 
ENDBRANCH  13  16
ENDBRANCH   8  13
ENDBRANCH   1   9
BRANCH   6  17
ATOM     17  N   UNL     1      -4.647  -3.821  -1.516  0.00  0.00    -0.357 N 
ATOM     18  H   UNL     1      -4.087  -4.151  -0.796  0.00  0.00    +0.142 HD
ATOM     19  H   UNL     1      -5.527  -4.202  -1.659  0.00  0.00    +0.142 HD
ENDBRANCH   6  17
TORSDOF 4
