REMARK  Name = ZINC10858355
REMARK  8 active torsions:
REMARK  status: ('A' for Active; 'I' for Inactive)
REMARK    1  A    between atoms: C_1  and  C_2
REMARK    2  A    between atoms: C_4  and  C_25
REMARK    3  A    between atoms: C_6  and  N_13
REMARK    4  A    between atoms: C_14  and  C_16
REMARK    5  A    between atoms: C_16  and  N_42
REMARK    6  A    between atoms: C_17  and  N_42
REMARK    7  A    between atoms: C_18  and  C_19
REMARK    8  A    between atoms: C_18  and  N_42
REMARK                            x       y       z     vdW  Elec       q    Type
REMARK                         _______ _______ _______ _____ _____    ______ ____
ROOT
ATOM      1  N   UNL     1       7.011  -2.199  -3.223  0.00  0.00    -0.257 N 
ATOM      2  C   UNL     1       5.860  -1.566  -2.922  0.00  0.00    +0.203 C 
ATOM      3  O   UNL     1       5.078  -1.279  -3.803  0.00  0.00    -0.277 OA
ATOM      4  H   UNL     1       7.637  -2.428  -2.518  0.00  0.00    +0.158 HD
ENDROOT
BRANCH   1  10
ATOM      5  C   UNL     1       9.254  -4.070  -8.700  0.00  0.00    +0.068 C 
ATOM      6  C   UNL     1       9.354  -3.926  -7.203  0.00  0.00    +0.070 A 
ATOM      7  C   UNL     1       8.278  -3.273  -6.452  0.00  0.00    +0.053 A 
ATOM      8  C   UNL     1       7.090  -2.700  -6.740  0.00  0.00    +0.114 A 
ATOM      9  O   UNL     1       6.522  -2.264  -5.601  0.00  0.00    -0.445 OA
ATOM     10  C   UNL     1       7.301  -2.520  -4.538  0.00  0.00    +0.206 A 
ATOM     11  C   UNL     1       8.433  -3.160  -4.981  0.00  0.00    +0.110 A 
ATOM     12  C   UNL     1       9.649  -3.707  -4.386  0.00  0.00    +0.277 A 
ATOM     13  O   UNL     1       9.834  -3.645  -3.183  0.00  0.00    -0.266 OA
ATOM     14  N   UNL     1      10.563  -4.283  -5.194  0.00  0.00    -0.242 N 
ATOM     15  H   UNL     1      11.370  -4.646  -4.798  0.00  0.00    +0.192 HD
ATOM     16  N   UNL     1      10.395  -4.378  -6.573  0.00  0.00    -0.175 NA
ATOM     17  C   UNL     1       6.493  -2.574  -8.118  0.00  0.00    +0.087 C 
ENDBRANCH   1  10
BRANCH   2  18
ATOM     18  C   UNL     1       5.545  -1.217  -1.490  0.00  0.00    +0.019 C 
BRANCH  18  20
ATOM     19  C   UNL     1       4.295   0.765  -2.102  0.00  0.00    -0.095 C 
ATOM     20  N   UNL     1       4.224  -0.555  -1.441  0.00  0.00    +0.387 N 
ATOM     21  H   UNL     1       3.539  -1.139  -1.936  0.00  0.00    -0.081 HD
BRANCH  20  22
ATOM     22  C   UNL     1       3.792  -0.394  -0.037  0.00  0.00    -0.035 C 
BRANCH  22  23
ATOM     23  C   UNL     1       2.360   0.077  -0.020  0.00  0.00    -0.025 A 
ATOM     24  C   UNL     1       1.221  -0.657  -0.013  0.00  0.00    +0.011 A 
ATOM     25  C   UNL     1       0.002  -0.004   0.002  0.00  0.00    +0.028 A 
ATOM     26  C   UNL     1      -0.016   1.352   0.009  0.00  0.00    +0.078 A 
ATOM     27  S   UNL     1       1.725   1.745  -0.005  0.00  0.00    -0.084 S 
ATOM     28 CL   UNL     1      -1.379   2.427   0.022  0.00  0.00    -0.076 Cl
ENDBRANCH  22  23
ENDBRANCH  20  22
ENDBRANCH  18  20
ENDBRANCH   2  18
TORSDOF 5
