REMARK  Name = ZINC06896035
REMARK  5 active torsions:
REMARK  status: ('A' for Active; 'I' for Inactive)
REMARK    1  A    between atoms: C_1  and  C_2
REMARK    2  A    between atoms: C_7  and  N_8
REMARK    3  A    between atoms: C_14  and  C_15
REMARK    4  A    between atoms: N_17  and  C_24
REMARK    5  A    between atoms: C_24  and  C_25
REMARK                            x       y       z     vdW  Elec       q    Type
REMARK                         _______ _______ _______ _____ _____    ______ ____
ROOT
ATOM      1  N   UNL     1       5.097   6.041  -0.375  0.00  0.00    -0.225 NA
ATOM      2  C   UNL     1       4.926   4.766  -0.648  0.00  0.00    +0.166 C 
ATOM      3  N   UNL     1       5.875   3.770  -0.759  0.00  0.00    -0.260 N 
ATOM      4  C   UNL     1       5.507   2.533  -1.044  0.00  0.00    +0.256 C 
ATOM      5  O   UNL     1       6.334   1.643  -1.145  0.00  0.00    -0.269 OA
ATOM      6  C   UNL     1       4.119   2.264  -1.230  0.00  0.00    +0.078 C 
ATOM      7  C   UNL     1       3.500   1.089  -1.527  0.00  0.00    +0.030 C 
ATOM      8  S   UNL     1       3.408   3.885  -0.977  0.00  0.00    -0.049 S 
ATOM      9  H   UNL     1       6.939   4.005  -0.611  0.00  0.00    +0.157 HD
ENDROOT
BRANCH   7  10
ATOM     10  C   UNL     1       2.039   1.016  -1.550  0.00  0.00    +0.001 A 
ATOM     11  C   UNL     1       1.167   1.905  -0.987  0.00  0.00    +0.095 A 
ATOM     12  N   UNL     1      -0.110   1.502  -1.218  0.00  0.00    -0.337 N 
ATOM     13  C   UNL     1      -0.120   0.328  -1.944  0.00  0.00    +0.050 A 
ATOM     14  C   UNL     1       1.216  -0.031  -2.185  0.00  0.00    +0.007 A 
ATOM     15  C   UNL     1       1.510  -1.186  -2.905  0.00  0.00    +0.010 A 
ATOM     16  C   UNL     1       0.483  -1.975  -3.377  0.00  0.00    +0.001 A 
ATOM     17  C   UNL     1      -0.837  -1.622  -3.139  0.00  0.00    +0.002 A 
ATOM     18  C   UNL     1      -1.142  -0.481  -2.429  0.00  0.00    +0.026 A 
BRANCH  12  19
ATOM     19  C   UNL     1      -1.306   2.215  -0.765  0.00  0.00    +0.217 C 
BRANCH  19  20
ATOM     20  C   UNL     1      -1.777   1.629   0.541  0.00  0.00    +0.230 C 
ATOM     21  O   UNL     1      -1.172   0.706   1.044  0.00  0.00    -0.274 OA
ATOM     22  N   UNL     1      -2.870   2.130   1.150  0.00  0.00    -0.328 N 
ATOM     23  H   UNL     1      -3.213   1.702   2.103  0.00  0.00    +0.145 HD
ATOM     24  H   UNL     1      -3.419   2.967   0.693  0.00  0.00    +0.145 HD
ENDBRANCH  19  20
ENDBRANCH  12  19
ENDBRANCH   7  10
BRANCH   1  31
ATOM     25  C   UNL     1       5.017   8.438  -1.900  0.00  0.00    +0.046 C 
ATOM     26  C   UNL     1       3.920   8.049  -0.942  0.00  0.00    -0.025 A 
ATOM     27  C   UNL     1       2.820   8.867  -0.783  0.00  0.00    +0.005 A 
ATOM     28  C   UNL     1       1.814   8.514   0.100  0.00  0.00    +0.000 A 
ATOM     29  C   UNL     1       1.901   7.338   0.824  0.00  0.00    +0.002 A 
ATOM     30  C   UNL     1       2.992   6.509   0.671  0.00  0.00    +0.028 A 
ATOM     31  C   UNL     1       4.011   6.859  -0.218  0.00  0.00    +0.069 A 
ENDBRANCH   1  31
TORSDOF 4
