REMARK  Name = ZINC45849778
REMARK  6 active torsions:
REMARK  status: ('A' for Active; 'I' for Inactive)
REMARK    1  A    between atoms: C_1  and  C_2
REMARK    2  A    between atoms: C_2  and  N_3
REMARK    3  A    between atoms: N_10  and  C_13
REMARK    4  A    between atoms: C_13  and  C_14
REMARK    5  A    between atoms: N_16  and  C_17
REMARK    6  A    between atoms: C_17  and  C_18
REMARK                            x       y       z     vdW  Elec       q    Type
REMARK                         _______ _______ _______ _____ _____    ______ ____
ROOT
ATOM      1  C   UNL     1       3.611  -1.513  -3.066  0.00  0.00    +0.222 C 
ENDROOT
BRANCH   1   9
ATOM      2  N   UNL     1       0.688  -0.476  -1.203  0.00  0.00    -0.292 N 
ATOM      3  C   UNL     1       0.087  -0.744  -2.431  0.00  0.00    +0.070 A 
ATOM      4  C   UNL     1      -1.220  -0.666  -2.888  0.00  0.00    +0.028 A 
ATOM      5  C   UNL     1      -1.513  -1.008  -4.193  0.00  0.00    +0.002 A 
ATOM      6  C   UNL     1      -0.508  -1.429  -5.048  0.00  0.00    +0.002 A 
ATOM      7  C   UNL     1       0.796  -1.510  -4.601  0.00  0.00    +0.028 A 
ATOM      8  C   UNL     1       1.101  -1.168  -3.293  0.00  0.00    +0.070 A 
ATOM      9  N   UNL     1       2.286  -1.145  -2.562  0.00  0.00    -0.283 N 
ATOM     10  C   UNL     1       2.007  -0.720  -1.315  0.00  0.00    +0.331 A 
ATOM     11  O   UNL     1       2.823  -0.581  -0.423  0.00  0.00    -0.246 OA
BRANCH   2  13
ATOM     12  C   UNL     1      -0.019   1.526   0.010  0.00  0.00    +0.027 C 
ATOM     13  C   UNL     1       0.002  -0.004   0.002  0.00  0.00    +0.123 C 
ENDBRANCH   2  13
ENDBRANCH   1   9
BRANCH   1  14
ATOM     14  C   UNL     1       4.287  -0.294  -3.640  0.00  0.00    +0.233 C 
ATOM     15  O   UNL     1       3.717   0.777  -3.630  0.00  0.00    -0.274 OA
ATOM     16  N   UNL     1       5.524  -0.394  -4.166  0.00  0.00    -0.305 N 
ATOM     17  H   UNL     1       5.979  -1.250  -4.175  0.00  0.00    +0.149 HD
BRANCH  16  18
ATOM     18  C   UNL     1       6.180   0.791  -4.724  0.00  0.00    +0.200 C 
BRANCH  18  19
ATOM     19  C   UNL     1       7.543   0.412  -5.243  0.00  0.00    +0.233 C 
ATOM     20  O   UNL     1       7.929  -0.734  -5.155  0.00  0.00    -0.274 OA
ATOM     21  N   UNL     1       8.335   1.348  -5.805  0.00  0.00    -0.300 N 
ATOM     22  C   UNL     1       7.884   2.742  -5.913  0.00  0.00    +0.108 C 
ATOM     23  C   UNL     1       8.943   3.653  -5.284  0.00  0.00    +0.019 C 
ATOM     24  C   UNL     1      10.300   3.378  -5.938  0.00  0.00    +0.003 C 
ATOM     25  C   UNL     1      10.703   1.923  -5.687  0.00  0.00    +0.019 C 
ATOM     26  C   UNL     1       9.666   0.994  -6.315  0.00  0.00    +0.108 C 
ENDBRANCH  18  19
ENDBRANCH  16  18
ENDBRANCH   1  14
TORSDOF 5
