REMARK  Name = ZINC09347915
REMARK  6 active torsions:
REMARK  status: ('A' for Active; 'I' for Inactive)
REMARK    1  A    between atoms: C_3  and  C_6
REMARK    2  A    between atoms: N_10  and  C_14
REMARK    3  A    between atoms: C_14  and  C_15
REMARK    4  A    between atoms: N_17  and  C_18
REMARK    5  A    between atoms: C_21  and  C_25
REMARK    6  A    between atoms: C_22  and  O_24
REMARK                            x       y       z     vdW  Elec       q    Type
REMARK                         _______ _______ _______ _____ _____    ______ ____
ROOT
ATOM      1  C   UNL     1       7.702   3.012  -1.486  0.00  0.00    +0.235 C 
ATOM      2  O   UNL     1       6.955   3.276  -2.405  0.00  0.00    -0.274 OA
ATOM      3  N   UNL     1       8.981   2.668  -1.736  0.00  0.00    -0.284 N 
ATOM      4  H   UNL     1       9.599   2.532  -1.000  0.00  0.00    +0.155 HD
ENDROOT
BRANCH   3   5
ATOM      5  C   UNL     1       9.417   2.509  -3.051  0.00  0.00    +0.037 A 
ATOM      6  C   UNL     1       8.544   2.009  -4.015  0.00  0.00    +0.024 A 
ATOM      7  C   UNL     1       8.958   1.853  -5.306  0.00  0.00    +0.020 A 
ATOM      8  C   UNL     1      10.268   2.185  -5.668  0.00  0.00    +0.105 A 
ATOM      9  C   UNL     1      11.153   2.683  -4.698  0.00  0.00    +0.133 A 
ATOM     10  C   UNL     1      10.720   2.842  -3.393  0.00  0.00    +0.069 A 
BRANCH   8  11
ATOM     11  C   UNL     1      10.717   2.011  -7.058  0.00  0.00    +0.390 C 
ATOM     12  O   UNL     1      11.857   2.300  -7.369  0.00  0.00    -0.240 OA
ATOM     13  O   UNL     1       9.866   1.532  -7.987  0.00  0.00    -0.240 OA
ENDBRANCH   8  11
BRANCH   9  14
ATOM     14  O   UNL     1      12.426   3.008  -5.039  0.00  0.00    -0.506 OA
ATOM     15  H   UNL     1      13.055   2.279  -4.951  0.00  0.00    +0.292 HD
ENDBRANCH   9  14
ENDBRANCH   3   5
BRANCH   1  16
ATOM     16  C   UNL     1       7.200   3.069  -0.067  0.00  0.00    +0.211 C 
BRANCH  16  21
ATOM     17  C   UNL     1       2.349   2.208  -0.177  0.00  0.00    +0.035 C 
ATOM     18  C   UNL     1       3.488   2.955  -0.120  0.00  0.00    +0.078 C 
ATOM     19  C   UNL     1       4.853   2.534  -0.127  0.00  0.00    +0.259 C 
ATOM     20  O   UNL     1       5.144   1.353  -0.189  0.00  0.00    -0.269 OA
ATOM     21  N   UNL     1       5.790   3.464  -0.063  0.00  0.00    -0.246 N 
ATOM     22  C   UNL     1       5.466   4.774   0.006  0.00  0.00    +0.121 C 
ATOM     23  S   UNL     1       6.504   6.133   0.095  0.00  0.00    -0.027 S 
ATOM     24  S   UNL     1       3.680   4.730  -0.026  0.00  0.00    -0.061 S 
BRANCH  17  27
ATOM     25  C   UNL     1      -1.252   3.131  -0.177  0.00  0.00    +0.008 A 
ATOM     26  C   UNL     1      -0.182   2.272  -0.206  0.00  0.00    +0.015 A 
ATOM     27  C   UNL     1       1.086   2.842  -0.158  0.00  0.00    +0.013 A 
ATOM     28  S   UNL     1       0.702   4.582  -0.065  0.00  0.00    -0.097 S 
ATOM     29  C   UNL     1      -1.028   4.469  -0.094  0.00  0.00    +0.046 A 
ENDBRANCH  17  27
ENDBRANCH  16  21
ENDBRANCH   1  16
TORSDOF 6
