REMARK  Name = ZINC65380732
REMARK  6 active torsions:
REMARK  status: ('A' for Active; 'I' for Inactive)
REMARK    1  A    between atoms: C_6  and  O_7
REMARK    2  A    between atoms: O_7  and  C_8
REMARK    3  A    between atoms: C_8  and  C_14
REMARK    4  A    between atoms: N_16  and  C_17
REMARK    5  A    between atoms: C_17  and  C_18
REMARK    6  A    between atoms: C_18  and  N_19
REMARK                            x       y       z     vdW  Elec       q    Type
REMARK                         _______ _______ _______ _____ _____    ______ ____
ROOT
ATOM      1  C   UNL     1      -0.972  -2.116   0.053  0.00  0.00    +0.182 C 
ATOM      2  C   UNL     1      -0.092  -2.450  -1.155  0.00  0.00    +0.038 C 
ATOM      3  C   UNL     1      -0.863  -2.144  -2.441  0.00  0.00    -0.078 C 
ATOM      4  N   UNL     1      -2.086  -2.954  -2.486  0.00  0.00    +0.379 N 
ATOM      5  C   UNL     1      -2.967  -2.589  -1.371  0.00  0.00    -0.078 C 
ATOM      6  C   UNL     1      -2.277  -2.911  -0.043  0.00  0.00    +0.038 C 
ATOM      7  H   UNL     1      -2.565  -2.790  -3.359  0.00  0.00    -0.086 HD
ATOM      8  H   UNL     1      -1.844  -3.932  -2.416  0.00  0.00    -0.086 HD
ENDROOT
BRANCH   1   9
ATOM      9  C   UNL     1      -0.249  -2.487   1.323  0.00  0.00    +0.257 C 
ATOM     10  O   UNL     1      -0.444  -3.567   1.839  0.00  0.00    -0.271 OA
ATOM     11  N   UNL     1       0.614  -1.617   1.885  0.00  0.00    -0.310 N 
ATOM     12  H   UNL     1       0.825  -0.784   1.435  0.00  0.00    +0.149 HD
BRANCH  11  13
ATOM     13  C   UNL     1       1.235  -1.932   3.174  0.00  0.00    +0.126 C 
BRANCH  13  14
ATOM     14  C   UNL     1       2.165  -0.788   3.585  0.00  0.00    +0.141 C 
BRANCH  14  15
ATOM     15  N   UNL     1       2.785  -1.102   4.874  0.00  0.00    -0.337 N 
ATOM     16  C   UNL     1       2.290  -0.789   6.111  0.00  0.00    +0.104 A 
ATOM     17  C   UNL     1       3.171  -1.262   7.014  0.00  0.00    +0.101 A 
ATOM     18  N   UNL     1       4.176  -1.847   6.346  0.00  0.00    -0.352 N 
ATOM     19  C   UNL     1       3.949  -1.760   5.064  0.00  0.00    +0.173 A 
ATOM     20  H   UNL     1       4.948  -2.272   6.753  0.00  0.00    +0.166 HD
ENDBRANCH  14  15
ENDBRANCH  13  14
ENDBRANCH  11  13
ENDBRANCH   1   9
BRANCH   1  21
ATOM     21  O   UNL     1      -1.263  -0.718   0.060  0.00  0.00    -0.477 OA
BRANCH  21  27
ATOM     22  C   UNL     1      -2.297   1.107   1.184  0.00  0.00    +0.047 A 
ATOM     23  C   UNL     1      -3.014   1.591   2.261  0.00  0.00    +0.023 A 
ATOM     24  C   UNL     1      -3.401   0.734   3.276  0.00  0.00    +0.041 A 
ATOM     25  C   UNL     1      -3.073  -0.608   3.214  0.00  0.00    +0.023 A 
ATOM     26  C   UNL     1      -2.357  -1.096   2.138  0.00  0.00    +0.047 A 
ATOM     27  C   UNL     1      -1.968  -0.239   1.119  0.00  0.00    +0.122 A 
ATOM     28 CL   UNL     1      -4.301   1.345   4.630  0.00  0.00    -0.084 Cl
ENDBRANCH  21  27
ENDBRANCH   1  21
TORSDOF 6
