REMARK  Name = ZINC43384157
REMARK  7 active torsions:
REMARK  status: ('A' for Active; 'I' for Inactive)
REMARK    1  A    between atoms: C_1  and  C_2
REMARK    2  A    between atoms: N_7  and  C_8
REMARK    3  A    between atoms: N_10  and  C_11
REMARK    4  A    between atoms: C_11  and  C_13
REMARK    5  A    between atoms: C_11  and  C_14
REMARK    6  A    between atoms: N_17  and  C_20
REMARK    7  A    between atoms: C_18  and  C_19
REMARK                            x       y       z     vdW  Elec       q    Type
REMARK                         _______ _______ _______ _____ _____    ______ ____
ROOT
ATOM      1  C   UNL     1       2.399  -3.988  -0.030  0.00  0.00    +0.326 C 
ATOM      2  O   UNL     1       3.148  -3.026  -0.028  0.00  0.00    -0.251 OA
ATOM      3  N   UNL     1       2.907  -5.236  -0.040  0.00  0.00    -0.291 N 
ATOM      4  H   UNL     1       2.311  -6.002  -0.042  0.00  0.00    +0.151 HD
ENDROOT
BRANCH   1  11
ATOM      5  C   UNL     1      -0.018   1.503   0.010  0.00  0.00    +0.053 C 
ATOM      6  C   UNL     1       0.002  -0.004   0.002  0.00  0.00    +0.006 A 
ATOM      7  C   UNL     1      -1.025  -0.859   0.002  0.00  0.00    +0.095 A 
ATOM      8  N   UNL     1      -0.732  -2.188  -0.007  0.00  0.00    -0.342 N 
ATOM      9  H   UNL     1      -1.440  -2.851  -0.008  0.00  0.00    +0.167 HD
ATOM     10  C   UNL     1       0.575  -2.571  -0.014  0.00  0.00    +0.165 A 
ATOM     11  N   UNL     1       1.076  -3.804  -0.024  0.00  0.00    -0.139 NA
ATOM     12  S   UNL     1       1.403  -1.107  -0.018  0.00  0.00    -0.058 S 
ENDBRANCH   1  11
BRANCH   3  13
ATOM     13  C   UNL     1       4.358  -5.438  -0.047  0.00  0.00    +0.105 C 
ATOM     14  C   UNL     1       4.886  -5.392   1.388  0.00  0.00    +0.033 C 
BRANCH  13  15
ATOM     15  C   UNL     1       4.676  -6.778  -0.657  0.00  0.00    +0.013 A 
ATOM     16  C   UNL     1       3.790  -7.852  -0.792  0.00  0.00    +0.140 A 
ATOM     17  N   UNL     1       4.428  -8.839  -1.367  0.00  0.00    -0.179 NA
ATOM     18  N   UNL     1       5.743  -8.424  -1.616  0.00  0.00    -0.271 N 
ATOM     19  C   UNL     1       5.868  -7.154  -1.176  0.00  0.00    +0.041 A 
ATOM     20  C   UNL     1       7.113  -6.308  -1.246  0.00  0.00    +0.065 C 
ATOM     21  C   UNL     1       6.794  -9.225  -2.247  0.00  0.00    +0.172 C 
ENDBRANCH  13  15
ENDBRANCH   3  13
TORSDOF 3
