REMARK  Name = ZINC08346204
REMARK  4 active torsions:
REMARK  status: ('A' for Active; 'I' for Inactive)
REMARK    1  A    between atoms: C_7  and  C_11
REMARK    2  A    between atoms: N_13  and  N_14
REMARK    3  A    between atoms: N_14  and  C_15
REMARK    4  A    between atoms: C_18  and  N_25
REMARK                            x       y       z     vdW  Elec       q    Type
REMARK                         _______ _______ _______ _____ _____    ______ ____
ROOT
ATOM      1  N   UNL     1       0.336  -5.609  -0.029  0.00  0.00    -0.259 N 
ATOM      2  H   UNL     1      -0.619  -5.459  -0.105  0.00  0.00    +0.170 HD
ENDROOT
BRANCH   1   3
ATOM      3  C   UNL     1       0.830  -6.845  -0.141  0.00  0.00    +0.116 C 
ATOM      4  C   UNL     1       2.192  -7.230  -0.173  0.00  0.00    +0.026 A 
ATOM      5  C   UNL     1       3.393  -6.513  -0.105  0.00  0.00    +0.044 A 
ATOM      6  C   UNL     1       4.596  -7.187  -0.164  0.00  0.00    +0.127 A 
ATOM      7  C   UNL     1       4.620  -8.567  -0.289  0.00  0.00    +0.034 A 
ATOM      8  C   UNL     1       3.443  -9.294  -0.358  0.00  0.00    +0.026 A 
ATOM      9  C   UNL     1       2.214  -8.643  -0.301  0.00  0.00    +0.043 A 
ATOM     10  N   UNL     1       0.935  -9.115  -0.347  0.00  0.00    -0.280 N 
ATOM     11  C   UNL     1       0.058  -8.132  -0.254  0.00  0.00    +0.264 C 
ATOM     12  O   UNL     1      -1.154  -8.246  -0.261  0.00  0.00    -0.268 OA
ATOM     13  H   UNL     1       0.700 -10.053  -0.433  0.00  0.00    +0.155 HD
BRANCH   6  14
ATOM     14  N   UNL     1       5.868  -6.432  -0.093  0.00  0.00    +0.056 N 
ATOM     15  O   UNL     1       5.851  -5.228   0.016  0.00  0.00    -0.126 OA
ATOM     16  O   UNL     1       6.923  -7.019  -0.144  0.00  0.00    -0.126 OA
ENDBRANCH   6  14
ENDBRANCH   1   3
BRANCH   1  19
ATOM     17  C   UNL     1       0.718  -3.269   0.191  0.00  0.00    +0.262 C 
ATOM     18  O   UNL     1      -0.465  -3.071  -0.013  0.00  0.00    -0.269 OA
ATOM     19  N   UNL     1       1.199  -4.529   0.198  0.00  0.00    -0.232 N 
ATOM     20  H   UNL     1       2.142  -4.687   0.360  0.00  0.00    +0.173 HD
BRANCH  17  27
ATOM     21  C   UNL     1       0.064   1.366   0.368  0.00  0.00    +0.001 A 
ATOM     22  C   UNL     1       1.240   2.054   0.628  0.00  0.00    +0.002 A 
ATOM     23  C   UNL     1       2.426   1.375   0.801  0.00  0.00    +0.026 A 
ATOM     24  C   UNL     1       2.451  -0.013   0.716  0.00  0.00    +0.047 A 
ATOM     25  C   UNL     1       1.260  -0.708   0.454  0.00  0.00    +0.012 A 
ATOM     26  C   UNL     1       0.067  -0.009   0.280  0.00  0.00    +0.011 A 
ATOM     27  C   UNL     1       1.623  -2.136   0.428  0.00  0.00    +0.063 A 
ATOM     28  C   UNL     1       2.963  -2.199   0.669  0.00  0.00    +0.096 A 
ATOM     29  N   UNL     1       3.457  -0.949   0.840  0.00  0.00    -0.360 N 
ATOM     30  H   UNL     1       4.386  -0.741   1.023  0.00  0.00    +0.165 HD
ENDBRANCH  17  27
ENDBRANCH   1  19
TORSDOF 4
