REMARK  Name = ZINC66892442
REMARK  4 active torsions:
REMARK  status: ('A' for Active; 'I' for Inactive)
REMARK    1  A    between atoms: C_7  and  N_10
REMARK    2  A    between atoms: C_11  and  C_13
REMARK    3  A    between atoms: C_13  and  N_14
REMARK    4  A    between atoms: C_19  and  C_21
REMARK                            x       y       z     vdW  Elec       q    Type
REMARK                         _______ _______ _______ _____ _____    ______ ____
ROOT
ATOM      1  N   UNL     1      -0.131   0.118  -6.078  0.00  0.00    +0.393 N 
ATOM      2  C   UNL     1      -1.153  -0.932  -6.160  0.00  0.00    -0.077 C 
ATOM      3  C   UNL     1      -0.942  -1.757  -7.431  0.00  0.00    -0.019 C 
ATOM      4  C   UNL     1      -1.052  -0.839  -8.652  0.00  0.00    -0.003 C 
ATOM      5  C   UNL     1      -0.032   0.295  -8.520  0.00  0.00    -0.006 C 
ATOM      6  C   UNL     1      -0.276   1.043  -7.208  0.00  0.00    +0.020 C 
ATOM      7  H   UNL     1       0.785  -0.304  -6.106  0.00  0.00    -0.080 HD
ENDROOT
BRANCH   6   8
ATOM      8  C   UNL     1       0.726   2.161  -7.073  0.00  0.00    +0.202 C 
ATOM      9  O   UNL     1       1.762   1.977  -6.470  0.00  0.00    -0.277 OA
ATOM     10  N   UNL     1       0.471   3.364  -7.623  0.00  0.00    -0.298 N 
ATOM     11  C   UNL     1      -0.732   3.584  -8.442  0.00  0.00    +0.136 C 
ATOM     12  C   UNL     1      -1.449   4.835  -7.923  0.00  0.00    +0.179 C 
ATOM     13  O   UNL     1      -0.518   5.918  -7.859  0.00  0.00    -0.377 OA
ATOM     14  C   UNL     1       0.567   5.705  -6.953  0.00  0.00    +0.179 C 
ATOM     15  C   UNL     1       1.384   4.500  -7.418  0.00  0.00    +0.136 C 
ENDBRANCH   6   8
BRANCH   1  16
ATOM     16  C   UNL     1      -0.290   0.857  -4.818  0.00  0.00    +0.020 C 
BRANCH  16  18
ATOM     17  N   UNL     1      -0.052   0.412  -2.396  0.00  0.00    -0.306 N 
ATOM     18  C   UNL     1       0.026  -0.053  -3.659  0.00  0.00    +0.197 C 
ATOM     19  O   UNL     1       0.352  -1.203  -3.862  0.00  0.00    -0.278 OA
ATOM     20  H   UNL     1      -0.313   1.332  -2.234  0.00  0.00    +0.149 HD
BRANCH  17  27
ATOM     21  C   UNL     1      -0.214   1.640   0.001  0.00  0.00    +0.004 C 
ATOM     22  C   UNL     1       1.208   2.170   0.023  0.00  0.00    +0.019 C 
ATOM     23  C   UNL     1       1.942   1.815  -1.272  0.00  0.00    +0.104 C 
ATOM     24  N   UNL     1       2.533   0.474  -1.126  0.00  0.00    -0.314 N 
ATOM     25  C   UNL     1       1.756  -0.610  -1.126  0.00  0.00    +0.233 C 
ATOM     26  O   UNL     1       2.254  -1.710  -1.011  0.00  0.00    -0.274 OA
ATOM     27  C   UNL     1       0.255  -0.472  -1.270  0.00  0.00    +0.159 C 
ATOM     28  C   UNL     1      -0.304   0.124   0.025  0.00  0.00    +0.032 C 
ATOM     29  H   UNL     1       3.493   0.379  -1.029  0.00  0.00    +0.149 HD
ENDBRANCH  17  27
ENDBRANCH  16  18
ENDBRANCH   1  16
TORSDOF 4
