REMARK  Name = ZINC55023403
REMARK  7 active torsions:
REMARK  status: ('A' for Active; 'I' for Inactive)
REMARK    1  A    between atoms: C_1  and  C_2
REMARK    2  A    between atoms: N_5  and  C_11
REMARK    3  A    between atoms: C_7  and  C_9
REMARK    4  A    between atoms: C_7  and  C_10
REMARK    5  A    between atoms: C_11  and  C_13
REMARK    6  A    between atoms: C_11  and  C_17
REMARK    7  A    between atoms: C_13  and  C_14
REMARK                            x       y       z     vdW  Elec       q    Type
REMARK                         _______ _______ _______ _____ _____    ______ ____
ROOT
ATOM      1  C   UNL     1      -2.818  -2.307   0.160  0.00  0.00    +0.094 C 
ENDROOT
BRANCH   1   5
ATOM      2  C   UNL     1       0.267   1.469  -0.510  0.00  0.00    +0.039 C 
ATOM      3  C   UNL     1       0.156  -0.043  -0.306  0.00  0.00    +0.130 C 
ATOM      4  C   UNL     1      -1.319  -0.436  -0.182  0.00  0.00    +0.116 C 
ATOM      5  N   UNL     1      -1.415  -1.877   0.090  0.00  0.00    -0.290 NA
ATOM      6  C   UNL     1      -0.696  -2.224   1.325  0.00  0.00    +0.119 C 
ATOM      7  C   UNL     1       0.772  -1.813   1.186  0.00  0.00    +0.077 C 
ATOM      8  O   UNL     1       0.846  -0.416   0.890  0.00  0.00    -0.368 OA
ATOM      9  C   UNL     1       1.420  -2.610   0.052  0.00  0.00    +0.042 C 
ATOM     10  C   UNL     1       1.508  -2.098   2.497  0.00  0.00    +0.042 C 
ENDBRANCH   1   5
BRANCH   1  11
ATOM     11  C   UNL     1      -2.878  -3.796   0.384  0.00  0.00    -0.030 A 
ATOM     12  C   UNL     1      -1.988  -4.629  -0.268  0.00  0.00    +0.005 A 
ATOM     13  C   UNL     1      -2.042  -5.995  -0.063  0.00  0.00    +0.000 A 
ATOM     14  C   UNL     1      -2.986  -6.528   0.795  0.00  0.00    +0.000 A 
ATOM     15  C   UNL     1      -3.875  -5.695   1.448  0.00  0.00    +0.000 A 
ATOM     16  C   UNL     1      -3.818  -4.328   1.246  0.00  0.00    +0.005 A 
ENDBRANCH   1  11
BRANCH   1  17
ATOM     17  C   UNL     1      -3.524  -1.960  -1.153  0.00  0.00    +0.092 C 
BRANCH  17  18
ATOM     18  C   UNL     1      -4.981  -2.334  -1.054  0.00  0.00    +0.065 C 
ATOM     19  N   UNL     1      -5.398  -3.495  -1.526  0.00  0.00    -0.391 N 
ATOM     20  N   UNL     1      -5.841  -1.500  -0.495  0.00  0.00    -0.348 N 
ATOM     21  H   UNL     1      -4.767  -4.107  -1.936  0.00  0.00    +0.157 HD
ATOM     22  H   UNL     1      -5.524  -0.682  -0.081  0.00  0.00    +0.143 HD
ATOM     23  H   UNL     1      -6.788  -1.706  -0.499  0.00  0.00    +0.143 HD
ATOM     24  H   UNL     1      -6.336  -3.736  -1.463  0.00  0.00    +0.157 HD
ENDBRANCH  17  18
ENDBRANCH   1  17
TORSDOF 4
