REMARK  Name = ZINC06183551
REMARK  8 active torsions:
REMARK  status: ('A' for Active; 'I' for Inactive)
REMARK    1  A    between atoms: C_1  and  C_2
REMARK    2  A    between atoms: C_2  and  C_4
REMARK    3  A    between atoms: C_2  and  C_24
REMARK    4  A    between atoms: C_4  and  C_5
REMARK    5  A    between atoms: C_20  and  O_22
REMARK    6  A    between atoms: C_24  and  N_48
REMARK    7  A    between atoms: C_25  and  N_48
REMARK    8  A    between atoms: C_26  and  N_48
REMARK                            x       y       z     vdW  Elec       q    Type
REMARK                         _______ _______ _______ _____ _____    ______ ____
ROOT
ATOM      1  C   UNL     1      -1.381   1.457   1.605  0.00  0.00    +0.053 C 
ATOM      2  C   UNL     1      -1.957   2.795   1.978  0.00  0.00    -0.028 A 
ATOM      3  C   UNL     1      -2.767   2.727   3.122  0.00  0.00    +0.005 A 
ATOM      4  C   UNL     1      -3.360   3.839   3.666  0.00  0.00    +0.000 A 
ATOM      5  C   UNL     1      -3.161   5.074   3.074  0.00  0.00    +0.001 A 
ATOM      6  C   UNL     1      -2.381   5.154   1.949  0.00  0.00    +0.015 A 
ATOM      7  C   UNL     1      -1.774   4.017   1.382  0.00  0.00    +0.016 A 
ATOM      8  S   UNL     1      -0.833   4.325  -0.068  0.00  0.00    -0.089 S 
ATOM      9  C   UNL     1       0.667   3.427   0.121  0.00  0.00    +0.018 A 
ATOM     10  C   UNL     1       1.889   4.091   0.129  0.00  0.00    +0.017 A 
ATOM     11  C   UNL     1       3.056   3.352   0.206  0.00  0.00    +0.021 A 
ATOM     12  C   UNL     1       2.992   1.971   0.276  0.00  0.00    +0.041 A 
ATOM     13  C   UNL     1       1.769   1.324   0.286  0.00  0.00    +0.027 A 
ATOM     14  C   UNL     1       0.597   2.068   0.221  0.00  0.00    -0.003 A 
ATOM     15  C   UNL     1      -0.720   1.366   0.267  0.00  0.00    +0.153 C 
ATOM     16 CL   UNL     1       4.457   1.043   0.351  0.00  0.00    -0.084 Cl
ENDROOT
BRANCH  15  17
ATOM     17  O   UNL     1      -1.585   1.944  -0.712  0.00  0.00    -0.387 OA
ATOM     18  H   UNL     1      -1.241   1.902  -1.615  0.00  0.00    +0.210 HD
ENDBRANCH  15  17
BRANCH   1  19
ATOM     19  C   UNL     1      -2.511   0.427   1.646  0.00  0.00    +0.012 C 
BRANCH  19  21
ATOM     20  C   UNL     1      -1.086  -1.244   2.837  0.00  0.00    +0.005 C 
ATOM     21  C   UNL     1      -1.919  -0.983   1.581  0.00  0.00    -0.030 C 
BRANCH  21  22
ATOM     22  C   UNL     1      -3.052  -2.008   1.497  0.00  0.00    -0.076 C 
BRANCH  22  25
ATOM     23  C   UNL     1      -2.999  -2.399  -0.892  0.00  0.00    -0.097 C 
ATOM     24  C   UNL     1      -5.109  -2.444   0.296  0.00  0.00    -0.097 C 
ATOM     25  N   UNL     1      -3.774  -1.813   0.222  0.00  0.00    +0.376 N 
ATOM     26  H   UNL     1      -3.890  -0.807   0.055  0.00  0.00    -0.083 HD
ENDBRANCH  22  25
ENDBRANCH  21  22
ENDBRANCH  19  21
ENDBRANCH   1  19
TORSDOF 5
