REMARK  Name = ZINC40681144
REMARK  8 active torsions:
REMARK  status: ('A' for Active; 'I' for Inactive)
REMARK    1  A    between atoms: C_1  and  C_2
REMARK    2  A    between atoms: C_9  and  N_26
REMARK    3  A    between atoms: C_10  and  N_14
REMARK    4  A    between atoms: N_14  and  C_15
REMARK    5  A    between atoms: N_14  and  C_16
REMARK    6  A    between atoms: C_21  and  C_22
REMARK    7  A    between atoms: C_22  and  O_24
REMARK    8  A    between atoms: O_24  and  C_25
REMARK                            x       y       z     vdW  Elec       q    Type
REMARK                         _______ _______ _______ _____ _____    ______ ____
ROOT
ATOM      1  C   UNL     1       0.066  -1.121   4.254  0.00  0.00    +0.089 C 
ATOM      2  C   UNL     1       0.057  -1.867   2.945  0.00  0.00    +0.136 A 
ATOM      3  C   UNL     1      -1.023  -2.107   2.181  0.00  0.00    +0.091 A 
ATOM      4  C   UNL     1      -0.604  -2.834   1.044  0.00  0.00    +0.167 A 
ATOM      5  N   UNL     1       0.689  -3.016   1.138  0.00  0.00    -0.063 NA
ATOM      6  O   UNL     1       1.127  -2.403   2.337  0.00  0.00    -0.358 OA
ATOM      7  N   UNL     1      -1.421  -3.278   0.007  0.00  0.00    -0.282 N 
ATOM      8  C   UNL     1      -2.802  -3.157   0.111  0.00  0.00    +0.127 A 
ATOM      9  C   UNL     1      -3.614  -4.294   0.128  0.00  0.00    +0.104 A 
ATOM     10  C   UNL     1      -4.995  -4.116   0.234  0.00  0.00    +0.151 A 
ATOM     11  N   UNL     1      -5.481  -2.880   0.314  0.00  0.00    -0.220 NA
ATOM     12  C   UNL     1      -4.680  -1.834   0.294  0.00  0.00    +0.200 A 
ATOM     13  N   UNL     1      -3.371  -1.958   0.200  0.00  0.00    -0.333 N 
ATOM     14  H   UNL     1      -1.026  -3.671  -0.787  0.00  0.00    +0.155 HD
ATOM     15  H   UNL     1      -2.815  -1.163   0.193  0.00  0.00    +0.168 HD
ENDROOT
BRANCH   9  16
ATOM     16  N   UNL     1      -3.057  -5.579   0.041  0.00  0.00    -0.353 N 
ATOM     17  H   UNL     1      -2.095  -5.687  -0.021  0.00  0.00    +0.143 HD
ATOM     18  H   UNL     1      -3.634  -6.359   0.042  0.00  0.00    +0.143 HD
ENDBRANCH   9  16
BRANCH  10  19
ATOM     19  N   UNL     1      -5.848  -5.213   0.255  0.00  0.00    -0.286 N 
ATOM     20  C   UNL     1      -6.187  -5.854   1.528  0.00  0.00    +0.137 C 
BRANCH  19  21
ATOM     21  C   UNL     1      -6.380  -5.703  -0.932  0.00  0.00    +0.049 A 
ATOM     22  C   UNL     1      -5.708  -6.689  -1.644  0.00  0.00    +0.024 A 
ATOM     23  C   UNL     1      -6.238  -7.173  -2.822  0.00  0.00    +0.002 A 
ATOM     24  C   UNL     1      -7.441  -6.682  -3.305  0.00  0.00    +0.001 A 
ATOM     25  C   UNL     1      -8.123  -5.706  -2.613  0.00  0.00    +0.017 A 
ATOM     26  C   UNL     1      -7.603  -5.209  -1.414  0.00  0.00    +0.080 A 
BRANCH  26  27
ATOM     27  C   UNL     1      -8.329  -4.168  -0.666  0.00  0.00    +0.341 C 
ATOM     28  O   UNL     1      -7.870  -3.735   0.373  0.00  0.00    -0.245 OA
BRANCH  27  29
ATOM     29  O   UNL     1      -9.502  -3.697  -1.133  0.00  0.00    -0.464 OA
ATOM     30  C   UNL     1     -10.151  -2.689  -0.356  0.00  0.00    +0.280 C 
ENDBRANCH  27  29
ENDBRANCH  26  27
ENDBRANCH  19  21
ENDBRANCH  10  19
TORSDOF 5
