REMARK  Name = ZINC49645612
REMARK  6 active torsions:
REMARK  status: ('A' for Active; 'I' for Inactive)
REMARK    1  A    between atoms: C_1  and  C_2
REMARK    2  A    between atoms: C_2  and  C_3
REMARK    3  A    between atoms: C_4  and  C_19
REMARK    4  A    between atoms: N_8  and  S_9
REMARK    5  A    between atoms: S_9  and  C_12
REMARK    6  A    between atoms: C_12  and  C_13
REMARK                            x       y       z     vdW  Elec       q    Type
REMARK                         _______ _______ _______ _____ _____    ______ ____
ROOT
ATOM      1  S   UNL     1      -5.711  -1.952   1.871  0.00  0.00    +0.070 S 
ATOM      2  O   UNL     1      -6.352  -0.936   1.112  0.00  0.00    -0.152 OA
ATOM      3  O   UNL     1      -5.497  -3.243   1.318  0.00  0.00    -0.152 OA
ENDROOT
BRANCH   1   9
ATOM      4  C   UNL     1      -1.412  -0.526   0.013  0.00  0.00    +0.027 A 
ATOM      5  C   UNL     1      -2.009  -0.849  -1.134  0.00  0.00    +0.009 A 
ATOM      6  S   UNL     1      -3.617  -1.394  -0.579  0.00  0.00    -0.053 S 
ATOM      7  C   UNL     1      -3.367  -1.146   1.172  0.00  0.00    +0.191 A 
ATOM      8  N   UNL     1      -2.074  -0.671   1.196  0.00  0.00    -0.336 N 
ATOM      9  N   UNL     1      -4.192  -1.363   2.167  0.00  0.00    -0.108 NA
ATOM     10  C   UNL     1      -1.468  -0.772  -2.538  0.00  0.00    +0.053 C 
ATOM     11  H   UNL     1      -1.645  -0.442   2.036  0.00  0.00    +0.168 HD
BRANCH   4  13
ATOM     12  C   UNL     1      -0.019   1.526   0.010  0.00  0.00    +0.010 C 
ATOM     13  C   UNL     1       0.002  -0.004   0.002  0.00  0.00    +0.050 C 
ENDBRANCH   4  13
ENDBRANCH   1   9
BRANCH   1  14
ATOM     14  C   UNL     1      -6.483  -2.092   3.506  0.00  0.00    +0.177 C 
BRANCH  14  15
ATOM     15  C   UNL     1      -7.906  -2.633   3.353  0.00  0.00    -0.049 C 
ATOM     16  C   UNL     1      -8.601  -2.679   4.730  0.00  0.00    -0.016 C 
ATOM     17  C   UNL     1      -9.421  -3.994   4.664  0.00  0.00    -0.021 C 
ATOM     18  C   UNL     1      -8.480  -4.909   3.842  0.00  0.00    -0.082 C 
ATOM     19  N   UNL     1      -7.866  -4.012   2.834  0.00  0.00    +0.382 N 
ATOM     20  H   UNL     1      -8.383  -4.065   1.970  0.00  0.00    -0.085 HD
ATOM     21  H   UNL     1      -6.908  -4.287   2.673  0.00  0.00    -0.085 HD
ENDBRANCH  14  15
ENDBRANCH   1  14
TORSDOF 4
