REMARK  Name = ZINC42856642
REMARK  6 active torsions:
REMARK  status: ('A' for Active; 'I' for Inactive)
REMARK    1  A    between atoms: C_1  and  C_2
REMARK    2  A    between atoms: C_8  and  C_10
REMARK    3  A    between atoms: C_10  and  N_11
REMARK    4  A    between atoms: N_11  and  C_12
REMARK    5  A    between atoms: C_12  and  C_14
REMARK    6  A    between atoms: C_12  and  C_15
REMARK                            x       y       z     vdW  Elec       q    Type
REMARK                         _______ _______ _______ _____ _____    ______ ____
ROOT
ATOM      1  C   UNL     1       4.301  -0.055   2.345  0.00  0.00    -0.044 C 
ATOM      2  C   UNL     1       4.290   1.453   2.603  0.00  0.00    -0.009 C 
ENDROOT
BRANCH   1   3
ATOM      3  C   UNL     1       5.098  -0.744   3.422  0.00  0.00    -0.058 A 
ATOM      4  C   UNL     1       4.521  -0.998   4.652  0.00  0.00    +0.006 A 
ATOM      5  C   UNL     1       5.250  -1.629   5.643  0.00  0.00    +0.049 A 
ATOM      6  C   UNL     1       6.563  -2.007   5.405  0.00  0.00    +0.162 A 
ATOM      7  C   UNL     1       7.142  -1.754   4.168  0.00  0.00    +0.162 A 
ATOM      8  C   UNL     1       6.404  -1.124   3.176  0.00  0.00    +0.051 A 
ATOM      9  O   UNL     1       8.427  -2.124   3.911  0.00  0.00    -0.485 OA
ATOM     10  C   UNL     1       9.250  -2.420   5.045  0.00  0.00    +0.270 C 
ATOM     11  C   UNL     1       8.453  -3.324   5.995  0.00  0.00    +0.270 C 
ATOM     12  O   UNL     1       7.269  -2.624   6.392  0.00  0.00    -0.485 OA
ENDBRANCH   1   3
BRANCH   1  13
ATOM     13  N   UNL     1       2.923  -0.563   2.355  0.00  0.00    +0.384 N 
ATOM     14  H   UNL     1       2.476  -0.307   3.223  0.00  0.00    -0.085 HD
ATOM     15  H   UNL     1       2.934  -1.568   2.267  0.00  0.00    -0.085 HD
BRANCH  13  16
ATOM     16  C   UNL     1       2.178   0.019   1.231  0.00  0.00    -0.078 C 
BRANCH  16  23
ATOM     17  C   UNL     1      -0.019   1.526   0.010  0.00  0.00    +0.008 C 
ATOM     18  C   UNL     1       0.002  -0.004   0.002  0.00  0.00    -0.013 C 
ATOM     19  C   UNL     1      -1.433  -0.534   0.013  0.00  0.00    +0.003 C 
ATOM     20  C   UNL     1      -2.149  -0.040   1.272  0.00  0.00    +0.000 C 
ATOM     21  C   UNL     1      -1.409  -0.547   2.511  0.00  0.00    +0.000 C 
ATOM     22  C   UNL     1       0.026  -0.018   2.500  0.00  0.00    +0.002 C 
ATOM     23  C   UNL     1       0.742  -0.511   1.242  0.00  0.00    -0.025 C 
ENDBRANCH  16  23
ENDBRANCH  13  16
ENDBRANCH   1  13
TORSDOF 4
