REMARK  Name = ZINC04884093
REMARK  8 active torsions:
REMARK  status: ('A' for Active; 'I' for Inactive)
REMARK    1  A    between atoms: C_1  and  C_2
REMARK    2  A    between atoms: C_7  and  C_8
REMARK    3  A    between atoms: N_16  and  C_19
REMARK    4  A    between atoms: C_20  and  C_21
REMARK    5  A    between atoms: C_20  and  C_23
REMARK    6  A    between atoms: C_21  and  O_22
REMARK    7  A    between atoms: C_23  and  O_25
REMARK    8  A    between atoms: O_25  and  C_26
REMARK                            x       y       z     vdW  Elec       q    Type
REMARK                         _______ _______ _______ _____ _____    ______ ____
ROOT
ATOM      1  C   UNL     1      -1.623   3.295   0.283  0.00  0.00    -0.026 C 
ATOM      2  C   UNL     1      -1.394   3.612  -1.185  0.00  0.00    +0.077 C 
ATOM      3  C   UNL     1      -1.145   2.144  -1.709  0.00  0.00    +0.088 C 
ATOM      4  C   UNL     1      -1.308   2.308  -3.129  0.00  0.00    +0.225 C 
ATOM      5  O   UNL     1      -0.721   1.718  -4.009  0.00  0.00    -0.275 OA
ATOM      6  N   UNL     1      -2.269   3.279  -3.271  0.00  0.00    -0.245 N 
ATOM      7  C   UNL     1      -2.529   3.939  -2.102  0.00  0.00    +0.224 C 
ATOM      8  O   UNL     1      -3.484   4.645  -1.859  0.00  0.00    -0.275 OA
ATOM      9  C   UNL     1      -2.943   3.575  -4.538  0.00  0.00    +0.141 C 
ATOM     10  C   UNL     1      -0.180   1.629  -0.722  0.00  0.00    +0.067 C 
ATOM     11  N   UNL     1      -0.754   2.122   0.569  0.00  0.00    +0.397 N 
ATOM     12  H   UNL     1      -1.311   1.378   1.007  0.00  0.00    -0.083 HD
ATOM     13  H   UNL     1       0.005   2.399   1.202  0.00  0.00    -0.083 HD
ENDROOT
BRANCH   1  20
ATOM     14  C   UNL     1      -3.505   5.364   1.006  0.00  0.00    +0.044 C 
ATOM     15  C   UNL     1      -3.970   3.937   0.867  0.00  0.00    -0.049 A 
ATOM     16  C   UNL     1      -5.298   3.618   1.086  0.00  0.00    +0.003 A 
ATOM     17  C   UNL     1      -5.724   2.310   0.959  0.00  0.00    +0.000 A 
ATOM     18  C   UNL     1      -4.823   1.320   0.613  0.00  0.00    +0.000 A 
ATOM     19  C   UNL     1      -3.497   1.639   0.390  0.00  0.00    +0.002 A 
ATOM     20  C   UNL     1      -3.069   2.947   0.522  0.00  0.00    -0.058 A 
ENDBRANCH   1  20
BRANCH  10  21
ATOM     21  C   UNL     1       1.189   2.212  -0.957  0.00  0.00    +0.299 C 
ATOM     22  O   UNL     1       1.516   2.559  -2.068  0.00  0.00    -0.252 OA
BRANCH  21  23
ATOM     23  O   UNL     1       2.046   2.347   0.067  0.00  0.00    -0.469 OA
ATOM     24  C   UNL     1       3.348   2.916  -0.233  0.00  0.00    +0.280 C 
ENDBRANCH  21  23
ENDBRANCH  10  21
BRANCH  10  25
ATOM     25  C   UNL     1      -0.131   0.101  -0.756  0.00  0.00    +0.155 C 
BRANCH  25  26
ATOM     26  O   UNL     1       0.672  -0.374   0.326  0.00  0.00    -0.396 OA
ATOM     27  H   UNL     1       0.748  -1.337   0.366  0.00  0.00    +0.209 HD
ENDBRANCH  25  26
ENDBRANCH  10  25
TORSDOF 5
