REMARK  Name = ZINC13135343
REMARK  5 active torsions:
REMARK  status: ('A' for Active; 'I' for Inactive)
REMARK    1  A    between atoms: C_1  and  O_2
REMARK    2  A    between atoms: O_2  and  C_3
REMARK    3  A    between atoms: C_5  and  C_11
REMARK    4  A    between atoms: C_7  and  O_10
REMARK    5  A    between atoms: C_8  and  O_9
REMARK                            x       y       z     vdW  Elec       q    Type
REMARK                         _______ _______ _______ _____ _____    ______ ____
ROOT
ATOM      1  C   UNL     1       4.380   8.856   2.354  0.00  0.00    +0.166 A 
ATOM      2  C   UNL     1       3.101   8.372   2.155  0.00  0.00    +0.057 A 
ATOM      3  C   UNL     1       2.798   7.655   0.992  0.00  0.00    -0.017 A 
ATOM      4  C   UNL     1       3.791   7.440   0.028  0.00  0.00    +0.057 A 
ATOM      5  C   UNL     1       5.066   7.932   0.231  0.00  0.00    +0.163 A 
ATOM      6  C   UNL     1       5.365   8.640   1.393  0.00  0.00    +0.201 A 
ENDROOT
BRANCH   3   7
ATOM      7  C   UNL     1       1.441   7.134   0.780  0.00  0.00    +0.019 C 
ATOM      8  C   UNL     1       1.260   5.969   0.117  0.00  0.00    +0.038 C 
ATOM      9  C   UNL     1       2.414   5.064  -0.280  0.00  0.00    +0.268 C 
ATOM     10  O   UNL     1       2.128   3.743   0.178  0.00  0.00    -0.487 OA
ATOM     11  C   UNL     1       0.908   3.203  -0.050  0.00  0.00    +0.132 A 
ATOM     12  C   UNL     1       0.769   1.819  -0.057  0.00  0.00    +0.046 A 
ATOM     13  C   UNL     1      -0.468   1.247  -0.273  0.00  0.00    +0.004 A 
ATOM     14  C   UNL     1      -1.586   2.037  -0.485  0.00  0.00    +0.001 A 
ATOM     15  C   UNL     1      -1.471   3.412  -0.476  0.00  0.00    +0.015 A 
ATOM     16  C   UNL     1      -0.224   3.998  -0.267  0.00  0.00    +0.064 A 
ATOM     17  C   UNL     1      -0.078   5.476  -0.279  0.00  0.00    +0.196 C 
ATOM     18  O   UNL     1      -0.988   6.223  -0.591  0.00  0.00    -0.287 OA
ENDBRANCH   3   7
BRANCH   1  20
ATOM     19  C   UNL     1       3.618   9.732   4.430  0.00  0.00    +0.277 C 
ATOM     20  O   UNL     1       4.676   9.548   3.487  0.00  0.00    -0.491 OA
ENDBRANCH   1  20
BRANCH   6  21
ATOM     21  O   UNL     1       6.620   9.123   1.589  0.00  0.00    -0.501 OA
ATOM     22  H   UNL     1       6.757  10.016   1.245  0.00  0.00    +0.292 HD
ENDBRANCH   6  21
BRANCH   5  23
ATOM     23  O   UNL     1       6.031   7.724  -0.704  0.00  0.00    -0.503 OA
ATOM     24  H   UNL     1       6.083   8.418  -1.376  0.00  0.00    +0.292 HD
ENDBRANCH   5  23
TORSDOF 4
