REMARK  Name = ZINC29563329
REMARK  7 active torsions:
REMARK  status: ('A' for Active; 'I' for Inactive)
REMARK    1  A    between atoms: C_1  and  C_2
REMARK    2  A    between atoms: C_5  and  C_11
REMARK    3  A    between atoms: C_6  and  C_10
REMARK    4  A    between atoms: C_7  and  O_8
REMARK    5  A    between atoms: O_8  and  C_9
REMARK    6  A    between atoms: C_11  and  C_12
REMARK    7  A    between atoms: C_12  and  C_13
REMARK                            x       y       z     vdW  Elec       q    Type
REMARK                         _______ _______ _______ _____ _____    ______ ____
ROOT
ATOM      1  C   UNL     1      -2.854   7.496   1.232  0.00  0.00    +0.056 C 
ENDROOT
BRANCH   1   6
ATOM      2  C   UNL     1      -5.006   9.768   6.041  0.00  0.00    +0.049 C 
ATOM      3  C   UNL     1      -4.477   9.172   4.762  0.00  0.00    +0.007 A 
ATOM      4  C   UNL     1      -3.138   8.865   4.635  0.00  0.00    +0.089 A 
ATOM      5  N   UNL     1      -2.667   8.343   3.518  0.00  0.00    -0.364 N 
ATOM      6  C   UNL     1      -3.446   8.093   2.483  0.00  0.00    +0.022 A 
ATOM      7  C   UNL     1      -4.795   8.377   2.529  0.00  0.00    +0.011 A 
ATOM      8  C   UNL     1      -5.333   8.924   3.692  0.00  0.00    +0.129 A 
ATOM      9  C   UNL     1      -5.676   8.095   1.339  0.00  0.00    +0.049 C 
ATOM     10  H   UNL     1      -1.597   8.103   3.432  0.00  0.00    +0.165 HD
BRANCH   8  11
ATOM     11  O   UNL     1      -6.657   9.213   3.778  0.00  0.00    -0.494 OA
ATOM     12  C   UNL     1      -7.063  10.520   3.367  0.00  0.00    +0.277 C 
ENDBRANCH   8  11
ENDBRANCH   1   6
BRANCH   1  13
ATOM     13  C   UNL     1      -2.909   5.970   1.321  0.00  0.00    +0.040 C 
BRANCH  13  14
ATOM     14  C   UNL     1      -2.307   5.364   0.051  0.00  0.00    +0.134 C 
ATOM     15  N   UNL     1      -2.449   3.901   0.045  0.00  0.00    -0.331 N 
ATOM     16  C   UNL     1      -1.281   3.141   0.030  0.00  0.00    +0.042 A 
ATOM     17  C   UNL     1      -1.219   1.736   0.017  0.00  0.00    +0.024 A 
ATOM     18  C   UNL     1      -0.013   1.076   0.008  0.00  0.00    +0.002 A 
ATOM     19  C   UNL     1       1.182   1.772   0.000  0.00  0.00    +0.001 A 
ATOM     20  C   UNL     1       1.152   3.156   0.007  0.00  0.00    +0.016 A 
ATOM     21  C   UNL     1      -0.057   3.816   0.022  0.00  0.00    +0.030 A 
ATOM     22  S   UNL     1      -0.479   5.543   0.035  0.00  0.00    -0.101 S 
ATOM     23  H   UNL     1      -3.450   3.446   0.052  0.00  0.00    +0.147 HD
ENDBRANCH  13  14
ENDBRANCH   1  13
TORSDOF 4
