REMARK  Name = ZINC05164755
REMARK  6 active torsions:
REMARK  status: ('A' for Active; 'I' for Inactive)
REMARK    1  A    between atoms: C_1  and  C_2
REMARK    2  A    between atoms: C_5  and  C_27
REMARK    3  A    between atoms: C_11  and  N_24
REMARK    4  A    between atoms: C_12  and  N_23
REMARK    5  A    between atoms: N_16  and  C_17
REMARK    6  A    between atoms: C_17  and  C_18
REMARK                            x       y       z     vdW  Elec       q    Type
REMARK                         _______ _______ _______ _____ _____    ______ ____
ROOT
ATOM      1  C   UNL     1       3.730   0.011  -1.247  0.00  0.00    +0.009 C 
ATOM      2  C   UNL     1       2.235  -0.310  -1.191  0.00  0.00    +0.004 C 
ATOM      3  C   UNL     1       2.042  -1.826  -1.108  0.00  0.00    +0.009 C 
ATOM      4  C   UNL     1       2.755  -2.366   0.134  0.00  0.00    +0.004 C 
ATOM      5  C   UNL     1       2.142  -1.731   1.386  0.00  0.00    +0.109 C 
ATOM      6  N   UNL     1       2.193  -0.269   1.248  0.00  0.00    -0.313 N 
ATOM      7  C   UNL     1       1.616   0.348   0.045  0.00  0.00    +0.109 C 
ATOM      8  C   UNL     1       2.774   0.513   2.234  0.00  0.00    +0.159 A 
ATOM      9  C   UNL     1       2.008   1.006   3.286  0.00  0.00    +0.205 A 
ATOM     10  C   UNL     1       2.634   1.787   4.253  0.00  0.00    +0.154 A 
ATOM     11  N   UNL     1       3.937   2.035   4.141  0.00  0.00    -0.197 NA
ATOM     12  C   UNL     1       4.635   1.549   3.126  0.00  0.00    +0.219 A 
ATOM     13  N   UNL     1       4.074   0.798   2.190  0.00  0.00    -0.197 NA
ATOM     14  N   UNL     1       5.988   1.829   3.043  0.00  0.00    -0.306 N 
ATOM     15  C   UNL     1       2.590  -3.886   0.198  0.00  0.00    +0.009 C 
ATOM     16  H   UNL     1       6.511   1.479   2.305  0.00  0.00    +0.149 HD
ENDROOT
BRANCH  10  17
ATOM     17  N   UNL     1       1.910   2.300   5.318  0.00  0.00    -0.341 N 
ATOM     18  H   UNL     1       0.961   2.116   5.393  0.00  0.00    +0.144 HD
ATOM     19  H   UNL     1       2.353   2.844   5.988  0.00  0.00    +0.144 HD
ENDBRANCH  10  17
BRANCH   9  20
ATOM     20  N   UNL     1       0.560   0.708   3.374  0.00  0.00    +0.063 N 
ATOM     21  O   UNL     1       0.180  -0.272   3.972  0.00  0.00    -0.126 OA
ATOM     22  O   UNL     1      -0.242   1.444   2.847  0.00  0.00    -0.126 OA
ENDBRANCH   9  20
BRANCH  14  23
ATOM     23  C   UNL     1       6.630   2.653   4.071  0.00  0.00    +0.178 C 
BRANCH  23  24
ATOM     24  C   UNL     1       8.094   2.806   3.750  0.00  0.00    +0.122 A 
ATOM     25  C   UNL     1       8.638   3.785   3.005  0.00  0.00    +0.046 A 
ATOM     26  C   UNL     1      10.030   3.542   2.963  0.00  0.00    +0.041 A 
ATOM     27  C   UNL     1      10.254   2.429   3.685  0.00  0.00    +0.195 A 
ATOM     28  O   UNL     1       9.078   1.991   4.163  0.00  0.00    -0.466 OA
ENDBRANCH  23  24
ENDBRANCH  14  23
TORSDOF 4
