REMARK  Name = ZINC16927510
REMARK  10 active torsions:
REMARK  status: ('A' for Active; 'I' for Inactive)
REMARK    1  A    between atoms: C_1  and  C_2
REMARK    2  A    between atoms: C_2  and  C_4
REMARK    3  A    between atoms: C_2  and  N_47
REMARK    4  A    between atoms: C_7  and  S_16
REMARK    5  A    between atoms: N_8  and  C_9
REMARK    6  A    between atoms: S_16  and  C_17
REMARK    7  A    between atoms: C_17  and  C_19
REMARK    8  A    between atoms: C_17  and  C_20
REMARK    9  A    between atoms: C_26  and  N_47
REMARK   10  A    between atoms: C_27  and  N_47
REMARK                            x       y       z     vdW  Elec       q    Type
REMARK                         _______ _______ _______ _____ _____    ______ ____
ROOT
ATOM      1  C   UNL     1      -4.382   2.515  -1.717  0.00  0.00    +0.125 A 
ATOM      2  N   UNL     1      -3.197   3.042  -1.845  0.00  0.00    -0.135 NA
ATOM      3  N   UNL     1      -2.422   2.622  -0.910  0.00  0.00    -0.122 NA
ATOM      4  C   UNL     1      -3.072   1.788  -0.131  0.00  0.00    +0.197 A 
ATOM      5  N   UNL     1      -4.346   1.696  -0.620  0.00  0.00    -0.275 N 
ENDROOT
BRANCH   5   6
ATOM      6  C   UNL     1      -5.398   0.923  -0.104  0.00  0.00    +0.050 A 
ATOM      7  C   UNL     1      -5.925  -0.120  -0.852  0.00  0.00    +0.028 A 
ATOM      8  C   UNL     1      -6.957  -0.883  -0.341  0.00  0.00    +0.022 A 
ATOM      9  C   UNL     1      -7.472  -0.601   0.912  0.00  0.00    +0.041 A 
ATOM     10  C   UNL     1      -6.951   0.443   1.658  0.00  0.00    +0.022 A 
ATOM     11  C   UNL     1      -5.916   1.204   1.153  0.00  0.00    +0.028 A 
ATOM     12 CL   UNL     1      -8.773  -1.557   1.550  0.00  0.00    -0.084 Cl
ENDBRANCH   5   6
BRANCH   1  14
ATOM     13  C   UNL     1      -6.156   4.141  -2.313  0.00  0.00    -0.005 C 
ATOM     14  C   UNL     1      -5.570   2.760  -2.611  0.00  0.00    -0.003 C 
BRANCH  14  17
ATOM     15  C   UNL     1      -6.300   2.816  -4.919  0.00  0.00    -0.096 C 
ATOM     16  C   UNL     1      -4.143   3.732  -4.308  0.00  0.00    -0.096 C 
ATOM     17  N   UNL     1      -5.135   2.674  -4.020  0.00  0.00    +0.382 N 
ATOM     18  H   UNL     1      -4.700   1.758  -4.180  0.00  0.00    -0.082 HD
ENDBRANCH  14  17
ENDBRANCH   1  14
BRANCH   4  19
ATOM     19  S   UNL     1      -2.427   0.953   1.280  0.00  0.00    -0.073 S 
BRANCH  19  20
ATOM     20  C   UNL     1      -0.729   1.579   1.267  0.00  0.00    +0.137 C 
ATOM     21  C   UNL     1      -0.013   1.086   0.008  0.00  0.00    +0.029 C 
BRANCH  20  22
ATOM     22  C   UNL     1       0.000   1.080   2.488  0.00  0.00    +0.233 C 
ATOM     23  O   UNL     1      -0.360   0.059   3.034  0.00  0.00    -0.274 OA
ATOM     24  N   UNL     1       1.052   1.768   2.973  0.00  0.00    -0.239 N 
ATOM     25  C   UNL     1       1.704   1.322   4.065  0.00  0.00    +0.303 C 
ATOM     26  O   UNL     1       1.343   0.299   4.612  0.00  0.00    -0.253 OA
ATOM     27  N   UNL     1       2.756   2.010   4.550  0.00  0.00    -0.313 N 
ATOM     28  H   UNL     1       1.340   2.585   2.536  0.00  0.00    +0.159 HD
ATOM     29  H   UNL     1       3.044   2.827   4.113  0.00  0.00    +0.146 HD
ATOM     30  H   UNL     1       3.225   1.689   5.336  0.00  0.00    +0.146 HD
ENDBRANCH  20  22
ENDBRANCH  19  20
ENDBRANCH   4  19
TORSDOF 6
