REMARK  Name = ZINC15690848
REMARK  12 active torsions:
REMARK  status: ('A' for Active; 'I' for Inactive)
REMARK    1  A    between atoms: C_1  and  C_2
REMARK    2  A    between atoms: C_2  and  C_3
REMARK    3  A    between atoms: C_2  and  N_4
REMARK    4  A    between atoms: N_4  and  S_5
REMARK    5  A    between atoms: S_5  and  C_8
REMARK    6  A    between atoms: C_11  and  C_14
REMARK    7  A    between atoms: N_16  and  C_17
REMARK    8  A    between atoms: C_17  and  C_18
REMARK    9  A    between atoms: C_18  and  C_20
REMARK   10  A    between atoms: C_18  and  N_62
REMARK   11  A    between atoms: C_25  and  O_26
REMARK   12  A    between atoms: O_26  and  C_27
REMARK                            x       y       z     vdW  Elec       q    Type
REMARK                         _______ _______ _______ _____ _____    ______ ____
ROOT
ATOM      1  C   UNL     1      -3.203   3.145   4.782  0.00  0.00    +0.244 C 
ATOM      2  O   UNL     1      -3.961   2.348   5.298  0.00  0.00    -0.270 OA
ATOM      3  N   UNL     1      -2.992   4.345   5.358  0.00  0.00    -0.313 N 
ATOM      4  H   UNL     1      -2.387   4.982   4.946  0.00  0.00    +0.149 HD
ENDROOT
BRANCH   1   8
ATOM      5  C   UNL     1      -1.221   2.152   1.159  0.00  0.00    +0.105 A 
ATOM      6  C   UNL     1      -0.998   3.382   1.751  0.00  0.00    +0.029 A 
ATOM      7  C   UNL     1      -1.642   3.713   2.925  0.00  0.00    +0.015 A 
ATOM      8  C   UNL     1      -2.513   2.800   3.521  0.00  0.00    +0.037 A 
ATOM      9  C   UNL     1      -2.729   1.558   2.921  0.00  0.00    +0.015 A 
ATOM     10  C   UNL     1      -2.083   1.242   1.744  0.00  0.00    +0.029 A 
BRANCH   5  11
ATOM     11  S   UNL     1      -0.400   1.740  -0.345  0.00  0.00    +0.059 S 
ATOM     12  O   UNL     1      -0.351   0.321  -0.406  0.00  0.00    -0.153 OA
ATOM     13  O   UNL     1       0.770   2.546  -0.402  0.00  0.00    -0.153 OA
BRANCH  11  14
ATOM     14  N   UNL     1      -1.376   2.234  -1.588  0.00  0.00    -0.187 NA
ATOM     15  H   UNL     1      -1.766   1.580  -2.187  0.00  0.00    +0.148 HD
BRANCH  14  17
ATOM     16  C   UNL     1      -1.762   3.959  -3.278  0.00  0.00    +0.025 C 
ATOM     17  C   UNL     1      -1.650   3.660  -1.782  0.00  0.00    +0.070 C 
ATOM     18  C   UNL     1      -2.964   4.026  -1.089  0.00  0.00    +0.025 C 
ENDBRANCH  14  17
ENDBRANCH  11  14
ENDBRANCH   5  11
ENDBRANCH   1   8
BRANCH   3  19
ATOM     19  C   UNL     1      -3.676   4.688   6.608  0.00  0.00    +0.094 C 
BRANCH  19  20
ATOM     20  C   UNL     1      -3.175   6.044   7.108  0.00  0.00    -0.017 C 
BRANCH  20  21
ATOM     21  C   UNL     1      -3.586   7.121   6.136  0.00  0.00    -0.018 A 
ATOM     22  C   UNL     1      -2.710   7.532   5.149  0.00  0.00    +0.005 A 
ATOM     23  C   UNL     1      -3.086   8.519   4.258  0.00  0.00    +0.000 A 
ATOM     24  C   UNL     1      -4.339   9.097   4.350  0.00  0.00    +0.004 A 
ATOM     25  C   UNL     1      -5.218   8.690   5.335  0.00  0.00    +0.046 A 
ATOM     26  C   UNL     1      -4.845   7.695   6.228  0.00  0.00    +0.122 A 
BRANCH  26  27
ATOM     27  O   UNL     1      -5.710   7.289   7.194  0.00  0.00    -0.495 OA
ATOM     28  C   UNL     1      -6.989   7.924   7.228  0.00  0.00    +0.277 C 
ENDBRANCH  26  27
ENDBRANCH  20  21
BRANCH  20  33
ATOM     29  C   UNL     1      -1.191   7.302   7.748  0.00  0.00    -0.078 C 
ATOM     30  C   UNL     1       0.214   6.924   8.280  0.00  0.00    -0.020 C 
ATOM     31  C   UNL     1      -0.009   5.514   8.875  0.00  0.00    -0.020 C 
ATOM     32  C   UNL     1      -1.271   4.977   8.174  0.00  0.00    -0.078 C 
ATOM     33  N   UNL     1      -1.687   6.017   7.231  0.00  0.00    +0.385 N 
ATOM     34  H   UNL     1      -1.276   5.832   6.308  0.00  0.00    -0.081 HD
ENDBRANCH  20  33
ENDBRANCH  19  20
ENDBRANCH   3  19
TORSDOF 9
