REMARK  Name = ZINC35542472
REMARK  5 active torsions:
REMARK  status: ('A' for Active; 'I' for Inactive)
REMARK    1  A    between atoms: C_1  and  C_2
REMARK    2  A    between atoms: C_2  and  N_3
REMARK    3  A    between atoms: N_3  and  C_4
REMARK    4  A    between atoms: C_4  and  C_6
REMARK    5  A    between atoms: C_4  and  C_15
REMARK                            x       y       z     vdW  Elec       q    Type
REMARK                         _______ _______ _______ _____ _____    ______ ____
ROOT
ATOM      1  C   UNL     1       0.710  -1.947  -1.215  0.00  0.00    -0.010 C 
ENDROOT
BRANCH   1   2
ATOM      2  C   UNL     1      -0.700  -2.467  -1.328  0.00  0.00    -0.057 A 
ATOM      3  C   UNL     1      -1.604  -1.846  -2.170  0.00  0.00    +0.006 A 
ATOM      4  C   UNL     1      -2.894  -2.321  -2.280  0.00  0.00    +0.046 A 
ATOM      5  C   UNL     1      -3.298  -3.432  -1.544  0.00  0.00    +0.124 A 
ATOM      6  C   UNL     1      -2.383  -4.043  -0.696  0.00  0.00    -0.002 A 
ATOM      7  C   UNL     1      -1.093  -3.573  -0.594  0.00  0.00    +0.009 A 
ATOM      8  C   UNL     1      -3.104  -5.193  -0.019  0.00  0.00    +0.080 C 
ATOM      9  C   UNL     1      -4.586  -4.859  -0.313  0.00  0.00    +0.234 C 
ATOM     10  O   UNL     1      -4.502  -4.067  -1.510  0.00  0.00    -0.491 OA
ENDBRANCH   1   2
BRANCH   1  11
ATOM     11  C   UNL     1       1.520  -2.432  -2.389  0.00  0.00    -0.054 A 
ATOM     12  C   UNL     1       1.423  -1.788  -3.608  0.00  0.00    +0.022 A 
ATOM     13  C   UNL     1       2.166  -2.233  -4.687  0.00  0.00    +0.043 A 
ATOM     14  C   UNL     1       3.008  -3.322  -4.545  0.00  0.00    +0.040 A 
ATOM     15  C   UNL     1       3.105  -3.965  -3.324  0.00  0.00    +0.043 A 
ATOM     16  C   UNL     1       2.365  -3.516  -2.245  0.00  0.00    +0.022 A 
ATOM     17 CL   UNL     1       4.160  -5.332  -3.144  0.00  0.00    -0.083 Cl
ATOM     18 CL   UNL     1       2.043  -1.426  -6.219  0.00  0.00    -0.083 Cl
ENDBRANCH   1  11
BRANCH   1  19
ATOM     19  N   UNL     1       0.690  -0.478  -1.207  0.00  0.00    +0.386 N 
ATOM     20  H   UNL     1       0.202  -0.144  -2.024  0.00  0.00    -0.085 HD
ATOM     21  H   UNL     1       1.636  -0.129  -1.214  0.00  0.00    -0.085 HD
BRANCH  19  23
ATOM     22  C   UNL     1      -0.019   1.526   0.010  0.00  0.00    -0.017 C 
ATOM     23  C   UNL     1       0.002  -0.004   0.002  0.00  0.00    -0.085 C 
ENDBRANCH  19  23
ENDBRANCH   1  19
TORSDOF 4
