REMARK  Name = ZINC00113309
REMARK  4 active torsions:
REMARK  status: ('A' for Active; 'I' for Inactive)
REMARK    1  A    between atoms: C_1  and  O_2
REMARK    2  A    between atoms: O_2  and  C_3
REMARK    3  A    between atoms: C_12  and  O_15
REMARK    4  A    between atoms: C_13  and  O_14
REMARK                            x       y       z     vdW  Elec       q    Type
REMARK                         _______ _______ _______ _____ _____    ______ ____
ROOT
ATOM      1  C   UNL     1       0.606  -0.608  -1.057  0.00  0.00    +0.166 A 
ATOM      2  C   UNL     1       1.169   0.159  -2.055  0.00  0.00    +0.061 A 
ATOM      3  C   UNL     1       1.791  -0.466  -3.143  0.00  0.00    +0.025 A 
ATOM      4  C   UNL     1       2.397   0.323  -4.218  0.00  0.00    +0.019 A 
ATOM      5  C   UNL     1       2.986  -0.340  -5.247  0.00  0.00    +0.092 A 
ATOM      6  C   UNL     1       2.999  -1.750  -5.257  0.00  0.00    +0.337 A 
ATOM      7  O   UNL     1       3.531  -2.332  -6.186  0.00  0.00    -0.245 OA
ATOM      8  O   UNL     1       2.442  -2.467  -4.269  0.00  0.00    -0.418 OA
ATOM      9  C   UNL     1       1.840  -1.869  -3.216  0.00  0.00    +0.184 A 
ATOM     10  C   UNL     1       1.268  -2.630  -2.202  0.00  0.00    +0.206 A 
ATOM     11  C   UNL     1       0.660  -2.001  -1.125  0.00  0.00    +0.205 A 
ENDROOT
BRANCH   1  13
ATOM     12  C   UNL     1      -0.017   1.425   0.010  0.00  0.00    +0.277 C 
ATOM     13  O   UNL     1       0.002  -0.004   0.002  0.00  0.00    -0.491 OA
ENDBRANCH   1  13
BRANCH  11  14
ATOM     14  O   UNL     1       0.106  -2.747  -0.133  0.00  0.00    -0.501 OA
ATOM     15  H   UNL     1      -0.823  -2.971  -0.281  0.00  0.00    +0.292 HD
ENDBRANCH  11  14
BRANCH  10  16
ATOM     16  O   UNL     1       1.310  -3.989  -2.263  0.00  0.00    -0.501 OA
ATOM     17  H   UNL     1       2.091  -4.377  -1.843  0.00  0.00    +0.292 HD
ENDBRANCH  10  16
TORSDOF 3
