REMARK  Name = ZINC45899014
REMARK  9 active torsions:
REMARK  status: ('A' for Active; 'I' for Inactive)
REMARK    1  A    between atoms: C_1  and  C_2
REMARK    2  A    between atoms: C_2  and  C_3
REMARK    3  A    between atoms: C_3  and  N_4
REMARK    4  A    between atoms: C_8  and  S_9
REMARK    5  A    between atoms: S_9  and  C_10
REMARK    6  A    between atoms: C_10  and  C_12
REMARK    7  A    between atoms: C_10  and  C_13
REMARK    8  A    between atoms: N_18  and  C_19
REMARK    9  A    between atoms: C_22  and  C_25
REMARK                            x       y       z     vdW  Elec       q    Type
REMARK                         _______ _______ _______ _____ _____    ______ ____
ROOT
ATOM      1  C   UNL     1       5.380  -3.355   1.168  0.00  0.00    +0.234 C 
ATOM      2  O   UNL     1       5.545  -2.269   1.681  0.00  0.00    -0.274 OA
ATOM      3  N   UNL     1       6.391  -4.245   1.133  0.00  0.00    -0.239 N 
ATOM      4  C   UNL     1       7.587  -3.927   1.668  0.00  0.00    +0.310 C 
ATOM      5  O   UNL     1       7.752  -2.839   2.183  0.00  0.00    -0.252 OA
ATOM      6  N   UNL     1       8.598  -4.817   1.633  0.00  0.00    -0.269 N 
ATOM      7  H   UNL     1       6.259  -5.114   0.722  0.00  0.00    +0.159 HD
ATOM      8  H   UNL     1       8.448  -5.709   1.283  0.00  0.00    +0.156 HD
ENDROOT
BRANCH   6   9
ATOM      9  C   UNL     1       9.862  -4.455   2.100  0.00  0.00    +0.035 A 
ATOM     10  C   UNL     1       9.980  -3.600   3.191  0.00  0.00    +0.024 A 
ATOM     11  C   UNL     1      11.226  -3.240   3.654  0.00  0.00    +0.020 A 
ATOM     12  C   UNL     1      12.373  -3.736   3.027  0.00  0.00    +0.052 A 
ATOM     13  C   UNL     1      12.251  -4.595   1.931  0.00  0.00    +0.020 A 
ATOM     14  C   UNL     1      11.002  -4.954   1.477  0.00  0.00    +0.024 A 
BRANCH  12  15
ATOM     15  C   UNL     1      13.670  -3.363   3.506  0.00  0.00    +0.099 C 
ATOM     16  N   UNL     1      14.699  -3.068   3.886  0.00  0.00    -0.191 NA
ENDBRANCH  12  15
ENDBRANCH   6   9
BRANCH   1  17
ATOM     17  C   UNL     1       4.043  -3.710   0.569  0.00  0.00    +0.137 C 
ATOM     18  C   UNL     1       3.210  -4.476   1.599  0.00  0.00    +0.029 C 
BRANCH  17  19
ATOM     19  S   UNL     1       3.170  -2.192   0.095  0.00  0.00    -0.073 S 
BRANCH  19  24
ATOM     20  N   UNL     1       0.728  -1.979  -1.253  0.00  0.00    -0.271 N 
ATOM     21  C   UNL     1      -0.215  -2.781  -1.786  0.00  0.00    +0.345 A 
ATOM     22  N   UNL     1       0.170  -4.057  -1.577  0.00  0.00    -0.226 N 
ATOM     23  N   UNL     1       1.393  -4.019  -0.893  0.00  0.00    -0.145 NA
ATOM     24  C   UNL     1       1.715  -2.771  -0.712  0.00  0.00    +0.193 A 
ATOM     25  O   UNL     1      -1.231  -2.420  -2.353  0.00  0.00    -0.245 OA
ATOM     26  H   UNL     1      -0.310  -4.854  -1.851  0.00  0.00    +0.194 HD
BRANCH  20  27
ATOM     27  C   UNL     1       0.709  -0.514  -1.255  0.00  0.00    +0.129 C 
BRANCH  27  29
ATOM     28  C   UNL     1      -0.022   1.519   0.000  0.00  0.00    +0.005 C 
ATOM     29  C   UNL     1      -0.002  -0.011   0.003  0.00  0.00    +0.018 C 
ENDBRANCH  27  29
ENDBRANCH  20  27
ENDBRANCH  19  24
ENDBRANCH  17  19
ENDBRANCH   1  17
TORSDOF 7
