REMARK  Name = ZINC25680436
REMARK  5 active torsions:
REMARK  status: ('A' for Active; 'I' for Inactive)
REMARK    1  A    between atoms: C_3  and  O_29
REMARK    2  A    between atoms: C_6  and  C_7
REMARK    3  A    between atoms: N_10  and  C_13
REMARK    4  A    between atoms: C_13  and  C_14
REMARK    5  A    between atoms: N_19  and  C_20
REMARK                            x       y       z     vdW  Elec       q    Type
REMARK                         _______ _______ _______ _____ _____    ______ ____
ROOT
ATOM      1  C   UNL     1      -3.554  -2.333  -0.299  0.00  0.00    +0.204 C 
ATOM      2  O   UNL     1      -2.497  -2.928  -0.307  0.00  0.00    -0.277 OA
ATOM      3  N   UNL     1      -3.570  -0.990  -0.190  0.00  0.00    -0.241 N 
ATOM      4  C   UNL     1      -2.412  -0.308  -0.090  0.00  0.00    +0.310 C 
ATOM      5  O   UNL     1      -1.353  -0.904  -0.098  0.00  0.00    -0.252 OA
ATOM      6  N   UNL     1      -2.428   1.035   0.019  0.00  0.00    -0.269 N 
ATOM      7  H   UNL     1      -4.528  -0.451  -0.182  0.00  0.00    +0.159 HD
ATOM      8  H   UNL     1      -3.386   1.567   0.115  0.00  0.00    +0.156 HD
ENDROOT
BRANCH   6   9
ATOM      9  C   UNL     1      -1.225   1.753   0.011  0.00  0.00    +0.038 A 
ATOM     10  C   UNL     1      -0.153   1.303  -0.748  0.00  0.00    +0.027 A 
ATOM     11  C   UNL     1       1.032   2.013  -0.762  0.00  0.00    +0.051 A 
ATOM     12  C   UNL     1       1.156   3.173  -0.014  0.00  0.00    +0.166 A 
ATOM     13  C   UNL     1       0.085   3.624   0.752  0.00  0.00    +0.168 A 
ATOM     14  C   UNL     1      -1.103   2.912   0.766  0.00  0.00    +0.073 A 
ATOM     15  O   UNL     1       0.456   4.774   1.388  0.00  0.00    -0.453 OA
ATOM     16  C   UNL     1       1.621   5.243   0.684  0.00  0.00    +0.466 C 
ATOM     17  O   UNL     1       2.199   4.042   0.141  0.00  0.00    -0.453 OA
ENDBRANCH   6   9
BRANCH   1  18
ATOM     18  C   UNL     1      -4.848  -3.096  -0.410  0.00  0.00    +0.019 C 
BRANCH  18  22
ATOM     19  C   UNL     1      -4.432  -7.281  -0.234  0.00  0.00    -0.048 C 
ATOM     20  C   UNL     1      -3.798  -6.534   0.644  0.00  0.00    -0.041 C 
ATOM     21  C   UNL     1      -3.962  -5.044   0.722  0.00  0.00    -0.050 C 
ATOM     22  N   UNL     1      -4.563  -4.533  -0.517  0.00  0.00    +0.388 N 
ATOM     23  C   UNL     1      -5.782  -5.291  -0.843  0.00  0.00    -0.073 C 
ATOM     24  C   UNL     1      -5.379  -6.710  -1.252  0.00  0.00    +0.017 C 
ATOM     25  H   UNL     1      -3.838  -4.668  -1.334  0.00  0.00    -0.081 HD
BRANCH  19  31
ATOM     26  C   UNL     1      -3.594  -9.365  -1.309  0.00  0.00    +0.012 A 
ATOM     27  C   UNL     1      -3.377 -10.726  -1.289  0.00  0.00    +0.046 A 
ATOM     28  C   UNL     1      -3.775 -11.478  -0.191  0.00  0.00    +0.117 A 
ATOM     29  C   UNL     1      -4.386 -10.862   0.892  0.00  0.00    +0.046 A 
ATOM     30  C   UNL     1      -4.601  -9.500   0.882  0.00  0.00    +0.012 A 
ATOM     31  C   UNL     1      -4.203  -8.741  -0.219  0.00  0.00    -0.022 A 
BRANCH  28  32
ATOM     32  O   UNL     1      -3.565 -12.820  -0.178  0.00  0.00    -0.507 OA
ATOM     33  H   UNL     1      -3.879 -13.418   0.691  0.00  0.00    +0.292 HD
ENDBRANCH  28  32
ENDBRANCH  19  31
ENDBRANCH  18  22
ENDBRANCH   1  18
TORSDOF 5
