REMARK  Name = ZINC62776082
REMARK  6 active torsions:
REMARK  status: ('A' for Active; 'I' for Inactive)
REMARK    1  A    between atoms: C_1  and  C_2
REMARK    2  A    between atoms: C_2  and  O_3
REMARK    3  A    between atoms: O_3  and  C_4
REMARK    4  A    between atoms: C_9  and  C_10
REMARK    5  A    between atoms: C_10  and  C_12
REMARK    6  A    between atoms: C_10  and  N_18
REMARK                            x       y       z     vdW  Elec       q    Type
REMARK                         _______ _______ _______ _____ _____    ______ ____
ROOT
ATOM      1  C   UNL     1      -3.981  -1.497   0.033  0.00  0.00    +0.011 C 
ENDROOT
BRANCH   1   7
ATOM      2  C   UNL     1      -1.498  -1.848   0.006  0.00  0.00    +0.122 A 
ATOM      3  C   UNL     1      -0.387  -2.679  -0.003  0.00  0.00    +0.047 A 
ATOM      4  C   UNL     1      -0.552  -4.051  -0.009  0.00  0.00    +0.019 A 
ATOM      5  C   UNL     1      -1.824  -4.596  -0.005  0.00  0.00    +0.018 A 
ATOM      6  C   UNL     1      -2.933  -3.769   0.004  0.00  0.00    +0.021 A 
ATOM      7  C   UNL     1      -2.772  -2.397   0.016  0.00  0.00    -0.013 A 
ATOM      8 BR   UNL     1      -2.046  -6.474  -0.013  0.00  0.00    -0.050 Br
BRANCH   2   9
ATOM      9  O   UNL     1      -1.339  -0.499   0.012  0.00  0.00    -0.492 OA
BRANCH   9  11
ATOM     10  C   UNL     1      -0.019   1.526   0.010  0.00  0.00    +0.048 C 
ATOM     11  C   UNL     1       0.002  -0.004   0.002  0.00  0.00    +0.225 C 
ENDBRANCH   9  11
ENDBRANCH   2   9
ENDBRANCH   1   7
BRANCH   1  12
ATOM     12  C   UNL     1      -4.223  -1.007   1.437  0.00  0.00    +0.053 A 
ATOM     13  C   UNL     1      -4.331   0.330   1.832  0.00  0.00    +0.042 A 
ATOM     14  C   UNL     1      -4.547   0.354   3.168  0.00  0.00    +0.105 A 
ATOM     15  N   UNL     1      -4.574  -0.923   3.603  0.00  0.00    -0.285 N 
ATOM     16  N   UNL     1      -4.373  -1.759   2.497  0.00  0.00    -0.180 NA
ATOM     17  H   UNL     1      -4.711  -1.211   4.519  0.00  0.00    +0.188 HD
ENDBRANCH   1  12
BRANCH   1  18
ATOM     18  N   UNL     1      -5.155  -2.245  -0.434  0.00  0.00    +0.386 N 
ATOM     19  H   UNL     1      -4.994  -2.573  -1.374  0.00  0.00    -0.089 HD
ATOM     20  H   UNL     1      -5.315  -3.034   0.174  0.00  0.00    -0.089 HD
ATOM     21  H   UNL     1      -5.965  -1.643  -0.423  0.00  0.00    -0.089 HD
ENDBRANCH   1  18
TORSDOF 5
