REMARK  Name = ZINC62665160
REMARK  4 active torsions:
REMARK  status: ('A' for Active; 'I' for Inactive)
REMARK    1  A    between atoms: C_1  and  C_2
REMARK    2  A    between atoms: C_7  and  C_8
REMARK    3  A    between atoms: C_8  and  C_10
REMARK    4  A    between atoms: C_8  and  N_21
REMARK                            x       y       z     vdW  Elec       q    Type
REMARK                         _______ _______ _______ _____ _____    ______ ____
ROOT
ATOM      1  C   UNL     1       0.035   0.231   2.389  0.00  0.00    -0.011 C 
ENDROOT
BRANCH   1   2
ATOM      2  C   UNL     1       1.389   0.852   2.618  0.00  0.00    -0.036 A 
ATOM      3  C   UNL     1       2.345   0.172   3.349  0.00  0.00    +0.053 A 
ATOM      4  C   UNL     1       3.592   0.740   3.561  0.00  0.00    +0.162 A 
ATOM      5  C   UNL     1       3.880   1.994   3.034  0.00  0.00    +0.163 A 
ATOM      6  C   UNL     1       2.916   2.672   2.303  0.00  0.00    +0.069 A 
ATOM      7  C   UNL     1       1.675   2.098   2.091  0.00  0.00    +0.047 A 
ATOM      8 CL   UNL     1       0.474   2.946   1.169  0.00  0.00    -0.083 Cl
ATOM      9  O   UNL     1       5.100   2.566   3.223  0.00  0.00    -0.485 OA
ATOM     10  C   UNL     1       5.909   2.023   4.272  0.00  0.00    +0.270 C 
ATOM     11  C   UNL     1       5.880   0.493   4.159  0.00  0.00    +0.270 C 
ATOM     12  O   UNL     1       4.521   0.060   4.287  0.00  0.00    -0.485 OA
ENDBRANCH   1   2
BRANCH   1  19
ATOM     13  C   UNL     1      -2.470  -0.437   1.115  0.00  0.00    +0.044 C 
ATOM     14  C   UNL     1      -1.167  -0.814   0.458  0.00  0.00    -0.048 A 
ATOM     15  C   UNL     1      -1.171  -1.474  -0.756  0.00  0.00    +0.006 A 
ATOM     16  C   UNL     1       0.022  -1.819  -1.360  0.00  0.00    +0.038 A 
ATOM     17  C   UNL     1       1.224  -1.504  -0.748  0.00  0.00    +0.124 A 
ATOM     18  C   UNL     1       1.227  -0.843   0.469  0.00  0.00    +0.041 A 
ATOM     19  C   UNL     1       0.032  -0.494   1.068  0.00  0.00    -0.052 A 
ATOM     20  F   UNL     1       2.392  -1.842  -1.337  0.00  0.00    -0.205 F 
ENDBRANCH   1  19
BRANCH   1  21
ATOM     21  N   UNL     1      -0.257  -0.719   3.470  0.00  0.00    +0.385 N 
ATOM     22  H   UNL     1      -0.167  -0.254   4.361  0.00  0.00    -0.089 HD
ATOM     23  H   UNL     1      -1.199  -1.067   3.367  0.00  0.00    -0.089 HD
ATOM     24  H   UNL     1       0.393  -1.490   3.426  0.00  0.00    -0.089 HD
ENDBRANCH   1  21
TORSDOF 3
