REMARK  Name = ZINC12821311
REMARK  8 active torsions:
REMARK  status: ('A' for Active; 'I' for Inactive)
REMARK    1  A    between atoms: C_1  and  C_2
REMARK    2  A    between atoms: C_4  and  C_27
REMARK    3  A    between atoms: N_6  and  S_8
REMARK    4  A    between atoms: S_8  and  C_11
REMARK    5  A    between atoms: C_14  and  N_17
REMARK    6  A    between atoms: C_18  and  C_20
REMARK    7  A    between atoms: C_20  and  S_21
REMARK    8  A    between atoms: S_21  and  C_22
REMARK                            x       y       z     vdW  Elec       q    Type
REMARK                         _______ _______ _______ _____ _____    ______ ____
ROOT
ATOM      1  C   UNL     1       2.640   2.451   2.081  0.00  0.00    +0.106 A 
ATOM      2  C   UNL     1       3.644   3.193   1.488  0.00  0.00    +0.030 A 
ATOM      3  C   UNL     1       3.453   4.537   1.232  0.00  0.00    +0.025 A 
ATOM      4  C   UNL     1       2.251   5.143   1.572  0.00  0.00    +0.034 A 
ATOM      5  C   UNL     1       1.244   4.395   2.168  0.00  0.00    +0.025 A 
ATOM      6  C   UNL     1       1.439   3.050   2.416  0.00  0.00    +0.030 A 
ENDROOT
BRANCH   4   7
ATOM      7  N   UNL     1       2.054   6.504   1.315  0.00  0.00    -0.285 N 
ATOM      8  C   UNL     1       2.622   7.075   0.234  0.00  0.00    +0.227 C 
ATOM      9  O   UNL     1       3.222   6.391  -0.568  0.00  0.00    -0.275 OA
ATOM     10  H   UNL     1       1.510   7.038   1.915  0.00  0.00    +0.155 HD
BRANCH   8  11
ATOM     11  C   UNL     1       2.510   8.562   0.021  0.00  0.00    +0.173 C 
BRANCH  11  12
ATOM     12  S   UNL     1       3.369   9.020  -1.510  0.00  0.00    -0.083 S 
BRANCH  12  13
ATOM     13  C   UNL     1       3.150  10.765  -1.616  0.00  0.00    +0.128 C 
ATOM     14  N   UNL     1       2.488  11.460  -0.704  0.00  0.00    -0.366 N 
ATOM     15  C   UNL     1       2.486  12.882  -1.084  0.00  0.00    +0.133 C 
ATOM     16  C   UNL     1       3.280  12.901  -2.406  0.00  0.00    +0.124 C 
ATOM     17  N   UNL     1       3.639  11.489  -2.611  0.00  0.00    -0.324 N 
ATOM     18  H   UNL     1       4.152  11.142  -3.358  0.00  0.00    +0.148 HD
ATOM     19  H   UNL     1       2.069  11.091   0.089  0.00  0.00    +0.161 HD
ENDBRANCH  12  13
ENDBRANCH  11  12
ENDBRANCH   8  11
ENDBRANCH   4   7
BRANCH   1  20
ATOM     20  S   UNL     1       2.887   0.737   2.405  0.00  0.00    +0.061 S 
ATOM     21  O   UNL     1       1.998   0.390   3.458  0.00  0.00    -0.153 OA
ATOM     22  O   UNL     1       4.291   0.540   2.498  0.00  0.00    -0.153 OA
BRANCH  20  28
ATOM     23  C   UNL     1       0.345   1.495  -0.350  0.00  0.00    +0.009 C 
ATOM     24  C   UNL     1       0.415  -0.033  -0.380  0.00  0.00    +0.002 C 
ATOM     25  C   UNL     1       1.321  -0.481  -1.529  0.00  0.00    +0.009 C 
ATOM     26  C   UNL     1       2.717   0.118  -1.343  0.00  0.00    +0.002 C 
ATOM     27  C   UNL     1       3.316  -0.392  -0.028  0.00  0.00    +0.112 C 
ATOM     28  N   UNL     1       2.381  -0.093   1.065  0.00  0.00    -0.176 NA
ATOM     29  C   UNL     1       0.988  -0.544   0.946  0.00  0.00    +0.112 C 
ATOM     30  C   UNL     1       3.613  -0.303  -2.510  0.00  0.00    +0.009 C 
ENDBRANCH  20  28
ENDBRANCH   1  20
TORSDOF 6
