REMARK  Name = ZINC56523974
REMARK  6 active torsions:
REMARK  status: ('A' for Active; 'I' for Inactive)
REMARK    1  A    between atoms: C_1  and  C_2
REMARK    2  A    between atoms: C_2  and  C_4
REMARK    3  A    between atoms: C_2  and  N_12
REMARK    4  A    between atoms: C_4  and  C_5
REMARK    5  A    between atoms: C_8  and  O_11
REMARK    6  A    between atoms: N_15  and  C_16
REMARK                            x       y       z     vdW  Elec       q    Type
REMARK                         _______ _______ _______ _____ _____    ______ ____
ROOT
ATOM      1  N   UNL     1       0.687  -0.493  -1.197  0.00  0.00    -0.296 N 
ATOM      2  C   UNL     1       2.031  -0.594  -1.212  0.00  0.00    +0.304 C 
ATOM      3  O   UNL     1       2.674  -0.298  -0.224  0.00  0.00    -0.252 OA
ATOM      4  N   UNL     1       2.662  -1.022  -2.324  0.00  0.00    -0.267 N 
ATOM      5  H   UNL     1       0.174  -0.729  -1.985  0.00  0.00    +0.151 HD
ATOM      6  H   UNL     1       2.147  -1.319  -3.090  0.00  0.00    +0.156 HD
ENDROOT
BRANCH   4   7
ATOM      7  C   UNL     1       4.063  -1.037  -2.373  0.00  0.00    +0.073 A 
ATOM      8  C   UNL     1       4.795  -1.326  -1.229  0.00  0.00    +0.029 A 
ATOM      9  C   UNL     1       6.176  -1.341  -1.278  0.00  0.00    +0.043 A 
ATOM     10  C   UNL     1       6.831  -1.068  -2.466  0.00  0.00    +0.161 A 
ATOM     11  C   UNL     1       6.104  -0.779  -3.611  0.00  0.00    +0.195 A 
ATOM     12  C   UNL     1       4.720  -0.769  -3.567  0.00  0.00    +0.182 A 
ATOM     13  F   UNL     1       4.011  -0.493  -4.683  0.00  0.00    -0.200 F 
ATOM     14  F   UNL     1       6.746  -0.513  -4.769  0.00  0.00    -0.199 F 
ATOM     15  F   UNL     1       8.182  -1.083  -2.510  0.00  0.00    -0.202 F 
ENDBRANCH   4   7
BRANCH   1  17
ATOM     16  C   UNL     1      -0.031   1.502   0.023  0.00  0.00    +0.028 C 
ATOM     17  C   UNL     1       0.001  -0.028   0.012  0.00  0.00    +0.076 C 
BRANCH  17  18
ATOM     18  C   UNL     1      -1.430  -0.569   0.026  0.00  0.00    +0.057 C 
BRANCH  18  19
ATOM     19  C   UNL     1      -1.399  -2.071   0.139  0.00  0.00    -0.045 A 
ATOM     20  C   UNL     1      -1.357  -2.848  -1.004  0.00  0.00    +0.007 A 
ATOM     21  C   UNL     1      -1.328  -4.226  -0.903  0.00  0.00    +0.045 A 
ATOM     22  C   UNL     1      -1.341  -4.829   0.346  0.00  0.00    +0.117 A 
ATOM     23  C   UNL     1      -1.383  -4.047   1.491  0.00  0.00    +0.045 A 
ATOM     24  C   UNL     1      -1.406  -2.670   1.385  0.00  0.00    +0.007 A 
BRANCH  22  25
ATOM     25  O   UNL     1      -1.314  -6.184   0.448  0.00  0.00    -0.507 OA
ATOM     26  H   UNL     1      -0.423  -6.557   0.496  0.00  0.00    +0.292 HD
ENDBRANCH  22  25
ENDBRANCH  18  19
ENDBRANCH  17  18
ENDBRANCH   1  17
TORSDOF 5
