REMARK  Name = ZINC38083844
REMARK  7 active torsions:
REMARK  status: ('A' for Active; 'I' for Inactive)
REMARK    1  A    between atoms: C_3  and  C_9
REMARK    2  A    between atoms: C_6  and  C_7
REMARK    3  A    between atoms: C_9  and  C_11
REMARK    4  A    between atoms: C_9  and  O_22
REMARK    5  A    between atoms: C_11  and  N_12
REMARK    6  A    between atoms: N_12  and  C_13
REMARK    7  A    between atoms: C_13  and  C_14
REMARK                            x       y       z     vdW  Elec       q    Type
REMARK                         _______ _______ _______ _____ _____    ______ ____
ROOT
ATOM      1  C   UNL     1       4.250   2.234   1.394  0.00  0.00    -0.046 C 
ENDROOT
BRANCH   1   2
ATOM      2  N   UNL     1       5.445   3.088   1.410  0.00  0.00    +0.381 N 
ATOM      3  H   UNL     1       6.134   2.714   0.775  0.00  0.00    -0.086 HD
ATOM      4  H   UNL     1       5.195   4.022   1.123  0.00  0.00    -0.086 HD
BRANCH   2   5
ATOM      5  C   UNL     1       6.002   3.126   2.769  0.00  0.00    -0.077 C 
BRANCH   5   6
ATOM      6  C   UNL     1       7.247   4.015   2.785  0.00  0.00    -0.006 C 
ATOM      7  C   UNL     1       8.359   3.368   1.944  0.00  0.00    +0.026 C 
ATOM      8  C   UNL     1       9.706   4.082   2.210  0.00  0.00    +0.166 C 
ATOM      9  S   UNL     1       9.501   4.702   3.930  0.00  0.00    -0.031 S 
ATOM     10  O   UNL     1       9.549   6.122   3.918  0.00  0.00    -0.174 OA
ATOM     11  O   UNL     1      10.373   3.979   4.788  0.00  0.00    -0.174 OA
ATOM     12  C   UNL     1       7.767   4.163   4.244  0.00  0.00    +0.167 C 
ENDBRANCH   5   6
ENDBRANCH   2   5
ENDBRANCH   1   2
BRANCH   1  13
ATOM     13  C   UNL     1       3.670   2.194  -0.021  0.00  0.00    +0.128 C 
BRANCH  13  16
ATOM     14  C   UNL     1      -0.017   1.392   0.010  0.00  0.00    +0.019 A 
ATOM     15  C   UNL     1       1.170   2.095   0.002  0.00  0.00    +0.007 A 
ATOM     16  C   UNL     1       2.378   1.419  -0.013  0.00  0.00    -0.021 A 
ATOM     17  C   UNL     1       2.404   0.036  -0.021  0.00  0.00    +0.007 A 
ATOM     18  C   UNL     1       1.224  -0.679  -0.014  0.00  0.00    +0.019 A 
ATOM     19  C   UNL     1       0.002  -0.004   0.002  0.00  0.00    +0.052 A 
BRANCH  19  20
ATOM     20  C   UNL     1      -1.226  -0.740   0.010  0.00  0.00    +0.099 C 
ATOM     21  N   UNL     1      -2.201  -1.324   0.017  0.00  0.00    -0.191 NA
ENDBRANCH  19  20
ENDBRANCH  13  16
BRANCH  13  22
ATOM     22  O   UNL     1       4.601   1.558  -0.900  0.00  0.00    -0.389 OA
ATOM     23  H   UNL     1       4.815   0.648  -0.653  0.00  0.00    +0.210 HD
ENDBRANCH  13  22
ENDBRANCH   1  13
TORSDOF 7
