REMARK  Name = ZINC66563435
REMARK  6 active torsions:
REMARK  status: ('A' for Active; 'I' for Inactive)
REMARK    1  A    between atoms: C_1  and  C_2
REMARK    2  A    between atoms: C_2  and  N_3
REMARK    3  A    between atoms: N_3  and  C_4
REMARK    4  A    between atoms: C_10  and  C_12
REMARK    5  A    between atoms: C_12  and  N_13
REMARK    6  A    between atoms: C_18  and  C_20
REMARK                            x       y       z     vdW  Elec       q    Type
REMARK                         _______ _______ _______ _____ _____    ______ ____
ROOT
ATOM      1  C   UNL     1      -1.810  -0.124  -2.075  0.00  0.00    +0.020 C 
ENDROOT
BRANCH   1   2
ATOM      2  N   UNL     1      -2.050  -0.677  -3.415  0.00  0.00    +0.393 N 
ATOM      3  C   UNL     1      -1.586   0.279  -4.427  0.00  0.00    -0.077 C 
ATOM      4  C   UNL     1      -1.759  -0.326  -5.822  0.00  0.00    -0.019 C 
ATOM      5  C   UNL     1      -3.239  -0.640  -6.056  0.00  0.00    -0.003 C 
ATOM      6  C   UNL     1      -3.732  -1.579  -4.952  0.00  0.00    -0.006 C 
ATOM      7  C   UNL     1      -3.486  -0.928  -3.589  0.00  0.00    +0.020 C 
ATOM      8  H   UNL     1      -1.543  -1.544  -3.516  0.00  0.00    -0.080 HD
BRANCH   7   9
ATOM      9  C   UNL     1      -3.969  -1.849  -2.498  0.00  0.00    +0.197 C 
ATOM     10  O   UNL     1      -3.208  -2.650  -1.998  0.00  0.00    -0.278 OA
ATOM     11  N   UNL     1      -5.248  -1.783  -2.078  0.00  0.00    -0.331 N 
ATOM     12  H   UNL     1      -5.857  -1.143  -2.478  0.00  0.00    +0.145 HD
ATOM     13  H   UNL     1      -5.560  -2.376  -1.376  0.00  0.00    +0.145 HD
ENDBRANCH   7   9
ENDBRANCH   1   2
BRANCH   1  15
ATOM     14  N   UNL     1       0.133   0.451  -0.657  0.00  0.00    -0.277 N 
ATOM     15  C   UNL     1      -0.326  -0.031  -1.829  0.00  0.00    +0.203 C 
ATOM     16  O   UNL     1       0.455  -0.389  -2.685  0.00  0.00    -0.277 OA
BRANCH  14  17
ATOM     17  C   UNL     1       1.500   0.637  -0.469  0.00  0.00    +0.009 C 
ATOM     18  C   UNL     1       2.092  -0.064   0.458  0.00  0.00    -0.008 C 
ATOM     19  C   UNL     1       3.554   0.037   0.780  0.00  0.00    +0.029 C 
ATOM     20  C   UNL     1       4.301   0.721  -0.368  0.00  0.00    +0.004 C 
ATOM     21  C   UNL     1       3.554   2.010  -0.733  0.00  0.00    +0.006 C 
ATOM     22  C   UNL     1       2.205   1.628  -1.348  0.00  0.00    +0.051 C 
ENDBRANCH  14  17
BRANCH  14  24
ATOM     23  C   UNL     1      -1.159   2.267   0.350  0.00  0.00    +0.025 C 
ATOM     24  C   UNL     1      -0.806   0.780   0.418  0.00  0.00    +0.110 C 
ENDBRANCH  14  24
ENDBRANCH   1  15
TORSDOF 5
