REMARK  Name = ZINC34785111
REMARK  8 active torsions:
REMARK  status: ('A' for Active; 'I' for Inactive)
REMARK    1  A    between atoms: C_1  and  C_2
REMARK    2  A    between atoms: C_2  and  C_3
REMARK    3  A    between atoms: C_2  and  C_4
REMARK    4  A    between atoms: C_4  and  N_5
REMARK    5  A    between atoms: N_13  and  C_14
REMARK    6  A    between atoms: C_15  and  C_25
REMARK    7  A    between atoms: C_21  and  C_23
REMARK    8  A    between atoms: C_21  and  C_24
REMARK                            x       y       z     vdW  Elec       q    Type
REMARK                         _______ _______ _______ _____ _____    ______ ____
ROOT
ATOM      1  C   UNL     1      -3.642  -7.596   1.057  0.00  0.00    +0.086 A 
ATOM      2  C   UNL     1      -4.820  -8.275   0.782  0.00  0.00    +0.069 A 
ATOM      3  C   UNL     1      -5.123  -9.431   1.603  0.00  0.00    -0.018 A 
ATOM      4  C   UNL     1      -4.194  -9.698   2.550  0.00  0.00    +0.021 A 
ATOM      5  S   UNL     1      -2.964  -8.449   2.335  0.00  0.00    -0.075 S 
ATOM      6  C   UNL     1      -4.245 -10.822   3.537  0.00  0.00    +0.203 C 
ATOM      7  O   UNL     1      -5.577 -11.360   3.522  0.00  0.00    -0.368 OA
ATOM      8  C   UNL     1      -6.074 -11.629   2.209  0.00  0.00    +0.068 C 
ATOM      9  C   UNL     1      -6.355 -10.315   1.471  0.00  0.00    +0.071 C 
ATOM     10  C   UNL     1      -7.369 -12.438   2.312  0.00  0.00    +0.041 C 
ATOM     11  C   UNL     1      -5.035 -12.436   1.429  0.00  0.00    +0.041 C 
ENDROOT
BRANCH   1  20
ATOM     12  N   UNL     1      -1.176  -2.061  -0.194  0.00  0.00    +0.382 N 
ATOM     13  C   UNL     1      -0.611  -2.666   1.019  0.00  0.00    -0.059 C 
ATOM     14  C   UNL     1      -0.298  -4.142   0.754  0.00  0.00    +0.091 C 
ATOM     15  N   UNL     1      -1.520  -4.797   0.262  0.00  0.00    -0.289 N 
ATOM     16  C   UNL     1      -2.245  -4.165  -0.852  0.00  0.00    +0.091 C 
ATOM     17  C   UNL     1      -2.466  -2.688  -0.511  0.00  0.00    -0.059 C 
ATOM     18  C   UNL     1      -1.963  -5.943   0.815  0.00  0.00    +0.307 C 
ATOM     19  O   UNL     1      -1.304  -6.499   1.673  0.00  0.00    -0.252 OA
ATOM     20  N   UNL     1      -3.137  -6.473   0.418  0.00  0.00    -0.263 N 
ATOM     21  H   UNL     1      -3.628  -6.070  -0.314  0.00  0.00    +0.157 HD
ATOM     22  H   UNL     1      -0.538  -2.199  -0.964  0.00  0.00    -0.082 HD
BRANCH  12  23
ATOM     23  C   UNL     1      -1.373  -0.622   0.025  0.00  0.00    -0.076 C 
BRANCH  23  25
ATOM     24  C   UNL     1      -2.071   1.526  -1.045  0.00  0.00    +0.005 C 
ATOM     25  C   UNL     1      -1.802   0.039  -1.287  0.00  0.00    -0.034 C 
ATOM     26  C   UNL     1      -0.689  -0.116  -2.324  0.00  0.00    +0.005 C 
ENDBRANCH  23  25
ENDBRANCH  12  23
ENDBRANCH   1  20
BRANCH   2  27
ATOM     27  C   UNL     1      -5.720  -7.843  -0.291  0.00  0.00    +0.244 C 
ATOM     28  O   UNL     1      -5.579  -8.282  -1.417  0.00  0.00    -0.270 OA
ATOM     29  N   UNL     1      -6.704  -6.959  -0.030  0.00  0.00    -0.325 N 
ATOM     30  H   UNL     1      -6.816  -6.609   0.867  0.00  0.00    +0.145 HD
ATOM     31  H   UNL     1      -7.300  -6.673  -0.741  0.00  0.00    +0.145 HD
ENDBRANCH   2  27
TORSDOF 4
