REMARK  Name = ZINC37084591
REMARK  8 active torsions:
REMARK  status: ('A' for Active; 'I' for Inactive)
REMARK    1  A    between atoms: C_1  and  C_2
REMARK    2  A    between atoms: C_2  and  C_4
REMARK    3  A    between atoms: C_2  and  N_14
REMARK    4  A    between atoms: C_9  and  O_10
REMARK    5  A    between atoms: O_10  and  C_11
REMARK    6  A    between atoms: N_14  and  C_15
REMARK    7  A    between atoms: C_15  and  C_16
REMARK    8  A    between atoms: C_21  and  O_22
REMARK                            x       y       z     vdW  Elec       q    Type
REMARK                         _______ _______ _______ _____ _____    ______ ____
ROOT
ATOM      1  C   UNL     1      -0.019   1.526   0.010  0.00  0.00    -0.009 C 
ATOM      2  C   UNL     1       0.002  -0.004   0.002  0.00  0.00    -0.040 C 
ENDROOT
BRANCH   2   3
ATOM      3  C   UNL     1      -1.412  -0.526   0.013  0.00  0.00    -0.020 A 
ATOM      4  C   UNL     1      -1.998  -0.959  -1.161  0.00  0.00    +0.005 A 
ATOM      5  C   UNL     1      -3.295  -1.437  -1.152  0.00  0.00    +0.000 A 
ATOM      6  C   UNL     1      -4.009  -1.484   0.031  0.00  0.00    +0.004 A 
ATOM      7  C   UNL     1      -3.427  -1.052   1.208  0.00  0.00    +0.046 A 
ATOM      8  C   UNL     1      -2.124  -0.577   1.202  0.00  0.00    +0.128 A 
BRANCH   8   9
ATOM      9  O   UNL     1      -1.548  -0.157   2.359  0.00  0.00    -0.434 OA
BRANCH   9  10
ATOM     10  C   UNL     1      -2.340  -0.238   3.545  0.00  0.00    +0.541 C 
ATOM     11  F   UNL     1      -3.490   0.544   3.393  0.00  0.00    -0.166 F 
ATOM     12  F   UNL     1      -2.708  -1.569   3.770  0.00  0.00    -0.166 F 
ENDBRANCH   9  10
ENDBRANCH   8   9
ENDBRANCH   2   3
BRANCH   2  13
ATOM     13  N   UNL     1       0.690  -0.478  -1.207  0.00  0.00    +0.386 N 
ATOM     14  H   UNL     1       0.632  -1.484  -1.254  0.00  0.00    -0.085 HD
ATOM     15  H   UNL     1       0.251  -0.077  -2.022  0.00  0.00    -0.085 HD
BRANCH  13  16
ATOM     16  C   UNL     1       2.100  -0.070  -1.159  0.00  0.00    -0.042 C 
BRANCH  16  17
ATOM     17  C   UNL     1       2.806  -0.556  -2.399  0.00  0.00    -0.023 A 
ATOM     18  C   UNL     1       3.574  -1.704  -2.352  0.00  0.00    +0.005 A 
ATOM     19  C   UNL     1       4.222  -2.150  -3.489  0.00  0.00    +0.000 A 
ATOM     20  C   UNL     1       4.102  -1.450  -4.676  0.00  0.00    +0.004 A 
ATOM     21  C   UNL     1       3.335  -0.302  -4.728  0.00  0.00    +0.045 A 
ATOM     22  C   UNL     1       2.679   0.145  -3.589  0.00  0.00    +0.118 A 
BRANCH  22  23
ATOM     23  O   UNL     1       1.919   1.270  -3.639  0.00  0.00    -0.507 OA
ATOM     24  H   UNL     1       2.406   2.082  -3.442  0.00  0.00    +0.292 HD
ENDBRANCH  22  23
ENDBRANCH  16  17
ENDBRANCH  13  16
ENDBRANCH   2  13
TORSDOF 7
