REMARK  Name = ZINC39440647
REMARK  2 active torsions:
REMARK  status: ('A' for Active; 'I' for Inactive)
REMARK    1  A    between atoms: C_3  and  C_8
REMARK    2  A    between atoms: N_9  and  N_10
REMARK                            x       y       z     vdW  Elec       q    Type
REMARK                         _______ _______ _______ _____ _____    ______ ____
ROOT
ATOM      1  C   UNL     1       3.653   2.158  -0.022  0.00  0.00    +0.138 C 
ATOM      2  N   UNL     1       4.788   1.519  -0.036  0.00  0.00    -0.188 NA
ENDROOT
BRANCH   2   3
ATOM      3  N   UNL     1       5.993   2.233  -0.044  0.00  0.00    -0.208 N 
ATOM      4  C   UNL     1       7.185   1.563  -0.059  0.00  0.00    +0.219 C 
ATOM      5  N   UNL     1       7.341   0.250  -0.073  0.00  0.00    -0.156 NA
ATOM      6  C   UNL     1       8.666   0.002  -0.085  0.00  0.00    +0.199 C 
ATOM      7  S   UNL     1       9.403  -1.542  -0.106  0.00  0.00    -0.013 S 
ATOM      8  N   UNL     1       9.306   1.188  -0.078  0.00  0.00    -0.115 NA
ATOM      9  N   UNL     1       8.426   2.129  -0.068  0.00  0.00    -0.256 N 
ATOM     10  H   UNL     1       5.982   3.203  -0.039  0.00  0.00    +0.177 HD
ATOM     11  H   UNL     1       8.615   3.081  -0.065  0.00  0.00    +0.189 HD
ENDBRANCH   2   3
BRANCH   1  14
ATOM     12  C   UNL     1      -0.017   1.379   0.010  0.00  0.00    +0.002 A 
ATOM     13  C   UNL     1       1.166   2.089   0.002  0.00  0.00    +0.009 A 
ATOM     14  C   UNL     1       2.386   1.407  -0.013  0.00  0.00    -0.004 A 
ATOM     15  C   UNL     1       2.398   0.009  -0.021  0.00  0.00    +0.024 A 
ATOM     16  C   UNL     1       1.207  -0.687  -0.013  0.00  0.00    +0.018 A 
ATOM     17  C   UNL     1       0.002  -0.004   0.002  0.00  0.00    +0.015 A 
ATOM     18 BR   UNL     1       1.219  -2.578  -0.024  0.00  0.00    -0.050 Br
ENDBRANCH   1  14
TORSDOF 2
