REMARK  Name = ZINC36982002
REMARK  6 active torsions:
REMARK  status: ('A' for Active; 'I' for Inactive)
REMARK    1  A    between atoms: C_1  and  C_2
REMARK    2  A    between atoms: C_2  and  C_4
REMARK    3  A    between atoms: C_2  and  N_13
REMARK    4  A    between atoms: N_13  and  C_14
REMARK    5  A    between atoms: C_14  and  C_16
REMARK    6  A    between atoms: C_14  and  C_17
REMARK                            x       y       z     vdW  Elec       q    Type
REMARK                         _______ _______ _______ _____ _____    ______ ____
ROOT
ATOM      1  C   UNL     1      -0.019   1.526   0.010  0.00  0.00    -0.009 C 
ATOM      2  C   UNL     1       0.002  -0.004   0.002  0.00  0.00    -0.043 C 
ENDROOT
BRANCH   2   3
ATOM      3  C   UNL     1       0.731  -0.503   1.223  0.00  0.00    -0.058 A 
ATOM      4  C   UNL     1       2.113  -0.513   1.245  0.00  0.00    +0.006 A 
ATOM      5  C   UNL     1       2.786  -0.970   2.363  0.00  0.00    +0.050 A 
ATOM      6  C   UNL     1       2.076  -1.419   3.464  0.00  0.00    +0.166 A 
ATOM      7  C   UNL     1       0.684  -1.409   3.442  0.00  0.00    +0.166 A 
ATOM      8  C   UNL     1       0.016  -0.945   2.320  0.00  0.00    +0.051 A 
ATOM      9  O   UNL     1       0.225  -1.895   4.632  0.00  0.00    -0.453 OA
ATOM     10  C   UNL     1       1.343  -2.583   5.223  0.00  0.00    +0.466 C 
ATOM     11  O   UNL     1       2.490  -1.911   4.668  0.00  0.00    -0.453 OA
ENDBRANCH   2   3
BRANCH   2  12
ATOM     12  N   UNL     1       0.690  -0.478  -1.207  0.00  0.00    +0.388 N 
ATOM     13  H   UNL     1       1.608  -0.063  -1.256  0.00  0.00    -0.084 HD
ATOM     14  H   UNL     1       0.776  -1.482  -1.172  0.00  0.00    -0.084 HD
BRANCH  12  15
ATOM     15  C   UNL     1      -0.086  -0.093  -2.394  0.00  0.00    -0.036 C 
ATOM     16  C   UNL     1      -1.431  -0.821  -2.382  0.00  0.00    -0.008 C 
BRANCH  15  17
ATOM     17  C   UNL     1       0.679  -0.470  -3.637  0.00  0.00    -0.023 A 
ATOM     18  C   UNL     1       0.820   0.221  -4.794  0.00  0.00    +0.011 A 
ATOM     19  C   UNL     1       1.577  -0.326  -5.813  0.00  0.00    +0.028 A 
ATOM     20  C   UNL     1       2.155  -1.538  -5.625  0.00  0.00    +0.078 A 
ATOM     21  S   UNL     1       1.639  -1.939  -3.963  0.00  0.00    -0.083 S 
ATOM     22 CL   UNL     1       3.147  -2.458  -6.713  0.00  0.00    -0.076 Cl
ENDBRANCH  15  17
ENDBRANCH  12  15
ENDBRANCH   2  12
TORSDOF 4
