REMARK  Name = ZINC62477300
REMARK  4 active torsions:
REMARK  status: ('A' for Active; 'I' for Inactive)
REMARK    1  A    between atoms: C_4  and  N_7
REMARK    2  A    between atoms: C_8  and  C_10
REMARK    3  A    between atoms: N_18  and  C_19
REMARK    4  A    between atoms: N_22  and  C_25
REMARK                            x       y       z     vdW  Elec       q    Type
REMARK                         _______ _______ _______ _____ _____    ______ ____
ROOT
ATOM      1  C   UNL     1       4.131  -2.135  -3.720  0.00  0.00    +0.092 C 
ATOM      2  C   UNL     1       4.702  -3.533  -3.469  0.00  0.00    +0.016 C 
ATOM      3  C   UNL     1       5.386  -4.042  -4.739  0.00  0.00    +0.020 C 
ATOM      4  C   UNL     1       6.542  -3.105  -5.103  0.00  0.00    +0.109 C 
ATOM      5  N   UNL     1       6.026  -1.733  -5.204  0.00  0.00    -0.285 N 
ATOM      6  C   UNL     1       5.273  -1.177  -4.072  0.00  0.00    +0.122 C 
ATOM      7  C   UNL     1       6.238  -1.000  -6.315  0.00  0.00    +0.302 C 
ATOM      8  O   UNL     1       5.726   0.097  -6.426  0.00  0.00    -0.253 OA
ATOM      9  N   UNL     1       7.019  -1.482  -7.302  0.00  0.00    -0.297 N 
ATOM     10  H   UNL     1       7.369  -2.385  -7.246  0.00  0.00    +0.151 HD
ENDROOT
BRANCH   9  11
ATOM     11  C   UNL     1       7.339  -0.642  -8.459  0.00  0.00    +0.071 C 
ATOM     12  C   UNL     1       6.221  -0.757  -9.499  0.00  0.00    +0.004 C 
ATOM     13  C   UNL     1       6.599   0.059 -10.738  0.00  0.00    -0.077 C 
ATOM     14  N   UNL     1       7.851  -0.456 -11.304  0.00  0.00    +0.382 N 
ATOM     15  C   UNL     1       8.943  -0.284 -10.338  0.00  0.00    -0.077 C 
ATOM     16  C   UNL     1       8.655  -1.113  -9.085  0.00  0.00    +0.004 C 
ATOM     17  H   UNL     1       7.744  -1.437 -11.518  0.00  0.00    -0.081 HD
BRANCH  14  18
ATOM     18  C   UNL     1       8.168   0.279 -12.536  0.00  0.00    -0.069 C 
ATOM     19  C   UNL     1       8.078  -0.486 -13.858  0.00  0.00    -0.017 C 
ATOM     20  C   UNL     1       9.445  -0.112 -13.283  0.00  0.00    -0.017 C 
ENDBRANCH  14  18
ENDBRANCH   9  11
BRANCH   1  22
ATOM     21  N   UNL     1       2.849  -0.431  -2.466  0.00  0.00    -0.312 N 
ATOM     22  C   UNL     1       3.430  -1.648  -2.478  0.00  0.00    +0.218 C 
ATOM     23  O   UNL     1       3.388  -2.350  -1.490  0.00  0.00    -0.275 OA
ATOM     24  H   UNL     1       2.882   0.130  -3.256  0.00  0.00    +0.149 HD
BRANCH  21  28
ATOM     25  C   UNL     1       0.003   1.543   0.025  0.00  0.00    +0.000 C 
ATOM     26  C   UNL     1       1.440   2.067   0.012  0.00  0.00    +0.002 C 
ATOM     27  C   UNL     1       2.152   1.572  -1.249  0.00  0.00    +0.022 C 
ATOM     28  C   UNL     1       2.168   0.042  -1.258  0.00  0.00    +0.073 C 
ATOM     29  C   UNL     1       0.730  -0.482  -1.245  0.00  0.00    +0.022 C 
ATOM     30  C   UNL     1       0.018   0.013   0.016  0.00  0.00    +0.002 C 
ENDBRANCH  21  28
ENDBRANCH   1  22
TORSDOF 4
