REMARK  Name = ZINC52008208
REMARK  5 active torsions:
REMARK  status: ('A' for Active; 'I' for Inactive)
REMARK    1  A    between atoms: C_4  and  O_20
REMARK    2  A    between atoms: C_6  and  N_9
REMARK    3  A    between atoms: C_10  and  C_12
REMARK    4  A    between atoms: C_12  and  C_18
REMARK    5  A    between atoms: C_18  and  N_19
REMARK                            x       y       z     vdW  Elec       q    Type
REMARK                         _______ _______ _______ _____ _____    ______ ____
ROOT
ATOM      1  N   UNL     1       0.725  -1.929  -1.224  0.00  0.00    -0.310 N 
ATOM      2  C   UNL     1      -0.325  -2.623  -1.708  0.00  0.00    +0.218 C 
ATOM      3  O   UNL     1      -1.340  -2.042  -2.027  0.00  0.00    -0.275 OA
ATOM      4  H   UNL     1       1.512  -2.399  -0.906  0.00  0.00    +0.149 HD
ENDROOT
BRANCH   1   9
ATOM      5  C   UNL     1      -0.072   1.512   0.151  0.00  0.00    +0.002 C 
ATOM      6  C   UNL     1       1.353   2.069   0.126  0.00  0.00    +0.003 C 
ATOM      7  C   UNL     1       2.053   1.620  -1.158  0.00  0.00    +0.033 C 
ATOM      8  C   UNL     1       2.103   0.092  -1.205  0.00  0.00    +0.135 C 
ATOM      9  C   UNL     1       0.678  -0.465  -1.180  0.00  0.00    +0.101 C 
ATOM     10  C   UNL     1      -0.022  -0.017   0.105  0.00  0.00    +0.025 C 
BRANCH   8  11
ATOM     11  O   UNL     1       2.825  -0.396  -0.073  0.00  0.00    -0.390 OA
ATOM     12  H   UNL     1       3.739  -0.083  -0.025  0.00  0.00    +0.210 HD
ENDBRANCH   8  11
ENDBRANCH   1   9
BRANCH   2  13
ATOM     13  C   UNL     1      -0.236  -4.120  -1.852  0.00  0.00    +0.036 C 
ATOM     14  C   UNL     1      -1.476  -4.638  -2.587  0.00  0.00    +0.042 C 
ATOM     15  C   UNL     1      -1.508  -4.048  -3.999  0.00  0.00    +0.161 C 
ATOM     16  O   UNL     1      -0.305  -4.398  -4.686  0.00  0.00    -0.380 OA
ATOM     17  C   UNL     1       0.885  -3.900  -4.071  0.00  0.00    +0.161 C 
ATOM     18  C   UNL     1       1.012  -4.484  -2.662  0.00  0.00    +0.042 C 
BRANCH  13  19
ATOM     19  C   UNL     1      -0.153  -4.764  -0.467  0.00  0.00    -0.070 C 
BRANCH  19  20
ATOM     20  N   UNL     1      -1.388  -4.484   0.278  0.00  0.00    +0.379 N 
ATOM     21  H   UNL     1      -1.358  -4.958   1.168  0.00  0.00    -0.090 HD
ATOM     22  H   UNL     1      -1.472  -3.490   0.429  0.00  0.00    -0.090 HD
ATOM     23  H   UNL     1      -2.182  -4.812  -0.252  0.00  0.00    -0.090 HD
ENDBRANCH  19  20
ENDBRANCH  13  19
ENDBRANCH   2  13
TORSDOF 5
