REMARK  Name = ZINC63154975
REMARK  8 active torsions:
REMARK  status: ('A' for Active; 'I' for Inactive)
REMARK    1  A    between atoms: C_1  and  C_2
REMARK    2  A    between atoms: C_5  and  C_8
REMARK    3  A    between atoms: C_5  and  N_10
REMARK    4  A    between atoms: C_8  and  N_9
REMARK    5  A    between atoms: N_10  and  C_11
REMARK    6  A    between atoms: N_10  and  S_12
REMARK    7  A    between atoms: S_12  and  C_15
REMARK    8  A    between atoms: C_15  and  C_16
REMARK                            x       y       z     vdW  Elec       q    Type
REMARK                         _______ _______ _______ _____ _____    ______ ____
ROOT
ATOM      1  C   UNL     1      -0.029   1.511   0.157  0.00  0.00    +0.007 C 
ATOM      2  C   UNL     1       0.003  -0.018   0.200  0.00  0.00    -0.014 C 
ATOM      3  C   UNL     1       0.606  -0.553  -1.101  0.00  0.00    +0.005 C 
ATOM      4  C   UNL     1       2.030  -0.017  -1.261  0.00  0.00    +0.022 C 
ATOM      5  C   UNL     1       2.884  -0.476  -0.077  0.00  0.00    +0.027 C 
ATOM      6  C   UNL     1       2.281   0.059   1.224  0.00  0.00    +0.022 C 
ATOM      7  C   UNL     1       0.857  -0.477   1.384  0.00  0.00    +0.005 C 
ENDROOT
BRANCH   5   8
ATOM      8  N   UNL     1       2.914  -1.940  -0.036  0.00  0.00    -0.180 NA
ATOM      9  C   UNL     1       2.435  -2.649   1.153  0.00  0.00    +0.131 C 
BRANCH   8  10
ATOM     10  S   UNL     1       3.491  -2.793  -1.333  0.00  0.00    +0.034 S 
ATOM     11  O   UNL     1       2.729  -3.992  -1.346  0.00  0.00    -0.158 OA
ATOM     12  O   UNL     1       3.429  -1.882  -2.422  0.00  0.00    -0.158 OA
BRANCH  10  13
ATOM     13  C   UNL     1       5.220  -3.156  -0.920  0.00  0.00    +0.216 C 
BRANCH  13  14
ATOM     14  C   UNL     1       5.824  -4.055  -2.001  0.00  0.00    +0.141 C 
ATOM     15  C   UNL     1       7.292  -4.407  -1.649  0.00  0.00    +0.035 C 
ATOM     16  C   UNL     1       7.470  -5.740  -2.426  0.00  0.00    +0.031 C 
ATOM     17  C   UNL     1       6.064  -6.371  -2.320  0.00  0.00    +0.160 C 
ATOM     18  O   UNL     1       5.135  -5.315  -2.044  0.00  0.00    -0.375 OA
ENDBRANCH  13  14
ENDBRANCH  10  13
ENDBRANCH   8  10
ENDBRANCH   5   8
BRANCH   5  19
ATOM     19  C   UNL     1       4.308   0.060  -0.237  0.00  0.00    -0.062 C 
BRANCH  19  20
ATOM     20  N   UNL     1       5.157  -0.478   0.834  0.00  0.00    +0.379 N 
ATOM     21  H   UNL     1       6.096  -0.125   0.728  0.00  0.00    -0.090 HD
ATOM     22  H   UNL     1       4.789  -0.194   1.730  0.00  0.00    -0.090 HD
ATOM     23  H   UNL     1       5.168  -1.486   0.780  0.00  0.00    -0.090 HD
ENDBRANCH  19  20
ENDBRANCH   5  19
TORSDOF 6
