REMARK  Name = ZINC40119624
REMARK  8 active torsions:
REMARK  status: ('A' for Active; 'I' for Inactive)
REMARK    1  A    between atoms: C_1  and  C_2
REMARK    2  A    between atoms: N_5  and  S_8
REMARK    3  A    between atoms: S_8  and  C_11
REMARK    4  A    between atoms: C_14  and  N_20
REMARK    5  A    between atoms: C_15  and  N_17
REMARK    6  A    between atoms: N_20  and  C_21
REMARK    7  A    between atoms: C_21  and  C_23
REMARK    8  A    between atoms: C_21  and  C_24
REMARK                            x       y       z     vdW  Elec       q    Type
REMARK                         _______ _______ _______ _____ _____    ______ ____
ROOT
ATOM      1  C   UNL     1      -0.953  -5.391   1.662  0.00  0.00    +0.108 A 
ATOM      2  C   UNL     1      -1.683  -5.920   0.614  0.00  0.00    +0.030 A 
ATOM      3  C   UNL     1      -1.231  -7.046  -0.046  0.00  0.00    +0.027 A 
ATOM      4  C   UNL     1      -0.040  -7.646   0.344  0.00  0.00    +0.058 A 
ATOM      5  C   UNL     1       0.691  -7.112   1.397  0.00  0.00    +0.149 A 
ATOM      6  C   UNL     1       0.235  -5.983   2.050  0.00  0.00    +0.063 A 
ENDROOT
BRANCH   1   7
ATOM      7  S   UNL     1      -1.534  -3.954   2.501  0.00  0.00    +0.061 S 
ATOM      8  O   UNL     1      -0.945  -3.973   3.794  0.00  0.00    -0.153 OA
ATOM      9  O   UNL     1      -2.941  -3.911   2.306  0.00  0.00    -0.153 OA
BRANCH   7  14
ATOM     10  C   UNL     1      -0.555   1.590   1.418  0.00  0.00    +0.007 C 
ATOM     11  C   UNL     1      -0.409   0.089   1.161  0.00  0.00    -0.012 C 
ATOM     12  C   UNL     1      -1.788  -0.518   0.893  0.00  0.00    +0.020 C 
ATOM     13  C   UNL     1      -1.635  -2.014   0.602  0.00  0.00    +0.110 C 
ATOM     14  N   UNL     1      -0.906  -2.640   1.714  0.00  0.00    -0.177 NA
ATOM     15  C   UNL     1       0.391  -2.077   2.113  0.00  0.00    +0.110 C 
ATOM     16  C   UNL     1       0.215  -0.580   2.387  0.00  0.00    +0.020 C 
ENDBRANCH   7  14
ENDBRANCH   1   7
BRANCH   5  17
ATOM     17  N   UNL     1       1.959  -7.749   1.817  0.00  0.00    +0.058 N 
ATOM     18  O   UNL     1       2.062  -8.953   1.809  0.00  0.00    -0.126 OA
ATOM     19  O   UNL     1       2.892  -7.064   2.168  0.00  0.00    -0.126 OA
ENDBRANCH   5  17
BRANCH   4  20
ATOM     20  N   UNL     1       0.420  -8.785  -0.321  0.00  0.00    -0.336 N 
ATOM     21  H   UNL     1       1.291  -9.153  -0.106  0.00  0.00    +0.147 HD
BRANCH  20  22
ATOM     22  C   UNL     1      -0.413  -9.423  -1.343  0.00  0.00    +0.098 C 
ATOM     23  C   UNL     1      -0.191  -8.727  -2.688  0.00  0.00    +0.033 C 
BRANCH  22  24
ATOM     24  C   UNL     1      -0.036 -10.877  -1.462  0.00  0.00    -0.026 A 
ATOM     25  C   UNL     1       1.295 -11.252  -1.394  0.00  0.00    +0.007 A 
ATOM     26  C   UNL     1       1.650 -12.583  -1.502  0.00  0.00    +0.028 A 
ATOM     27  C   UNL     1       0.669 -13.547  -1.679  0.00  0.00    +0.067 A 
ATOM     28  C   UNL     1      -0.673 -13.168  -1.748  0.00  0.00    +0.067 A 
ATOM     29  C   UNL     1      -1.021 -11.831  -1.633  0.00  0.00    +0.033 A 
ATOM     30  N   UNL     1      -1.412 -14.335  -1.927  0.00  0.00    -0.306 N 
ATOM     31  H   UNL     1      -2.377 -14.389  -2.010  0.00  0.00    +0.170 HD
ATOM     32  C   UNL     1      -0.559 -15.376  -1.964  0.00  0.00    +0.325 A 
ATOM     33  O   UNL     1      -0.880 -16.541  -2.109  0.00  0.00    -0.247 OA
ATOM     34  N   UNL     1       0.704 -14.932  -1.818  0.00  0.00    -0.306 N 
ATOM     35  H   UNL     1       1.502 -15.483  -1.810  0.00  0.00    +0.170 HD
ENDBRANCH  22  24
ENDBRANCH  20  22
ENDBRANCH   4  20
TORSDOF 6
