REMARK  Name = ZINC31975579
REMARK  6 active torsions:
REMARK  status: ('A' for Active; 'I' for Inactive)
REMARK    1  A    between atoms: C_1  and  C_2
REMARK    2  A    between atoms: C_2  and  O_3
REMARK    3  A    between atoms: O_3  and  C_4
REMARK    4  A    between atoms: C_7  and  C_10
REMARK    5  A    between atoms: C_11  and  C_20
REMARK    6  A    between atoms: C_20  and  N_21
REMARK                            x       y       z     vdW  Elec       q    Type
REMARK                         _______ _______ _______ _____ _____    ______ ____
ROOT
ATOM      1  C   UNL     1       0.735   1.903  -3.140  0.00  0.00    +0.091 A 
ATOM      2  C   UNL     1       0.085   1.041  -2.309  0.00  0.00    +0.034 A 
ATOM      3  N   UNL     1      -0.157  -0.099  -3.024  0.00  0.00    -0.303 N 
ATOM      4  C   UNL     1      -0.773  -1.274  -2.700  0.00  0.00    +0.113 A 
ATOM      5  C   UNL     1      -0.885  -2.265  -3.610  0.00  0.00    +0.058 A 
ATOM      6  C   UNL     1      -0.366  -2.100  -4.905  0.00  0.00    +0.025 A 
ATOM      7  C   UNL     1       0.249  -0.934  -5.241  0.00  0.00    +0.048 A 
ATOM      8  C   UNL     1       0.358   0.092  -4.280  0.00  0.00    +0.138 A 
ATOM      9  N   UNL     1       0.895   1.302  -4.330  0.00  0.00    -0.228 NA
ATOM     10 CL   UNL     1      -1.671  -3.751  -3.177  0.00  0.00    -0.082 Cl
ENDROOT
BRANCH   1  14
ATOM     11  C   UNL     1       2.044   5.824  -2.135  0.00  0.00    +0.121 A 
ATOM     12  C   UNL     1       2.878   4.979  -2.854  0.00  0.00    +0.046 A 
ATOM     13  C   UNL     1       2.456   3.707  -3.181  0.00  0.00    +0.013 A 
ATOM     14  C   UNL     1       1.192   3.271  -2.789  0.00  0.00    +0.002 A 
ATOM     15  C   UNL     1       0.355   4.124  -2.073  0.00  0.00    +0.013 A 
ATOM     16  C   UNL     1       0.784   5.393  -1.744  0.00  0.00    +0.046 A 
BRANCH  11  17
ATOM     17  O   UNL     1       2.462   7.077  -1.813  0.00  0.00    -0.492 OA
BRANCH  17  19
ATOM     18  C   UNL     1       2.195   9.257  -0.806  0.00  0.00    +0.048 C 
ATOM     19  C   UNL     1       1.554   7.894  -1.072  0.00  0.00    +0.225 C 
ENDBRANCH  17  19
ENDBRANCH  11  17
ENDBRANCH   1  14
BRANCH   2  20
ATOM     20  C   UNL     1      -0.299   1.299  -0.875  0.00  0.00    -0.029 C 
BRANCH  20  21
ATOM     21  N   UNL     1       0.732   0.749   0.015  0.00  0.00    +0.382 N 
ATOM     22  H   UNL     1       0.451   0.936   1.061  0.00  0.00    -0.090 HD
ATOM     23  H   UNL     1       1.696   1.232  -0.199  0.00  0.00    -0.090 HD
ATOM     24  H   UNL     1       0.820  -0.335  -0.153  0.00  0.00    -0.090 HD
ENDBRANCH  20  21
ENDBRANCH   2  20
TORSDOF 5
