REMARK  Name = ZINC25020840
REMARK  7 active torsions:
REMARK  status: ('A' for Active; 'I' for Inactive)
REMARK    1  A    between atoms: C_1  and  C_2
REMARK    2  A    between atoms: C_10  and  C_11
REMARK    3  A    between atoms: C_11  and  C_12
REMARK    4  A    between atoms: C_20  and  C_22
REMARK    5  A    between atoms: C_22  and  C_23
REMARK    6  A    between atoms: C_23  and  O_25
REMARK    7  A    between atoms: O_25  and  C_26
REMARK                            x       y       z     vdW  Elec       q    Type
REMARK                         _______ _______ _______ _____ _____    ______ ____
ROOT
ATOM      1  C   UNL     1      -1.249   0.275   2.178  0.00  0.00    +0.221 C 
ATOM      2  O   UNL     1      -0.332   1.000   1.856  0.00  0.00    -0.275 OA
ATOM      3  N   UNL     1      -2.340   0.179   1.393  0.00  0.00    -0.288 N 
ATOM      4  C   UNL     1      -3.509  -0.619   1.800  0.00  0.00    +0.127 C 
ATOM      5  C   UNL     1      -4.712   0.319   1.914  0.00  0.00    +0.123 C 
ATOM      6  N   UNL     1      -4.798   1.192   0.752  0.00  0.00    -0.312 N 
ATOM      7  C   UNL     1      -3.775   1.486  -0.052  0.00  0.00    +0.234 C 
ATOM      8  O   UNL     1      -3.952   2.289  -0.944  0.00  0.00    -0.274 OA
ATOM      9  C   UNL     1      -2.412   0.867   0.096  0.00  0.00    +0.172 C 
ATOM     10  H   UNL     1      -5.757   1.661   0.486  0.00  0.00    +0.149 HD
ENDROOT
BRANCH   1  11
ATOM     11  C   UNL     1      -1.168  -0.520   3.456  0.00  0.00    +0.134 C 
BRANCH  11  21
ATOM     12  C   UNL     1       2.256   3.673   7.717  0.00  0.00    +0.044 C 
ATOM     13  C   UNL     1       1.621   2.682   6.775  0.00  0.00    -0.047 A 
ATOM     14  C   UNL     1       0.295   2.843   6.401  0.00  0.00    +0.004 A 
ATOM     15  C   UNL     1      -0.296   1.954   5.547  0.00  0.00    +0.012 A 
ATOM     16  C   UNL     1       0.440   0.879   5.050  0.00  0.00    +0.024 A 
ATOM     17  C   UNL     1       1.783   0.711   5.424  0.00  0.00    +0.135 A 
ATOM     18  C   UNL     1       2.365   1.626   6.293  0.00  0.00    +0.050 A 
ATOM     19  O   UNL     1       2.238  -0.395   4.801  0.00  0.00    -0.463 OA
ATOM     20  C   UNL     1       1.272  -0.953   4.051  0.00  0.00    +0.200 A 
ATOM     21  C   UNL     1       0.144  -0.236   4.142  0.00  0.00    +0.007 A 
ENDBRANCH  11  21
ENDBRANCH   1  11
BRANCH   9  22
ATOM     22  C   UNL     1      -1.343   1.961   0.036  0.00  0.00    +0.152 C 
BRANCH  22  23
ATOM     23  C   UNL     1      -1.562   2.938   1.162  0.00  0.00    +0.309 C 
ATOM     24  O   UNL     1      -2.532   2.833   1.874  0.00  0.00    -0.251 OA
BRANCH  23  25
ATOM     25  O   UNL     1      -0.675   3.923   1.377  0.00  0.00    -0.468 OA
ATOM     26  C   UNL     1      -0.946   4.824   2.483  0.00  0.00    +0.280 C 
ENDBRANCH  23  25
ENDBRANCH  22  23
ENDBRANCH   9  22
TORSDOF 5
