REMARK  Name = ZINC39685505
REMARK  6 active torsions:
REMARK  status: ('A' for Active; 'I' for Inactive)
REMARK    1  A    between atoms: C_3  and  O_8
REMARK    2  A    between atoms: O_8  and  C_9
REMARK    3  A    between atoms: C_9  and  C_10
REMARK    4  A    between atoms: C_10  and  N_11
REMARK    5  A    between atoms: C_12  and  C_14
REMARK    6  A    between atoms: C_25  and  C_27
REMARK                            x       y       z     vdW  Elec       q    Type
REMARK                         _______ _______ _______ _____ _____    ______ ____
ROOT
ATOM      1  C   UNL     1       7.002   4.728   2.721  0.00  0.00    +0.100 C 
ATOM      2  C   UNL     1       5.806   5.704   2.795  0.00  0.00    +0.121 C 
ATOM      3  N   UNL     1       6.351   6.916   3.450  0.00  0.00    -0.296 N 
ATOM      4  C   UNL     1       7.708   7.067   2.874  0.00  0.00    +0.115 C 
ATOM      5  C   UNL     1       8.248   5.627   2.773  0.00  0.00    -0.004 C 
ATOM      6  C   UNL     1       9.091   5.292   4.000  0.00  0.00    -0.010 C 
ATOM      7  C   UNL     1      10.353   6.159   3.999  0.00  0.00    -0.082 C 
ATOM      8  N   UNL     1      11.119   5.910   2.772  0.00  0.00    +0.379 N 
ATOM      9  C   UNL     1      10.336   6.321   1.601  0.00  0.00    -0.082 C 
ATOM     10  C   UNL     1       9.073   5.461   1.501  0.00  0.00    -0.010 C 
ATOM     11  C   UNL     1       5.748   7.703   4.363  0.00  0.00    +0.252 C 
ATOM     12  O   UNL     1       6.332   8.671   4.811  0.00  0.00    -0.270 OA
ATOM     13  H   UNL     1      11.979   6.436   2.802  0.00  0.00    -0.086 HD
ATOM     14  H   UNL     1      11.332   4.926   2.705  0.00  0.00    -0.086 HD
ENDROOT
BRANCH  11  15
ATOM     15  C   UNL     1       4.381   7.389   4.820  0.00  0.00    +0.108 A 
ATOM     16  C   UNL     1       4.183   6.560   5.930  0.00  0.00    +0.138 A 
ATOM     17  C   UNL     1       2.899   6.272   6.352  0.00  0.00    +0.041 A 
ATOM     18  C   UNL     1       1.811   6.799   5.681  0.00  0.00    +0.026 A 
ATOM     19  C   UNL     1       1.997   7.620   4.582  0.00  0.00    +0.077 A 
ATOM     20  C   UNL     1       3.276   7.923   4.150  0.00  0.00    +0.156 A 
ATOM     21  F   UNL     1       3.456   8.729   3.081  0.00  0.00    -0.203 F 
ATOM     22 CL   UNL     1       0.623   8.275   3.748  0.00  0.00    -0.081 Cl
ATOM     23  F   UNL     1       5.244   6.043   6.587  0.00  0.00    -0.205 F 
ENDBRANCH  11  15
BRANCH   1  25
ATOM     24  N   UNL     1       7.501   2.715   1.373  0.00  0.00    -0.312 N 
ATOM     25  C   UNL     1       6.968   3.952   1.430  0.00  0.00    +0.218 C 
ATOM     26  O   UNL     1       6.460   4.440   0.443  0.00  0.00    -0.275 OA
ATOM     27  H   UNL     1       7.906   2.325   2.163  0.00  0.00    +0.149 HD
BRANCH  24  28
ATOM     28  C   UNL     1       7.468   1.961   0.117  0.00  0.00    +0.145 C 
BRANCH  28  29
ATOM     29  C   UNL     1       8.134   0.599   0.323  0.00  0.00    +0.247 C 
BRANCH  29  30
ATOM     30  O   UNL     1       7.365  -0.172   1.248  0.00  0.00    -0.490 OA
BRANCH  30  33
ATOM     31  C   UNL     1       7.591  -3.487   2.732  0.00  0.00    +0.006 A 
ATOM     32  C   UNL     1       7.125  -2.221   2.434  0.00  0.00    +0.046 A 
ATOM     33  C   UNL     1       7.822  -1.418   1.543  0.00  0.00    +0.123 A 
ATOM     34  C   UNL     1       8.987  -1.887   0.954  0.00  0.00    +0.084 A 
ATOM     35  C   UNL     1       9.450  -3.155   1.256  0.00  0.00    +0.127 A 
ATOM     36  C   UNL     1       8.752  -3.954   2.145  0.00  0.00    +0.038 A 
ATOM     37  F   UNL     1      10.585  -3.614   0.682  0.00  0.00    -0.205 F 
ENDBRANCH  30  33
ENDBRANCH  29  30
ENDBRANCH  28  29
ENDBRANCH  24  28
ENDBRANCH   1  25
TORSDOF 6
