REMARK  Name = ZINC35606828
REMARK  7 active torsions:
REMARK  status: ('A' for Active; 'I' for Inactive)
REMARK    1  A    between atoms: C_1  and  N_2
REMARK    2  A    between atoms: N_4  and  N_18
REMARK    3  A    between atoms: C_5  and  C_8
REMARK    4  A    between atoms: C_11  and  O_17
REMARK    5  A    between atoms: C_12  and  C_14
REMARK    6  A    between atoms: C_19  and  C_20
REMARK    7  A    between atoms: C_25  and  N_26
REMARK                            x       y       z     vdW  Elec       q    Type
REMARK                         _______ _______ _______ _____ _____    ______ ____
ROOT
ATOM      1  C   UNL     1       0.180   1.354  -0.115  0.00  0.00    +0.127 C 
ATOM      2  N   UNL     1       0.151  -0.111  -0.108  0.00  0.00    -0.326 N 
ATOM      3  C   UNL     1       0.685  -0.792  -1.119  0.00  0.00    +0.160 A 
ATOM      4  N   UNL     1       0.755  -2.163  -1.304  0.00  0.00    -0.211 N 
ATOM      5  C   UNL     1       1.337  -2.596  -2.393  0.00  0.00    +0.082 A 
ATOM      6  C   UNL     1       1.857  -1.648  -3.310  0.00  0.00    +0.077 A 
ATOM      7  S   UNL     1       1.489  -0.174  -2.586  0.00  0.00    -0.060 S 
ATOM      8  H   UNL     1      -0.258  -0.584   0.633  0.00  0.00    +0.148 HD
ENDROOT
BRANCH   5   9
ATOM      9  C   UNL     1       1.451  -4.041  -2.661  0.00  0.00    +0.002 A 
ATOM     10  C   UNL     1       1.432  -4.956  -1.597  0.00  0.00    +0.013 A 
ATOM     11  C   UNL     1       1.538  -6.304  -1.842  0.00  0.00    +0.047 A 
ATOM     12  C   UNL     1       1.665  -6.773  -3.146  0.00  0.00    +0.129 A 
ATOM     13  C   UNL     1       1.686  -5.867  -4.220  0.00  0.00    +0.078 A 
ATOM     14  C   UNL     1       1.573  -4.501  -3.974  0.00  0.00    +0.026 A 
BRANCH  13  15
ATOM     15  C   UNL     1       1.821  -6.362  -5.604  0.00  0.00    +0.245 C 
ATOM     16  O   UNL     1       1.915  -7.555  -5.816  0.00  0.00    -0.270 OA
ATOM     17  N   UNL     1       1.841  -5.490  -6.632  0.00  0.00    -0.325 N 
ATOM     18  H   UNL     1       1.766  -4.538  -6.462  0.00  0.00    +0.145 HD
ATOM     19  H   UNL     1       1.930  -5.816  -7.542  0.00  0.00    +0.145 HD
ENDBRANCH  13  15
BRANCH  12  20
ATOM     20  O   UNL     1       1.770  -8.103  -3.381  0.00  0.00    -0.506 OA
ATOM     21  H   UNL     1       0.921  -8.547  -3.514  0.00  0.00    +0.292 HD
ENDBRANCH  12  20
ENDBRANCH   5   9
BRANCH   4  22
ATOM     22  N   UNL     1       0.266  -2.981  -0.435  0.00  0.00    -0.172 NA
ATOM     23  C   UNL     1      -1.016  -3.295  -0.474  0.00  0.00    +0.143 C 
BRANCH  23  24
ATOM     24  C   UNL     1      -1.571  -4.223   0.511  0.00  0.00    +0.025 A 
ATOM     25  C   UNL     1      -0.777  -4.685   1.575  0.00  0.00    +0.012 A 
ATOM     26  C   UNL     1      -1.309  -5.558   2.496  0.00  0.00    +0.001 A 
ATOM     27  C   UNL     1      -2.624  -5.983   2.377  0.00  0.00    +0.002 A 
ATOM     28  C   UNL     1      -3.415  -5.535   1.331  0.00  0.00    +0.033 A 
ATOM     29  C   UNL     1      -2.904  -4.655   0.403  0.00  0.00    +0.135 A 
BRANCH  29  30
ATOM     30  N   UNL     1      -3.753  -4.172  -0.709  0.00  0.00    +0.057 N 
ATOM     31  O   UNL     1      -4.955  -4.680  -0.888  0.00  0.00    -0.126 OA
ATOM     32  O   UNL     1      -3.307  -3.235  -1.519  0.00  0.00    -0.126 OA
ENDBRANCH  29  30
ENDBRANCH  23  24
ENDBRANCH   4  22
TORSDOF 6
