REMARK  Name = ZINC62247042
REMARK  5 active torsions:
REMARK  status: ('A' for Active; 'I' for Inactive)
REMARK    1  A    between atoms: C_1  and  C_2
REMARK    2  A    between atoms: C_5  and  N_9
REMARK    3  A    between atoms: C_10  and  C_16
REMARK    4  A    between atoms: C_11  and  C_14
REMARK    5  A    between atoms: C_14  and  N_15
REMARK                            x       y       z     vdW  Elec       q    Type
REMARK                         _______ _______ _______ _____ _____    ______ ____
ROOT
ATOM      1  N   UNL     1       0.059  -4.173  -0.022  0.00  0.00    -0.212 N 
ATOM      2  C   UNL     1       0.698  -4.993   0.870  0.00  0.00    +0.099 A 
ATOM      3  C   UNL     1       0.441  -6.271   0.472  0.00  0.00    +0.074 A 
ATOM      4  N   UNL     1      -0.322  -6.237  -0.618  0.00  0.00    -0.135 NA
ATOM      5  N   UNL     1      -0.579  -5.018  -0.943  0.00  0.00    -0.060 NA
ENDROOT
BRANCH   1  10
ATOM      6  C   UNL     1      -0.018   1.503   0.010  0.00  0.00    +0.045 C 
ATOM      7  C   UNL     1       0.002  -0.004   0.002  0.00  0.00    -0.032 A 
ATOM      8  C   UNL     1       0.006  -0.688  -1.200  0.00  0.00    +0.007 A 
ATOM      9  C   UNL     1       0.025  -2.068  -1.211  0.00  0.00    +0.028 A 
ATOM     10  C   UNL     1       0.040  -2.771  -0.013  0.00  0.00    +0.069 A 
ATOM     11  C   UNL     1       0.037  -2.083   1.192  0.00  0.00    +0.048 A 
ATOM     12  C   UNL     1       0.023  -0.701   1.197  0.00  0.00    +0.046 A 
ATOM     13 CL   UNL     1       0.025   0.161   2.704  0.00  0.00    -0.083 Cl
ENDBRANCH   1  10
BRANCH   2  14
ATOM     14  C   UNL     1       1.508  -4.574   2.035  0.00  0.00    +0.037 A 
ATOM     15  C   UNL     1       0.904  -4.398   3.281  0.00  0.00    +0.013 A 
ATOM     16  C   UNL     1       1.665  -4.008   4.364  0.00  0.00    +0.001 A 
ATOM     17  C   UNL     1       3.023  -3.789   4.218  0.00  0.00    +0.003 A 
ATOM     18  C   UNL     1       3.629  -3.960   2.987  0.00  0.00    +0.039 A 
ATOM     19  C   UNL     1       2.881  -4.358   1.895  0.00  0.00    +0.133 A 
ATOM     20  F   UNL     1       3.474  -4.531   0.694  0.00  0.00    -0.205 F 
ENDBRANCH   2  14
BRANCH   3  21
ATOM     21  C   UNL     1       0.941  -7.519   1.153  0.00  0.00    -0.026 C 
BRANCH  21  22
ATOM     22  N   UNL     1      -0.031  -7.945   2.169  0.00  0.00    +0.382 N 
ATOM     23  H   UNL     1       0.303  -8.780   2.625  0.00  0.00    -0.090 HD
ATOM     24  H   UNL     1      -0.146  -7.211   2.853  0.00  0.00    -0.090 HD
ATOM     25  H   UNL     1      -0.918  -8.135   1.727  0.00  0.00    -0.090 HD
ENDBRANCH  21  22
ENDBRANCH   3  21
TORSDOF 4
