REMARK  Name = ZINC29376489
REMARK  11 active torsions:
REMARK  status: ('A' for Active; 'I' for Inactive)
REMARK    1  A    between atoms: C_1  and  C_2
REMARK    2  A    between atoms: C_2  and  N_3
REMARK    3  A    between atoms: N_6  and  C_9
REMARK    4  A    between atoms: C_12  and  N_16
REMARK    5  A    between atoms: C_13  and  C_15
REMARK    6  A    between atoms: C_17  and  C_19
REMARK    7  A    between atoms: C_22  and  C_24
REMARK    8  A    between atoms: C_24  and  C_25
REMARK    9  A    between atoms: C_25  and  N_26
REMARK   10  A    between atoms: N_26  and  S_27
REMARK   11  A    between atoms: S_27  and  C_30
REMARK                            x       y       z     vdW  Elec       q    Type
REMARK                         _______ _______ _______ _____ _____    ______ ____
ROOT
ATOM      1  N   UNL     1      -3.226   5.069  -5.797  0.00  0.00    -0.281 N 
ATOM      2  C   UNL     1      -4.095   4.306  -6.489  0.00  0.00    +0.255 C 
ATOM      3  O   UNL     1      -4.421   3.214  -6.062  0.00  0.00    -0.269 OA
ATOM      4  H   UNL     1      -3.002   6.091  -6.135  0.00  0.00    +0.155 HD
ENDROOT
BRANCH   1   8
ATOM      5  C   UNL     1      -1.389   3.554  -2.373  0.00  0.00    +0.030 A 
ATOM      6  C   UNL     1      -1.845   2.687  -3.359  0.00  0.00    +0.025 A 
ATOM      7  C   UNL     1      -2.458   3.189  -4.489  0.00  0.00    +0.025 A 
ATOM      8  C   UNL     1      -2.609   4.560  -4.647  0.00  0.00    +0.037 A 
ATOM      9  C   UNL     1      -2.149   5.427  -3.665  0.00  0.00    -0.027 A 
ATOM     10  C   UNL     1      -1.541   4.926  -2.531  0.00  0.00    +0.028 A 
ATOM     11  C   UNL     1      -2.314   6.915  -3.836  0.00  0.00    +0.046 C 
BRANCH   5  15
ATOM     12  N   UNL     1      -0.650   1.533   1.184  0.00  0.00    +0.382 N 
ATOM     13  C   UNL     1       0.033   1.067  -0.031  0.00  0.00    -0.060 C 
ATOM     14  C   UNL     1      -0.717   1.578  -1.263  0.00  0.00    +0.086 C 
ATOM     15  N   UNL     1      -0.773   3.046  -1.225  0.00  0.00    -0.333 N 
ATOM     16  C   UNL     1      -1.456   3.513  -0.010  0.00  0.00    +0.086 C 
ATOM     17  C   UNL     1      -0.706   3.001   1.222  0.00  0.00    -0.060 C 
ATOM     18  H   UNL     1      -1.682   1.154   1.161  0.00  0.00    -0.082 HD
BRANCH  12  20
ATOM     19  C   UNL     1      -0.574   1.696   3.627  0.00  0.00    -0.017 C 
ATOM     20  C   UNL     1      -0.002   1.000   2.390  0.00  0.00    -0.082 C 
ENDBRANCH  12  20
ENDBRANCH   5  15
ENDBRANCH   1   8
BRANCH   2  21
ATOM     21  C   UNL     1      -4.648   4.791  -7.757  0.00  0.00    +0.074 A 
ATOM     22  C   UNL     1      -5.545   4.171  -8.613  0.00  0.00    +0.021 A 
ATOM     23  C   UNL     1      -5.901   4.857  -9.748  0.00  0.00    +0.012 A 
ATOM     24  C   UNL     1      -5.370   6.087  -9.975  0.00  0.00    -0.008 A 
ATOM     25  S   UNL     1      -4.349   6.337  -8.596  0.00  0.00    -0.089 S 
BRANCH  24  26
ATOM     26  C   UNL     1      -5.614   7.012 -11.139  0.00  0.00    +0.059 C 
BRANCH  26  27
ATOM     27  C   UNL     1      -6.795   7.931 -10.821  0.00  0.00    +0.110 C 
BRANCH  27  28
ATOM     28  N   UNL     1      -7.032   8.830 -11.953  0.00  0.00    -0.194 NA
ATOM     29  H   UNL     1      -6.211   9.074 -12.643  0.00  0.00    +0.148 HD
BRANCH  28  30
ATOM     30  S   UNL     1      -8.454   9.672 -12.057  0.00  0.00    +0.027 S 
ATOM     31  O   UNL     1      -8.351  10.409 -13.269  0.00  0.00    -0.158 OA
ATOM     32  O   UNL     1      -9.469   8.692 -11.889  0.00  0.00    -0.158 OA
ATOM     33  C   UNL     1      -8.433  10.800 -10.637  0.00  0.00    +0.214 C 
ENDBRANCH  28  30
ENDBRANCH  27  28
ENDBRANCH  26  27
ENDBRANCH  24  26
ENDBRANCH   2  21
TORSDOF 8
