REMARK  Name = ZINC47027448
REMARK  6 active torsions:
REMARK  status: ('A' for Active; 'I' for Inactive)
REMARK    1  A    between atoms: C_1  and  C_2
REMARK    2  A    between atoms: C_2  and  C_4
REMARK    3  A    between atoms: C_2  and  N_10
REMARK    4  A    between atoms: C_4  and  N_5
REMARK    5  A    between atoms: N_13  and  C_14
REMARK    6  A    between atoms: N_13  and  C_15
REMARK                            x       y       z     vdW  Elec       q    Type
REMARK                         _______ _______ _______ _____ _____    ______ ____
ROOT
ATOM      1  N   UNL     1       0.711  -0.489   1.189  0.00  0.00    -0.295 N 
ATOM      2  C   UNL     1       2.054  -0.600   1.174  0.00  0.00    +0.303 C 
ATOM      3  O   UNL     1       2.677  -0.297   0.175  0.00  0.00    -0.253 OA
ATOM      4  N   UNL     1       2.706  -1.046   2.266  0.00  0.00    -0.284 N 
ATOM      5  C   UNL     1       1.954  -1.411   3.469  0.00  0.00    +0.134 C 
ATOM      6  H   UNL     1       0.213  -0.731   1.986  0.00  0.00    +0.151 HD
ENDROOT
BRANCH   4   7
ATOM      7  C   UNL     1       4.166  -1.166   2.249  0.00  0.00    +0.100 C 
ATOM      8  C   UNL     1       4.763  -0.282   3.356  0.00  0.00    +0.047 C 
ATOM      9  C   UNL     1       6.262  -0.662   3.523  0.00  0.00    +0.168 C 
ATOM     10  S   UNL     1       6.163  -2.496   3.376  0.00  0.00    -0.029 S 
ATOM     11  O   UNL     1       6.022  -3.057   4.674  0.00  0.00    -0.174 OA
ATOM     12  O   UNL     1       7.210  -2.949   2.529  0.00  0.00    -0.174 OA
ATOM     13  C   UNL     1       4.562  -2.644   2.484  0.00  0.00    +0.188 C 
ENDBRANCH   4   7
BRANCH   1  15
ATOM     14  C   UNL     1      -0.019   1.526   0.010  0.00  0.00    +0.029 C 
ATOM     15  C   UNL     1       0.002  -0.004   0.002  0.00  0.00    +0.091 C 
BRANCH  15  16
ATOM     16  C   UNL     1      -1.433  -0.534   0.013  0.00  0.00    +0.144 C 
BRANCH  16  17
ATOM     17  N   UNL     1      -1.416  -1.993  -0.116  0.00  0.00    -0.337 N 
ATOM     18  C   UNL     1      -1.445  -2.706  -1.284  0.00  0.00    +0.104 A 
ATOM     19  C   UNL     1      -1.414  -4.009  -0.946  0.00  0.00    +0.101 A 
ATOM     20  N   UNL     1      -1.368  -4.090   0.393  0.00  0.00    -0.352 N 
ATOM     21  C   UNL     1      -1.364  -2.886   0.896  0.00  0.00    +0.173 A 
ATOM     22  H   UNL     1      -1.338  -4.913   0.905  0.00  0.00    +0.166 HD
ENDBRANCH  16  17
ENDBRANCH  15  16
ENDBRANCH   1  15
TORSDOF 4
