REMARK  Name = ZINC04571296
REMARK  5 active torsions:
REMARK  status: ('A' for Active; 'I' for Inactive)
REMARK    1  A    between atoms: C_1  and  C_2
REMARK    2  A    between atoms: C_5  and  O_25
REMARK    3  A    between atoms: C_6  and  C_8
REMARK    4  A    between atoms: C_17  and  C_21
REMARK    5  A    between atoms: C_22  and  O_24
REMARK                            x       y       z     vdW  Elec       q    Type
REMARK                         _______ _______ _______ _____ _____    ______ ____
ROOT
ATOM      1  C   UNL     1       0.052  -2.841   2.493  0.00  0.00    +0.227 C 
ATOM      2  N   UNL     1      -0.711  -4.092   2.331  0.00  0.00    -0.313 N 
ATOM      3  C   UNL     1      -2.076  -3.996   2.477  0.00  0.00    +0.080 A 
ATOM      4  C   UNL     1      -2.670  -2.979   3.233  0.00  0.00    +0.068 A 
ATOM      5  C   UNL     1      -4.120  -3.000   3.286  0.00  0.00    -0.023 A 
ATOM      6  C   UNL     1      -4.693  -4.014   2.597  0.00  0.00    -0.004 A 
ATOM      7  S   UNL     1      -3.333  -4.911   1.900  0.00  0.00    -0.078 S 
ATOM      8  C   UNL     1      -6.156  -4.299   2.465  0.00  0.00    +0.046 C 
ATOM      9  C   UNL     1      -6.934  -3.055   2.918  0.00  0.00    -0.009 C 
ATOM     10  C   UNL     1      -6.364  -2.575   4.256  0.00  0.00    +0.008 C 
ATOM     11  C   UNL     1      -4.967  -1.987   4.044  0.00  0.00    +0.037 C 
ATOM     12  C   UNL     1      -8.413  -3.409   3.086  0.00  0.00    +0.008 C 
ATOM     13  C   UNL     1      -1.768  -2.003   3.897  0.00  0.00    +0.220 C 
ATOM     14  N   UNL     1      -0.513  -2.000   3.541  0.00  0.00    -0.223 NA
ATOM     15  H   UNL     1      -0.275  -4.935   2.131  0.00  0.00    +0.149 HD
ENDROOT
BRANCH   1  21
ATOM     16  C   UNL     1      -0.018   1.503   0.010  0.00  0.00    +0.044 C 
ATOM     17  C   UNL     1       0.002  -0.004   0.002  0.00  0.00    -0.050 A 
ATOM     18  C   UNL     1       0.006  -0.688  -1.200  0.00  0.00    +0.007 A 
ATOM     19  C   UNL     1       0.024  -2.069  -1.210  0.00  0.00    +0.046 A 
ATOM     20  C   UNL     1       0.039  -2.770  -0.013  0.00  0.00    +0.124 A 
ATOM     21  C   UNL     1       0.036  -2.082   1.191  0.00  0.00    +0.036 A 
ATOM     22  C   UNL     1       0.023  -0.701   1.196  0.00  0.00    +0.014 A 
BRANCH  20  23
ATOM     23  O   UNL     1       0.057  -4.129  -0.021  0.00  0.00    -0.506 OA
ATOM     24  H   UNL     1       0.945  -4.511  -0.027  0.00  0.00    +0.292 HD
ENDBRANCH  20  23
ENDBRANCH   1  21
BRANCH  13  25
ATOM     25  O   UNL     1      -2.231  -1.148   4.838  0.00  0.00    -0.492 OA
ATOM     26  H   UNL     1      -1.556  -0.559   5.202  0.00  0.00    +0.294 HD
ENDBRANCH  13  25
TORSDOF 3
