REMARK  Name = ZINC64939028
REMARK  9 active torsions:
REMARK  status: ('A' for Active; 'I' for Inactive)
REMARK    1  A    between atoms: C_1  and  C_2
REMARK    2  A    between atoms: C_2  and  C_3
REMARK    3  A    between atoms: C_2  and  C_4
REMARK    4  A    between atoms: C_4  and  C_5
REMARK    5  A    between atoms: C_5  and  N_6
REMARK    6  A    between atoms: N_9  and  N_10
REMARK    7  A    between atoms: N_10  and  S_11
REMARK    8  A    between atoms: S_11  and  C_14
REMARK    9  A    between atoms: N_22  and  C_25
REMARK                            x       y       z     vdW  Elec       q    Type
REMARK                         _______ _______ _______ _____ _____    ______ ____
ROOT
ATOM      1  S   UNL     1      -6.568  -3.466  -1.219  0.00  0.00    +0.074 S 
ATOM      2  O   UNL     1      -7.566  -2.570  -0.750  0.00  0.00    -0.152 OA
ATOM      3  O   UNL     1      -5.940  -3.311  -2.484  0.00  0.00    -0.152 OA
ENDROOT
BRANCH   1   4
ATOM      4  C   UNL     1      -7.289  -5.073  -1.209  0.00  0.00    +0.108 A 
ATOM      5  C   UNL     1      -6.783  -6.058  -2.036  0.00  0.00    +0.029 A 
ATOM      6  C   UNL     1      -7.340  -7.327  -2.040  0.00  0.00    +0.016 A 
ATOM      7  C   UNL     1      -8.411  -7.610  -1.208  0.00  0.00    +0.050 A 
ATOM      8  C   UNL     1      -8.927  -6.606  -0.363  0.00  0.00    +0.051 A 
ATOM      9  C   UNL     1      -8.357  -5.343  -0.367  0.00  0.00    +0.042 A 
ATOM     10  C   UNL     1     -10.043  -7.233   0.375  0.00  0.00    +0.254 C 
ATOM     11  O   UNL     1     -10.743  -6.684   1.202  0.00  0.00    -0.270 OA
ATOM     12  N   UNL     1     -10.156  -8.513  -0.024  0.00  0.00    -0.237 N 
ATOM     13  C   UNL     1      -9.232  -8.813  -0.954  0.00  0.00    +0.254 C 
ATOM     14  O   UNL     1      -9.094  -9.892  -1.495  0.00  0.00    -0.270 OA
ATOM     15  C   UNL     1     -11.154  -9.456   0.487  0.00  0.00    +0.142 C 
ENDBRANCH   1   4
BRANCH   1  16
ATOM     16  N   UNL     1      -5.360  -3.464  -0.087  0.00  0.00    -0.107 NA
ATOM     17  H   UNL     1      -5.396  -2.846   0.660  0.00  0.00    +0.172 HD
BRANCH  16  21
ATOM     18  N   UNL     1      -2.790  -2.565  -0.111  0.00  0.00    -0.298 N 
ATOM     19  C   UNL     1      -3.021  -3.888  -0.217  0.00  0.00    +0.315 C 
ATOM     20  O   UNL     1      -2.088  -4.662  -0.322  0.00  0.00    -0.251 OA
ATOM     21  N   UNL     1      -4.285  -4.355  -0.208  0.00  0.00    -0.216 N 
ATOM     22  H   UNL     1      -3.534  -1.948  -0.027  0.00  0.00    +0.150 HD
ATOM     23  H   UNL     1      -4.451  -5.307  -0.285  0.00  0.00    +0.172 HD
BRANCH  18  24
ATOM     24  C   UNL     1      -1.416  -2.058  -0.121  0.00  0.00    +0.106 C 
BRANCH  24  25
ATOM     25  C   UNL     1      -1.433  -0.534   0.013  0.00  0.00    +0.022 C 
BRANCH  25  27
ATOM     26  C   UNL     1      -0.019   1.526   0.010  0.00  0.00    +0.007 C 
ATOM     27  C   UNL     1       0.002  -0.004   0.002  0.00  0.00    -0.016 C 
ATOM     28  C   UNL     1       0.742  -0.511   1.242  0.00  0.00    +0.007 C 
ENDBRANCH  25  27
ENDBRANCH  24  25
ENDBRANCH  18  24
ENDBRANCH  16  21
ENDBRANCH   1  16
TORSDOF 6
