REMARK  Name = ZINC43252233
REMARK  7 active torsions:
REMARK  status: ('A' for Active; 'I' for Inactive)
REMARK    1  A    between atoms: C_1  and  C_2
REMARK    2  A    between atoms: C_2  and  C_3
REMARK    3  A    between atoms: C_3  and  C_5
REMARK    4  A    between atoms: C_3  and  N_22
REMARK    5  A    between atoms: C_5  and  C_7
REMARK    6  A    between atoms: C_5  and  N_13
REMARK    7  A    between atoms: C_17  and  C_19
REMARK                            x       y       z     vdW  Elec       q    Type
REMARK                         _______ _______ _______ _____ _____    ______ ____
ROOT
ATOM      1  C   UNL     1      -1.726  -2.706  -0.235  0.00  0.00    -0.013 C 
ENDROOT
BRANCH   1   2
ATOM      2  C   UNL     1      -0.998  -3.403  -1.356  0.00  0.00    -0.021 A 
ATOM      3  C   UNL     1      -1.400  -4.453  -2.112  0.00  0.00    +0.011 A 
ATOM      4  C   UNL     1      -0.556  -4.933  -3.096  0.00  0.00    +0.028 A 
ATOM      5  C   UNL     1       0.649  -4.338  -3.276  0.00  0.00    +0.078 A 
ATOM      6  S   UNL     1       0.615  -3.054  -2.036  0.00  0.00    -0.083 S 
ATOM      7 CL   UNL     1       1.899  -4.721  -4.419  0.00  0.00    -0.076 Cl
ENDBRANCH   1   2
BRANCH   1   8
ATOM      8  N   UNL     1      -0.815  -2.526   0.903  0.00  0.00    +0.393 N 
ATOM      9  C   UNL     1      -1.501  -1.791   1.996  0.00  0.00    -0.077 C 
ATOM     10  C   UNL     1      -0.677  -2.172   3.252  0.00  0.00    -0.020 C 
ATOM     11  C   UNL     1      -0.322  -3.655   2.996  0.00  0.00    -0.008 C 
ATOM     12  C   UNL     1      -0.444  -3.840   1.472  0.00  0.00    +0.020 C 
ATOM     13  H   UNL     1       0.012  -2.027   0.612  0.00  0.00    -0.080 HD
BRANCH  12  14
ATOM     14  C   UNL     1       0.876  -4.292   0.902  0.00  0.00    +0.197 C 
ATOM     15  O   UNL     1       1.702  -3.471   0.563  0.00  0.00    -0.278 OA
ATOM     16  N   UNL     1       1.139  -5.607   0.770  0.00  0.00    -0.331 N 
ATOM     17  H   UNL     1       0.478  -6.263   1.042  0.00  0.00    +0.145 HD
ATOM     18  H   UNL     1       1.988  -5.897   0.404  0.00  0.00    +0.145 HD
ENDBRANCH  12  14
ENDBRANCH   1   8
BRANCH   1  19
ATOM     19  C   UNL     1      -2.216  -1.339  -0.718  0.00  0.00    +0.042 C 
BRANCH  19  20
ATOM     20  N   UNL     1      -3.030  -1.510  -1.929  0.00  0.00    -0.328 NA
ATOM     21  H   UNL     1      -3.418  -0.629  -2.230  0.00  0.00    +0.118 HD
ATOM     22  H   UNL     1      -2.493  -1.941  -2.667  0.00  0.00    +0.118 HD
ENDBRANCH  19  20
BRANCH  19  24
ATOM     23  C   UNL     1      -1.498   0.956  -1.396  0.00  0.00    +0.005 C 
ATOM     24  C   UNL     1      -1.012  -0.449  -1.034  0.00  0.00    +0.014 C 
ENDBRANCH  19  24
ENDBRANCH   1  19
TORSDOF 6
