REMARK  Name = ZINC49970304
REMARK  10 active torsions:
REMARK  status: ('A' for Active; 'I' for Inactive)
REMARK    1  A    between atoms: C_1  and  C_2
REMARK    2  A    between atoms: C_2  and  N_3
REMARK    3  A    between atoms: N_3  and  C_4
REMARK    4  A    between atoms: C_4  and  C_6
REMARK    5  A    between atoms: C_4  and  C_7
REMARK    6  A    between atoms: C_12  and  N_13
REMARK    7  A    between atoms: N_13  and  C_14
REMARK    8  A    between atoms: N_13  and  C_15
REMARK    9  A    between atoms: C_18  and  O_21
REMARK   10  A    between atoms: O_21  and  C_22
REMARK                            x       y       z     vdW  Elec       q    Type
REMARK                         _______ _______ _______ _____ _____    ______ ____
ROOT
ATOM      1  C   UNL     1      -2.763  -2.504   0.139  0.00  0.00    -0.040 A 
ATOM      2  C   UNL     1      -3.831  -1.727  -0.267  0.00  0.00    +0.004 A 
ATOM      3  C   UNL     1      -5.122  -2.205  -0.144  0.00  0.00    +0.000 A 
ATOM      4  C   UNL     1      -5.350  -3.463   0.385  0.00  0.00    +0.002 A 
ATOM      5  C   UNL     1      -4.288  -4.245   0.793  0.00  0.00    +0.023 A 
ATOM      6  C   UNL     1      -2.988  -3.769   0.666  0.00  0.00    +0.035 A 
ENDROOT
BRANCH   1   7
ATOM      7  C   UNL     1      -1.356  -1.981   0.004  0.00  0.00    -0.042 C 
ATOM      8  C   UNL     1      -0.752  -2.476  -1.312  0.00  0.00    -0.009 C 
BRANCH   7   9
ATOM      9  N   UNL     1      -1.376  -0.512   0.012  0.00  0.00    +0.383 N 
ATOM     10  H   UNL     1      -1.848  -0.187   0.843  0.00  0.00    -0.085 HD
ATOM     11  H   UNL     1      -1.864  -0.178  -0.805  0.00  0.00    -0.085 HD
BRANCH   9  13
ATOM     12  C   UNL     1      -0.019   1.526   0.010  0.00  0.00    -0.017 C 
ATOM     13  C   UNL     1       0.002  -0.004   0.002  0.00  0.00    -0.085 C 
ENDBRANCH   9  13
ENDBRANCH   7   9
ENDBRANCH   1   7
BRANCH   6  14
ATOM     14  N   UNL     1      -1.911  -4.560   1.072  0.00  0.00    -0.303 N 
ATOM     15  C   UNL     1      -1.272  -5.472   0.121  0.00  0.00    +0.135 C 
BRANCH  14  16
ATOM     16  C   UNL     1      -1.441  -4.480   2.388  0.00  0.00    +0.034 A 
ATOM     17  C   UNL     1      -2.050  -3.619   3.292  0.00  0.00    +0.027 A 
ATOM     18  C   UNL     1      -1.586  -3.541   4.591  0.00  0.00    +0.047 A 
ATOM     19  C   UNL     1      -0.513  -4.322   4.992  0.00  0.00    +0.120 A 
ATOM     20  C   UNL     1       0.096  -5.182   4.090  0.00  0.00    +0.047 A 
ATOM     21  C   UNL     1      -0.370  -5.266   2.793  0.00  0.00    +0.027 A 
BRANCH  19  22
ATOM     22  O   UNL     1      -0.057  -4.245   6.271  0.00  0.00    -0.495 OA
ATOM     23  C   UNL     1       1.052  -5.078   6.616  0.00  0.00    +0.277 C 
ENDBRANCH  19  22
ENDBRANCH  14  16
ENDBRANCH   6  14
TORSDOF 6
