REMARK  Name = ZINC61518281
REMARK  4 active torsions:
REMARK  status: ('A' for Active; 'I' for Inactive)
REMARK    1  A    between atoms: C_1  and  C_2
REMARK    2  A    between atoms: C_2  and  C_4
REMARK    3  A    between atoms: C_2  and  O_14
REMARK    4  A    between atoms: C_4  and  N_5
REMARK                            x       y       z     vdW  Elec       q    Type
REMARK                         _______ _______ _______ _____ _____    ______ ____
ROOT
ATOM      1  N   UNL     1       0.762  -1.976   1.234  0.00  0.00    -0.311 N 
ATOM      2  C   UNL     1       1.379  -2.663   2.259  0.00  0.00    +0.220 A 
ATOM      3  N   UNL     1       1.951  -1.997   3.258  0.00  0.00    -0.184 NA
ATOM      4  C   UNL     1       2.541  -2.659   4.239  0.00  0.00    +0.228 A 
ATOM      5  N   UNL     1       2.563  -3.983   4.228  0.00  0.00    -0.187 NA
ATOM      6  C   UNL     1       1.994  -4.649   3.234  0.00  0.00    +0.228 A 
ATOM      7  N   UNL     1       1.397  -3.993   2.253  0.00  0.00    -0.184 NA
ATOM      8 CL   UNL     1       2.026  -6.384   3.224  0.00  0.00    -0.041 Cl
ATOM      9 CL   UNL     1       3.288  -1.790   5.543  0.00  0.00    -0.041 Cl
ATOM     10  H   UNL     1       0.342  -2.462   0.507  0.00  0.00    +0.149 HD
ENDROOT
BRANCH   1  11
ATOM     11  C   UNL     1       0.742  -0.511   1.242  0.00  0.00    +0.135 C 
BRANCH  11  13
ATOM     12  C   UNL     1      -0.019   1.526   0.010  0.00  0.00    +0.039 C 
ATOM     13  C   UNL     1       0.002  -0.004   0.002  0.00  0.00    +0.128 C 
BRANCH  13  14
ATOM     14  O   UNL     1       0.671  -0.465  -1.174  0.00  0.00    -0.391 OA
ATOM     15  H   UNL     1       0.256  -0.181  -1.999  0.00  0.00    +0.210 HD
ENDBRANCH  13  14
ENDBRANCH  11  13
ENDBRANCH   1  11
TORSDOF 3
