REMARK  Name = ZINC36618844
REMARK  10 active torsions:
REMARK  status: ('A' for Active; 'I' for Inactive)
REMARK    1  A    between atoms: C_1  and  O_2
REMARK    2  A    between atoms: O_2  and  C_3
REMARK    3  A    between atoms: C_5  and  C_13
REMARK    4  A    between atoms: C_7  and  O_11
REMARK    5  A    between atoms: C_8  and  O_9
REMARK    6  A    between atoms: O_9  and  C_10
REMARK    7  A    between atoms: O_11  and  C_12
REMARK    8  A    between atoms: C_17  and  C_27
REMARK    9  A    between atoms: C_22  and  N_26
REMARK   10  A    between atoms: C_23  and  C_24
REMARK                            x       y       z     vdW  Elec       q    Type
REMARK                         _______ _______ _______ _____ _____    ______ ____
ROOT
ATOM      1  C   UNL     1       2.515   0.156   4.199  0.00  0.00    +0.083 C 
ATOM      2  C   UNL     1       4.035  -0.026   4.276  0.00  0.00    +0.140 C 
ATOM      3  C   UNL     1       4.739   0.916   3.326  0.00  0.00    +0.085 C 
ATOM      4  N   UNL     1       5.448   1.719   4.073  0.00  0.00    -0.150 NA
ATOM      5  N   UNL     1       5.284   1.460   5.434  0.00  0.00    -0.115 NA
ATOM      6  C   UNL     1       4.448   0.489   5.651  0.00  0.00    +0.227 C 
ATOM      7  O   UNL     1       3.902  -0.013   6.780  0.00  0.00    -0.425 OA
ATOM      8  C   UNL     1       2.579  -0.300   6.681  0.00  0.00    +0.200 C 
ATOM      9  C   UNL     1       1.903  -0.243   5.514  0.00  0.00    +0.095 C 
ENDROOT
BRANCH   3  10
ATOM     10  C   UNL     1       4.644   0.927   1.858  0.00  0.00    +0.017 A 
ATOM     11  C   UNL     1       4.066   2.016   1.198  0.00  0.00    +0.011 A 
ATOM     12  C   UNL     1       3.982   2.019  -0.178  0.00  0.00    +0.001 A 
ATOM     13  C   UNL     1       4.466   0.947  -0.907  0.00  0.00    +0.001 A 
ATOM     14  C   UNL     1       5.039  -0.136  -0.263  0.00  0.00    +0.020 A 
ATOM     15  C   UNL     1       5.137  -0.151   1.114  0.00  0.00    +0.050 A 
ATOM     16 CL   UNL     1       5.863  -1.506   1.920  0.00  0.00    -0.083 Cl
ENDBRANCH   3  10
BRANCH   1  19
ATOM     17  C   UNL     1       0.762  -0.929   1.031  0.00  0.00    +0.165 A 
ATOM     18  C   UNL     1       1.276  -0.135   2.045  0.00  0.00    +0.054 A 
ATOM     19  C   UNL     1       1.958  -0.711   3.100  0.00  0.00    -0.031 A 
ATOM     20  C   UNL     1       2.131  -2.082   3.149  0.00  0.00    +0.054 A 
ATOM     21  C   UNL     1       1.620  -2.884   2.140  0.00  0.00    +0.165 A 
ATOM     22  C   UNL     1       0.929  -2.308   1.080  0.00  0.00    +0.204 A 
BRANCH  17  24
ATOM     23  C   UNL     1      -0.042   1.062   0.009  0.00  0.00    +0.277 C 
ATOM     24  O   UNL     1       0.091  -0.361  -0.006  0.00  0.00    -0.491 OA
ENDBRANCH  17  24
BRANCH  22  25
ATOM     25  O   UNL     1       0.421  -3.092   0.090  0.00  0.00    -0.488 OA
ATOM     26  C   UNL     1       1.271  -3.357  -1.028  0.00  0.00    +0.277 C 
ENDBRANCH  22  25
BRANCH  21  27
ATOM     27  O   UNL     1       1.791  -4.232   2.189  0.00  0.00    -0.491 OA
ATOM     28  C   UNL     1       2.506  -4.755   3.310  0.00  0.00    +0.277 C 
ENDBRANCH  21  27
ENDBRANCH   1  19
BRANCH   8  29
ATOM     29  N   UNL     1       1.899  -0.664   7.817  0.00  0.00    -0.328 N 
ATOM     30  H   UNL     1       2.364  -0.711   8.667  0.00  0.00    +0.145 HD
ATOM     31  H   UNL     1       0.953  -0.873   7.770  0.00  0.00    +0.145 HD
ENDBRANCH   8  29
BRANCH   9  32
ATOM     32  C   UNL     1       0.512  -0.586   5.528  0.00  0.00    +0.100 C 
ATOM     33  N   UNL     1      -0.591  -0.858   5.539  0.00  0.00    -0.191 NA
ENDBRANCH   9  32
TORSDOF 7
