REMARK  Name = ZINC37352251
REMARK  4 active torsions:
REMARK  status: ('A' for Active; 'I' for Inactive)
REMARK    1  A    between atoms: C_1  and  N_2
REMARK    2  A    between atoms: C_3  and  N_21
REMARK    3  A    between atoms: C_4  and  C_11
REMARK    4  A    between atoms: C_5  and  C_7
REMARK                            x       y       z     vdW  Elec       q    Type
REMARK                         _______ _______ _______ _____ _____    ______ ____
ROOT
ATOM      1  C   UNL     1      -0.018   1.461   0.010  0.00  0.00    +0.174 C 
ATOM      2  N   UNL     1       0.002  -0.004   0.002  0.00  0.00    -0.253 N 
ATOM      3  C   UNL     1       0.008  -0.790  -1.098  0.00  0.00    +0.122 A 
ATOM      4  C   UNL     1       0.028  -2.103  -0.663  0.00  0.00    +0.053 A 
ATOM      5  C   UNL     1       0.034  -2.078   0.745  0.00  0.00    +0.175 A 
ATOM      6  N   UNL     1       0.025  -0.830   1.132  0.00  0.00    -0.165 NA
ENDROOT
BRANCH   4   7
ATOM      7  C   UNL     1       0.040  -3.314  -1.521  0.00  0.00    -0.009 A 
ATOM      8  C   UNL     1      -1.051  -3.601  -2.339  0.00  0.00    +0.012 A 
ATOM      9  C   UNL     1      -1.038  -4.728  -3.135  0.00  0.00    +0.050 A 
ATOM     10  C   UNL     1       0.058  -5.579  -3.125  0.00  0.00    +0.162 A 
ATOM     11  C   UNL     1       1.151  -5.296  -2.312  0.00  0.00    +0.163 A 
ATOM     12  C   UNL     1       1.144  -4.163  -1.514  0.00  0.00    +0.058 A 
ATOM     13  O   UNL     1       2.237  -6.115  -2.295  0.00  0.00    -0.485 OA
ATOM     14  C   UNL     1       2.059  -7.432  -2.828  0.00  0.00    +0.270 C 
ATOM     15  C   UNL     1       1.312  -7.313  -4.163  0.00  0.00    +0.270 C 
ATOM     16  O   UNL     1       0.048  -6.688  -3.916  0.00  0.00    -0.485 OA
ENDBRANCH   4   7
BRANCH   5  17
ATOM     17  C   UNL     1       0.054  -3.283   1.650  0.00  0.00    +0.437 C 
ATOM     18  F   UNL     1       1.379  -3.637   1.924  0.00  0.00    -0.164 F 
ATOM     19  F   UNL     1      -0.604  -2.978   2.846  0.00  0.00    -0.164 F 
ATOM     20  F   UNL     1      -0.594  -4.350   1.019  0.00  0.00    -0.164 F 
ENDBRANCH   5  17
BRANCH   3  21
ATOM     21  N   UNL     1      -0.004  -0.359  -2.418  0.00  0.00    -0.343 N 
ATOM     22  H   UNL     1      -0.018   0.589  -2.619  0.00  0.00    +0.144 HD
ATOM     23  H   UNL     1       0.001  -1.008  -3.140  0.00  0.00    +0.144 HD
ENDBRANCH   3  21
TORSDOF 3
