REMARK  Name = ZINC52841627
REMARK  6 active torsions:
REMARK  status: ('A' for Active; 'I' for Inactive)
REMARK    1  A    between atoms: C_1  and  C_2
REMARK    2  A    between atoms: C_5  and  C_19
REMARK    3  A    between atoms: C_6  and  O_8
REMARK    4  A    between atoms: O_8  and  C_9
REMARK    5  A    between atoms: C_12  and  N_16
REMARK    6  A    between atoms: C_14  and  N_15
REMARK                            x       y       z     vdW  Elec       q    Type
REMARK                         _______ _______ _______ _____ _____    ______ ____
ROOT
ATOM      1  C   UNL     1       0.157  -2.066   3.513  0.00  0.00    +0.149 A 
ATOM      2  C   UNL     1       1.405  -1.782   4.042  0.00  0.00    +0.050 A 
ATOM      3  C   UNL     1       1.511  -1.061   5.217  0.00  0.00    +0.036 A 
ATOM      4  C   UNL     1       0.373  -0.621   5.868  0.00  0.00    +0.128 A 
ATOM      5  C   UNL     1      -0.876  -0.900   5.347  0.00  0.00    +0.059 A 
ATOM      6  C   UNL     1      -0.990  -1.618   4.165  0.00  0.00    +0.070 A 
ENDROOT
BRANCH   6   7
ATOM      7  N   UNL     1      -2.254  -1.897   3.633  0.00  0.00    -0.355 N 
ATOM      8  H   UNL     1      -2.332  -2.402   2.809  0.00  0.00    +0.142 HD
ATOM      9  H   UNL     1      -3.052  -1.584   4.087  0.00  0.00    +0.142 HD
ENDBRANCH   6   7
BRANCH   4  10
ATOM     10  N   UNL     1       0.493   0.150   7.125  0.00  0.00    +0.056 N 
ATOM     11  O   UNL     1       1.585   0.395   7.583  0.00  0.00    -0.126 OA
ATOM     12  O   UNL     1      -0.501   0.535   7.696  0.00  0.00    -0.126 OA
ENDBRANCH   4  10
BRANCH   1  13
ATOM     13  O   UNL     1       0.051  -2.776   2.358  0.00  0.00    -0.454 OA
BRANCH  13  19
ATOM     14  C   UNL     1       0.070   1.500   0.005  0.00  0.00    +0.044 C 
ATOM     15  C   UNL     1      -0.048  -0.002   0.006  0.00  0.00    -0.047 A 
ATOM     16  C   UNL     1      -0.262  -0.679  -1.181  0.00  0.00    +0.004 A 
ATOM     17  C   UNL     1      -0.372  -2.057  -1.183  0.00  0.00    +0.007 A 
ATOM     18  C   UNL     1      -0.267  -2.762   0.001  0.00  0.00    -0.008 A 
ATOM     19  C   UNL     1      -0.052  -2.085   1.192  0.00  0.00    +0.132 A 
ATOM     20  C   UNL     1       0.062  -0.702   1.191  0.00  0.00    +0.050 A 
ATOM     21  C   UNL     1      -0.387  -4.264  -0.003  0.00  0.00    +0.047 C 
ENDBRANCH  13  19
ENDBRANCH   1  13
TORSDOF 4
