REMARK  Name = ZINC56950400
REMARK  12 active torsions:
REMARK  status: ('A' for Active; 'I' for Inactive)
REMARK    1  A    between atoms: C_1  and  C_2
REMARK    2  A    between atoms: C_2  and  C_3
REMARK    3  A    between atoms: C_2  and  C_4
REMARK    4  A    between atoms: C_2  and  O_5
REMARK    5  A    between atoms: O_5  and  C_6
REMARK    6  A    between atoms: N_8  and  N_9
REMARK    7  A    between atoms: N_12  and  C_13
REMARK    8  A    between atoms: C_13  and  C_14
REMARK    9  A    between atoms: C_14  and  C_16
REMARK   10  A    between atoms: C_14  and  N_23
REMARK   11  A    between atoms: N_23  and  C_24
REMARK   12  A    between atoms: N_23  and  C_25
REMARK                            x       y       z     vdW  Elec       q    Type
REMARK                         _______ _______ _______ _____ _____    ______ ____
ROOT
ATOM      1  N   UNL     1       2.832  -1.232  -2.505  0.00  0.00    -0.216 N 
ATOM      2  C   UNL     1       3.244  -1.542  -3.750  0.00  0.00    +0.316 C 
ATOM      3  O   UNL     1       2.475  -2.070  -4.531  0.00  0.00    -0.251 OA
ATOM      4  N   UNL     1       4.508  -1.268  -4.130  0.00  0.00    -0.299 N 
ATOM      5  H   UNL     1       1.923  -1.429  -2.232  0.00  0.00    +0.174 HD
ATOM      6  H   UNL     1       5.121  -0.848  -3.507  0.00  0.00    +0.150 HD
ENDROOT
BRANCH   1   9
ATOM      7  C   UNL     1       3.306  -0.314  -0.360  0.00  0.00    +0.417 C 
ATOM      8  O   UNL     1       4.074   0.213   0.420  0.00  0.00    -0.225 OA
ATOM      9  N   UNL     1       3.718  -0.625  -1.605  0.00  0.00    -0.198 N 
ATOM     10  H   UNL     1       4.627  -0.427  -1.879  0.00  0.00    +0.176 HD
BRANCH   7  11
ATOM     11  O   UNL     1       2.043  -0.588   0.019  0.00  0.00    -0.444 OA
BRANCH  11  13
ATOM     12  C   UNL     1       1.843   1.277   1.543  0.00  0.00    +0.055 C 
ATOM     13  C   UNL     1       1.675  -0.232   1.353  0.00  0.00    +0.107 C 
ATOM     14  C   UNL     1       2.573  -0.974   2.345  0.00  0.00    +0.055 C 
ATOM     15  C   UNL     1       0.215  -0.618   1.599  0.00  0.00    +0.055 C 
ENDBRANCH  11  13
ENDBRANCH   7  11
ENDBRANCH   1   9
BRANCH   4  16
ATOM     16  C   UNL     1       4.955  -1.605  -5.484  0.00  0.00    +0.095 C 
BRANCH  16  17
ATOM     17  C   UNL     1       6.375  -1.077  -5.697  0.00  0.00    -0.021 C 
BRANCH  17  18
ATOM     18  C   UNL     1       6.364   0.429  -5.649  0.00  0.00    -0.059 A 
ATOM     19  C   UNL     1       5.959   1.153  -6.755  0.00  0.00    +0.005 A 
ATOM     20  C   UNL     1       5.948   2.534  -6.711  0.00  0.00    +0.038 A 
ATOM     21  C   UNL     1       6.342   3.193  -5.559  0.00  0.00    +0.123 A 
ATOM     22  C   UNL     1       6.747   2.467  -4.452  0.00  0.00    +0.038 A 
ATOM     23  C   UNL     1       6.753   1.085  -4.496  0.00  0.00    +0.005 A 
ATOM     24  F   UNL     1       6.332   4.543  -5.515  0.00  0.00    -0.205 F 
ENDBRANCH  17  18
BRANCH  17  25
ATOM     25  N   UNL     1       6.871  -1.521  -7.007  0.00  0.00    +0.382 N 
ATOM     26  C   UNL     1       8.214  -0.973  -7.234  0.00  0.00    -0.096 C 
ATOM     27  C   UNL     1       6.929  -2.989  -7.037  0.00  0.00    -0.096 C 
ATOM     28  H   UNL     1       6.247  -1.195  -7.731  0.00  0.00    -0.082 HD
ENDBRANCH  17  25
ENDBRANCH  16  17
ENDBRANCH   4  16
TORSDOF 7
