REMARK  Name = ZINC33958696
REMARK  4 active torsions:
REMARK  status: ('A' for Active; 'I' for Inactive)
REMARK    1  A    between atoms: C_3  and  C_8
REMARK    2  A    between atoms: N_9  and  N_10
REMARK    3  A    between atoms: C_11  and  C_13
REMARK    4  A    between atoms: C_15  and  N_21
REMARK                            x       y       z     vdW  Elec       q    Type
REMARK                         _______ _______ _______ _____ _____    ______ ____
ROOT
ATOM      1  N   UNL     1       5.990   2.242  -0.044  0.00  0.00    -0.202 N 
ATOM      2  C   UNL     1       7.166   1.583  -0.059  0.00  0.00    +0.283 C 
ATOM      3  O   UNL     1       7.181   0.367  -0.065  0.00  0.00    -0.267 OA
ATOM      4  H   UNL     1       5.978   3.212  -0.039  0.00  0.00    +0.178 HD
ENDROOT
BRANCH   2   5
ATOM      5  C   UNL     1       8.438   2.338  -0.068  0.00  0.00    +0.149 A 
ATOM      6  C   UNL     1       9.648   1.651  -0.088  0.00  0.00    +0.094 A 
ATOM      7  C   UNL     1      10.839   2.378  -0.096  0.00  0.00    +0.067 A 
ATOM      8  C   UNL     1      10.764   3.770  -0.083  0.00  0.00    +0.100 A 
ATOM      9  C   UNL     1       9.521   4.382  -0.062  0.00  0.00    +0.150 A 
ATOM     10  N   UNL     1       8.414   3.668  -0.060  0.00  0.00    -0.228 NA
ATOM     11 CL   UNL     1       9.420   6.115  -0.044  0.00  0.00    -0.060 Cl
ATOM     12 CL   UNL     1      12.213   4.727  -0.091  0.00  0.00    -0.078 Cl
ATOM     13 CL   UNL     1       9.676  -0.085  -0.104  0.00  0.00    -0.079 Cl
BRANCH   7  14
ATOM     14  N   UNL     1      12.072   1.730  -0.117  0.00  0.00    -0.356 N 
ATOM     15  H   UNL     1      12.110   0.760  -0.126  0.00  0.00    +0.142 HD
ATOM     16  H   UNL     1      12.892   2.247  -0.122  0.00  0.00    +0.142 HD
ENDBRANCH   7  14
ENDBRANCH   2   5
BRANCH   1  18
ATOM     17  C   UNL     1       3.654   2.162  -0.022  0.00  0.00    +0.138 C 
ATOM     18  N   UNL     1       4.786   1.527  -0.036  0.00  0.00    -0.187 NA
BRANCH  17  21
ATOM     19  C   UNL     1      -0.017   1.379   0.010  0.00  0.00    +0.003 A 
ATOM     20  C   UNL     1       1.166   2.089   0.002  0.00  0.00    +0.009 A 
ATOM     21  C   UNL     1       2.386   1.409  -0.013  0.00  0.00    -0.003 A 
ATOM     22  C   UNL     1       2.400   0.012  -0.021  0.00  0.00    +0.047 A 
ATOM     23  C   UNL     1       1.208  -0.687  -0.013  0.00  0.00    +0.124 A 
ATOM     24  C   UNL     1       0.002  -0.004   0.002  0.00  0.00    +0.038 A 
ATOM     25  F   UNL     1       1.218  -2.038  -0.021  0.00  0.00    -0.205 F 
ENDBRANCH  17  21
ENDBRANCH   1  18
TORSDOF 4
