REMARK  Name = ZINC63271183
REMARK  10 active torsions:
REMARK  status: ('A' for Active; 'I' for Inactive)
REMARK    1  A    between atoms: C_1  and  O_2
REMARK    2  A    between atoms: O_2  and  C_3
REMARK    3  A    between atoms: C_8  and  C_15
REMARK    4  A    between atoms: C_12  and  O_13
REMARK    5  A    between atoms: O_13  and  C_14
REMARK    6  A    between atoms: N_17  and  C_18
REMARK    7  A    between atoms: C_18  and  C_19
REMARK    8  A    between atoms: N_21  and  C_22
REMARK    9  A    between atoms: C_22  and  C_23
REMARK   10  A    between atoms: C_23  and  C_24
REMARK                            x       y       z     vdW  Elec       q    Type
REMARK                         _______ _______ _______ _____ _____    ______ ____
ROOT
ATOM      1  C   UNL     1      -4.927  -4.704  -1.201  0.00  0.00    +0.240 C 
ATOM      2  O   UNL     1      -5.293  -4.053  -2.157  0.00  0.00    -0.273 OA
ATOM      3  N   UNL     1      -4.985  -6.050  -1.240  0.00  0.00    -0.305 N 
ATOM      4  H   UNL     1      -4.693  -6.570  -0.475  0.00  0.00    +0.149 HD
ENDROOT
BRANCH   1  10
ATOM      5  C   UNL     1      -1.202  -0.638   0.010  0.00  0.00    +0.162 A 
ATOM      6  C   UNL     1      -2.377   0.124   0.020  0.00  0.00    +0.051 A 
ATOM      7  C   UNL     1      -3.610  -0.432   0.028  0.00  0.00    +0.030 A 
ATOM      8  C   UNL     1      -3.765  -1.843   0.028  0.00  0.00    +0.047 A 
ATOM      9  N   UNL     1      -4.835  -2.604   0.035  0.00  0.00    -0.370 N 
ATOM     10  C   UNL     1      -4.408  -4.007   0.031  0.00  0.00    +0.190 C 
ATOM     11  C   UNL     1      -2.896  -3.982   0.019  0.00  0.00    +0.020 C 
ATOM     12  C   UNL     1      -2.543  -2.679   0.017  0.00  0.00    +0.042 A 
ATOM     13  C   UNL     1      -1.237  -2.001   0.003  0.00  0.00    +0.170 A 
ATOM     14  H   UNL     1      -5.753  -2.291   0.043  0.00  0.00    +0.161 HD
BRANCH   5  16
ATOM     15  C   UNL     1      -0.017   1.425   0.010  0.00  0.00    +0.277 C 
ATOM     16  O   UNL     1       0.002  -0.004   0.002  0.00  0.00    -0.491 OA
ENDBRANCH   5  16
BRANCH  13  17
ATOM     17  O   UNL     1      -0.086  -2.721  -0.012  0.00  0.00    -0.491 OA
ATOM     18  C   UNL     1       0.476  -3.072   1.254  0.00  0.00    +0.277 C 
ENDBRANCH  13  17
ENDBRANCH   1  10
BRANCH   3  19
ATOM     19  C   UNL     1      -5.490  -6.727  -2.438  0.00  0.00    +0.200 C 
BRANCH  19  20
ATOM     20  C   UNL     1      -5.451  -8.218  -2.225  0.00  0.00    +0.230 C 
ATOM     21  O   UNL     1      -5.043  -8.671  -1.177  0.00  0.00    -0.274 OA
ATOM     22  N   UNL     1      -5.871  -9.049  -3.200  0.00  0.00    -0.314 N 
ATOM     23  H   UNL     1      -6.197  -8.686  -4.038  0.00  0.00    +0.149 HD
BRANCH  22  24
ATOM     24  C   UNL     1      -5.833 -10.499  -2.994  0.00  0.00    +0.108 C 
BRANCH  24  25
ATOM     25  C   UNL     1      -6.360 -11.206  -4.244  0.00  0.00    +0.052 C 
BRANCH  25  26
ATOM     26  C   UNL     1      -6.321 -12.697  -4.032  0.00  0.00    -0.040 C 
ATOM     27  C   UNL     1      -7.335 -13.484  -3.606  0.00  0.00    -0.001 A 
ATOM     28  C   UNL     1      -8.724 -13.199  -3.227  0.00  0.00    +0.010 A 
ATOM     29  C   UNL     1      -9.519 -14.219  -2.832  0.00  0.00    +0.001 A 
ATOM     30  C   UNL     1      -9.051 -15.539  -2.776  0.00  0.00    +0.002 A 
ATOM     31  C   UNL     1      -7.788 -15.880  -3.108  0.00  0.00    +0.026 A 
ATOM     32  C   UNL     1      -6.866 -14.887  -3.538  0.00  0.00    +0.043 A 
ATOM     33  N   UNL     1      -5.610 -14.963  -3.908  0.00  0.00    -0.380 N 
ATOM     34  C   UNL     1      -5.143 -13.617  -4.258  0.00  0.00    +0.144 C 
ATOM     35  H   UNL     1      -5.080 -15.775  -3.947  0.00  0.00    +0.160 HD
ENDBRANCH  25  26
ENDBRANCH  24  25
ENDBRANCH  22  24
ENDBRANCH  19  20
ENDBRANCH   3  19
TORSDOF 8
