REMARK  Name = ZINC53205703
REMARK  6 active torsions:
REMARK  status: ('A' for Active; 'I' for Inactive)
REMARK    1  A    between atoms: C_1  and  N_2
REMARK    2  A    between atoms: C_6  and  N_9
REMARK    3  A    between atoms: N_9  and  C_10
REMARK    4  A    between atoms: N_9  and  S_11
REMARK    5  A    between atoms: S_11  and  C_14
REMARK    6  A    between atoms: C_15  and  N_22
REMARK                            x       y       z     vdW  Elec       q    Type
REMARK                         _______ _______ _______ _____ _____    ______ ____
ROOT
ATOM      1  S   UNL     1       0.323  -3.586   3.958  0.00  0.00    +0.064 S 
ATOM      2  O   UNL     1       1.077  -3.513   5.160  0.00  0.00    -0.153 OA
ATOM      3  O   UNL     1      -1.086  -3.401   3.930  0.00  0.00    -0.153 OA
ENDROOT
BRANCH   1   4
ATOM      4  C   UNL     1       0.636  -5.175   3.263  0.00  0.00    +0.144 A 
ATOM      5  C   UNL     1      -0.243  -5.712   2.330  0.00  0.00    +0.054 A 
ATOM      6  C   UNL     1       0.007  -6.964   1.784  0.00  0.00    +0.044 A 
ATOM      7  C   UNL     1       1.129  -7.673   2.169  0.00  0.00    +0.044 A 
ATOM      8  C   UNL     1       2.003  -7.136   3.098  0.00  0.00    +0.042 A 
ATOM      9  C   UNL     1       1.760  -5.886   3.640  0.00  0.00    +0.070 A 
ATOM     10 CL   UNL     1       2.863  -5.213   4.799  0.00  0.00    -0.081 Cl
ATOM     11 CL   UNL     1       1.442  -9.238   1.488  0.00  0.00    -0.083 Cl
BRANCH   5  12
ATOM     12  N   UNL     1      -1.377  -4.993   1.944  0.00  0.00    -0.356 N 
ATOM     13  H   UNL     1      -1.440  -4.045   2.138  0.00  0.00    +0.142 HD
ATOM     14  H   UNL     1      -2.102  -5.443   1.481  0.00  0.00    +0.142 HD
ENDBRANCH   5  12
ENDBRANCH   1   4
BRANCH   1  15
ATOM     15  N   UNL     1       0.968  -2.464   2.925  0.00  0.00    -0.178 NA
ATOM     16  C   UNL     1       2.356  -2.025   3.095  0.00  0.00    +0.132 C 
BRANCH  15  22
ATOM     17  C   UNL     1      -0.937   1.609   1.125  0.00  0.00    -0.096 C 
ATOM     18  N   UNL     1      -0.772   0.163   0.920  0.00  0.00    +0.379 N 
ATOM     19  C   UNL     1      -0.113  -0.074  -0.370  0.00  0.00    -0.079 C 
ATOM     20  C   UNL     1      -0.012  -1.580  -0.626  0.00  0.00    -0.017 C 
ATOM     21  C   UNL     1       0.807  -2.228   0.494  0.00  0.00    +0.017 C 
ATOM     22  C   UNL     1       0.152  -1.911   1.842  0.00  0.00    +0.063 C 
ATOM     23  C   UNL     1       0.044  -0.393   2.006  0.00  0.00    -0.058 C 
ATOM     24  H   UNL     1      -1.678  -0.281   0.920  0.00  0.00    -0.082 HD
ENDBRANCH  15  22
ENDBRANCH   1  15
TORSDOF 4
