REMARK  Name = ZINC30492515
REMARK  16 active torsions:
REMARK  status: ('A' for Active; 'I' for Inactive)
REMARK    1  A    between atoms: C_1  and  C_2
REMARK    2  A    between atoms: C_2  and  C_3
REMARK    3  A    between atoms: C_3  and  C_4
REMARK    4  A    between atoms: C_4  and  N_5
REMARK    5  A    between atoms: C_9  and  C_11
REMARK    6  A    between atoms: C_11  and  C_13
REMARK    7  A    between atoms: C_11  and  N_14
REMARK    8  A    between atoms: N_14  and  C_15
REMARK    9  A    between atoms: C_15  and  C_17
REMARK   10  A    between atoms: C_15  and  C_18
REMARK   11  A    between atoms: C_21  and  O_26
REMARK   12  A    between atoms: C_22  and  O_24
REMARK   13  A    between atoms: O_24  and  C_25
REMARK   14  A    between atoms: O_26  and  C_27
REMARK   15  A    between atoms: C_27  and  C_28
REMARK   16  A    between atoms: C_27  and  C_29
REMARK                            x       y       z     vdW  Elec       q    Type
REMARK                         _______ _______ _______ _____ _____    ______ ____
ROOT
ATOM      1  N   UNL     1      -0.122   1.170   2.676  0.00  0.00    +0.391 N 
ATOM      2  H   UNL     1      -0.735   1.292   3.581  0.00  0.00    -0.084 HD
ATOM      3  H   UNL     1       0.175   0.116   2.572  0.00  0.00    -0.084 HD
ENDROOT
BRANCH   1   4
ATOM      4  C   UNL     1      -0.902   1.577   1.499  0.00  0.00    +0.014 C 
ATOM      5  C   UNL     1      -0.360   0.866   0.257  0.00  0.00    -0.004 C 
BRANCH   4  10
ATOM      6  N   UNL     1      -5.457   1.424  -0.031  0.00  0.00    -0.299 N 
ATOM      7  C   UNL     1      -4.549   1.146   0.925  0.00  0.00    +0.306 C 
ATOM      8  O   UNL     1      -4.896   0.594   1.951  0.00  0.00    -0.252 OA
ATOM      9  N   UNL     1      -3.256   1.481   0.745  0.00  0.00    -0.242 N 
ATOM     10  C   UNL     1      -2.348   1.203   1.701  0.00  0.00    +0.206 C 
ATOM     11  O   UNL     1      -2.695   0.652   2.724  0.00  0.00    -0.277 OA
ATOM     12  H   UNL     1      -5.143   1.923  -0.959  0.00  0.00    +0.150 HD
ATOM     13  H   UNL     1      -2.942   1.980  -0.183  0.00  0.00    +0.159 HD
BRANCH   6  14
ATOM     14  C   UNL     1      -6.863   1.060   0.165  0.00  0.00    +0.106 C 
BRANCH  14  15
ATOM     15  C   UNL     1      -7.675   1.484  -1.060  0.00  0.00    +0.018 C 
BRANCH  15  17
ATOM     16  C   UNL     1      -9.955   1.527  -2.080  0.00  0.00    +0.004 C 
ATOM     17  C   UNL     1      -9.143   1.104  -0.855  0.00  0.00    -0.002 C 
ENDBRANCH  15  17
ENDBRANCH  14  15
ENDBRANCH   6  14
ENDBRANCH   4  10
ENDBRANCH   1   4
BRANCH   1  18
ATOM     18  C   UNL     1       1.089   1.990   2.813  0.00  0.00    -0.043 C 
ATOM     19  C   UNL     1       0.751   3.279   3.564  0.00  0.00    -0.009 C 
BRANCH  18  20
ATOM     20  C   UNL     1       2.132   1.220   3.581  0.00  0.00    -0.058 A 
ATOM     21  C   UNL     1       1.760   0.449   4.667  0.00  0.00    +0.006 A 
ATOM     22  C   UNL     1       2.713  -0.260   5.374  0.00  0.00    +0.049 A 
ATOM     23  C   UNL     1       4.044  -0.199   4.996  0.00  0.00    +0.162 A 
ATOM     24  C   UNL     1       4.419   0.577   3.903  0.00  0.00    +0.162 A 
ATOM     25  C   UNL     1       3.458   1.281   3.195  0.00  0.00    +0.051 A 
BRANCH  24  26
ATOM     26  O   UNL     1       5.725   0.640   3.528  0.00  0.00    -0.491 OA
ATOM     27  C   UNL     1       6.036   1.456   2.397  0.00  0.00    +0.277 C 
ENDBRANCH  24  26
BRANCH  23  28
ATOM     28  O   UNL     1       4.983  -0.896   5.690  0.00  0.00    -0.486 OA
BRANCH  28  29
ATOM     29  C   UNL     1       4.513  -1.766   6.723  0.00  0.00    +0.167 C 
ATOM     30  C   UNL     1       5.536  -2.879   6.957  0.00  0.00    +0.051 C 
ATOM     31  C   UNL     1       4.324  -0.968   8.014  0.00  0.00    +0.051 C 
ENDBRANCH  28  29
ENDBRANCH  23  28
ENDBRANCH  18  20
ENDBRANCH   1  18
TORSDOF 10
