REMARK  Name = ZINC32777705
REMARK  6 active torsions:
REMARK  status: ('A' for Active; 'I' for Inactive)
REMARK    1  A    between atoms: C_1  and  C_2
REMARK    2  A    between atoms: C_2  and  C_4
REMARK    3  A    between atoms: C_2  and  N_11
REMARK    4  A    between atoms: N_9  and  C_10
REMARK    5  A    between atoms: N_14  and  S_17
REMARK    6  A    between atoms: S_17  and  N_20
REMARK                            x       y       z     vdW  Elec       q    Type
REMARK                         _______ _______ _______ _____ _____    ______ ____
ROOT
ATOM      1  N   UNL     1      -1.092  -2.811   0.700  0.00  0.00    +0.389 N 
ATOM      2  C   UNL     1      -2.536  -2.538   0.714  0.00  0.00    -0.060 C 
ATOM      3  C   UNL     1      -2.909  -1.717  -0.525  0.00  0.00    +0.092 C 
ATOM      4  N   UNL     1      -2.051  -0.523  -0.571  0.00  0.00    -0.170 NA
ATOM      5  C   UNL     1      -0.597  -0.707  -0.458  0.00  0.00    +0.092 C 
ATOM      6  C   UNL     1      -0.314  -1.567   0.784  0.00  0.00    -0.060 C 
ATOM      7  H   UNL     1      -0.852  -3.291  -0.260  0.00  0.00    -0.081 HD
ENDROOT
BRANCH   4   8
ATOM      8  S   UNL     1      -2.705   0.987  -0.752  0.00  0.00    +0.099 S 
ATOM      9  O   UNL     1      -1.687   1.807  -1.307  0.00  0.00    -0.141 OA
ATOM     10  O   UNL     1      -3.968   0.811  -1.379  0.00  0.00    -0.141 OA
BRANCH   8  11
ATOM     11  N   UNL     1      -3.010   1.574   0.767  0.00  0.00    -0.166 NA
ATOM     12  C   UNL     1      -4.264   1.405   1.515  0.00  0.00    +0.110 C 
ATOM     13  C   UNL     1      -4.095   2.137   2.863  0.00  0.00    +0.018 C 
ATOM     14  C   UNL     1      -2.970   3.161   2.562  0.00  0.00    +0.018 C 
ATOM     15  C   UNL     1      -2.070   2.358   1.589  0.00  0.00    +0.110 C 
ENDBRANCH   8  11
ENDBRANCH   4   8
BRANCH   1  17
ATOM     16  C   UNL     1       0.801  -3.880   1.825  0.00  0.00    -0.004 C 
ATOM     17  C   UNL     1      -0.721  -3.738   1.777  0.00  0.00    +0.017 C 
BRANCH  17  18
ATOM     18  C   UNL     1      -1.218  -3.202   3.095  0.00  0.00    +0.207 C 
ATOM     19  O   UNL     1      -1.349  -2.007   3.252  0.00  0.00    -0.277 OA
ATOM     20  N   UNL     1      -1.517  -4.051   4.098  0.00  0.00    -0.242 N 
ATOM     21  C   UNL     1      -1.962  -3.572   5.276  0.00  0.00    +0.306 C 
ATOM     22  O   UNL     1      -2.093  -2.375   5.435  0.00  0.00    -0.252 OA
ATOM     23  N   UNL     1      -2.261  -4.422   6.279  0.00  0.00    -0.302 N 
ATOM     24  C   UNL     1      -2.744  -3.901   7.560  0.00  0.00    +0.129 C 
ATOM     25  H   UNL     1      -1.398  -5.136   3.954  0.00  0.00    +0.159 HD
ATOM     26  H   UNL     1      -2.142  -5.506   6.136  0.00  0.00    +0.150 HD
ENDBRANCH  17  18
ENDBRANCH   1  17
TORSDOF 4
