REMARK  Name = ZINC31934703
REMARK  8 active torsions:
REMARK  status: ('A' for Active; 'I' for Inactive)
REMARK    1  A    between atoms: C_1  and  C_2
REMARK    2  A    between atoms: C_2  and  N_3
REMARK    3  A    between atoms: N_3  and  C_4
REMARK    4  A    between atoms: C_4  and  C_5
REMARK    5  A    between atoms: C_17  and  C_21
REMARK    6  A    between atoms: C_21  and  C_22
REMARK    7  A    between atoms: C_21  and  C_23
REMARK    8  A    between atoms: C_21  and  C_24
REMARK                            x       y       z     vdW  Elec       q    Type
REMARK                         _______ _______ _______ _____ _____    ______ ____
ROOT
ATOM      1  C   UNL     1       5.424  -3.043  -5.734  0.00  0.00    +0.094 A 
ATOM      2  N   UNL     1       4.322  -3.821  -5.613  0.00  0.00    -0.312 N 
ATOM      3  H   UNL     1       4.215  -4.724  -6.232  0.00  0.00    +0.170 HD
ATOM      4  C   UNL     1       3.315  -3.548  -4.749  0.00  0.00    +0.260 A 
ATOM      5  O   UNL     1       2.330  -4.260  -4.654  0.00  0.00    -0.267 OA
ATOM      6  C   UNL     1       3.482  -2.365  -3.954  0.00  0.00    +0.075 A 
ATOM      7  C   UNL     1       2.560  -1.848  -2.958  0.00  0.00    -0.023 A 
ATOM      8  C   UNL     1       2.925  -0.709  -2.325  0.00  0.00    -0.004 A 
ATOM      9  S   UNL     1       4.501  -0.277  -3.019  0.00  0.00    -0.073 S 
ATOM     10  C   UNL     1       4.665  -1.619  -4.153  0.00  0.00    +0.116 A 
ATOM     11  N   UNL     1       5.613  -1.953  -5.024  0.00  0.00    -0.229 NA
ATOM     12  C   UNL     1       2.162   0.025  -1.267  0.00  0.00    +0.046 C 
ATOM     13  C   UNL     1       0.718  -0.497  -1.257  0.00  0.00    -0.000 C 
ATOM     14  C   UNL     1       0.748  -2.029  -1.264  0.00  0.00    +0.009 C 
ATOM     15  C   UNL     1       1.237  -2.532  -2.621  0.00  0.00    +0.037 C 
ENDROOT
BRANCH  13  16
ATOM     16  C   UNL     1       0.002  -0.004   0.002  0.00  0.00    -0.035 C 
ATOM     17  C   UNL     1      -0.019   1.526   0.010  0.00  0.00    +0.011 C 
ATOM     18  C   UNL     1       0.742  -0.511   1.242  0.00  0.00    +0.011 C 
ATOM     19  C   UNL     1      -1.433  -0.534   0.013  0.00  0.00    +0.011 C 
ENDBRANCH  13  16
BRANCH   1  20
ATOM     20  C   UNL     1       6.482  -3.445  -6.729  0.00  0.00    -0.007 C 
BRANCH  20  21
ATOM     21  N   UNL     1       7.580  -2.469  -6.698  0.00  0.00    +0.384 N 
ATOM     22  H   UNL     1       8.002  -2.446  -5.682  0.00  0.00    -0.085 HD
ATOM     23  H   UNL     1       7.177  -1.477  -6.951  0.00  0.00    -0.085 HD
BRANCH  21  25
ATOM     24  C   UNL     1       9.755  -1.793  -7.596  0.00  0.00    -0.017 C 
ATOM     25  C   UNL     1       8.632  -2.830  -7.657  0.00  0.00    -0.085 C 
ENDBRANCH  21  25
ENDBRANCH  20  21
ENDBRANCH   1  20
TORSDOF 4
