REMARK  Name = ZINC62812341
REMARK  3 active torsions:
REMARK  status: ('A' for Active; 'I' for Inactive)
REMARK    1  A    between atoms: C_4  and  N_7
REMARK    2  A    between atoms: N_7  and  C_8
REMARK    3  A    between atoms: C_14  and  C_16
REMARK                            x       y       z     vdW  Elec       q    Type
REMARK                         _______ _______ _______ _____ _____    ______ ____
ROOT
ATOM      1  N   UNL     1       3.030  -0.089  -2.537  0.00  0.00    -0.294 N 
ATOM      2  C   UNL     1       2.301  -0.144  -3.669  0.00  0.00    +0.231 C 
ATOM      3  O   UNL     1       1.142   0.213  -3.662  0.00  0.00    -0.274 OA
ENDROOT
BRANCH   2   4
ATOM      4  C   UNL     1       2.925  -0.651  -4.944  0.00  0.00    +0.123 C 
ATOM      5  C   UNL     1       2.587  -2.132  -5.125  0.00  0.00    -0.054 C 
ATOM      6  N   UNL     1       3.179  -2.621  -6.377  0.00  0.00    +0.381 N 
ATOM      7  C   UNL     1       2.625  -1.866  -7.509  0.00  0.00    -0.067 C 
ATOM      8  C   UNL     1       2.964  -0.383  -7.348  0.00  0.00    +0.062 C 
ATOM      9  N   UNL     1       2.400   0.112  -6.085  0.00  0.00    -0.309 NA
ATOM     10  H   UNL     1       4.179  -2.496  -6.347  0.00  0.00    -0.086 HD
ATOM     11  H   UNL     1       1.391   0.085  -6.104  0.00  0.00    +0.123 HD
ATOM     12  H   UNL     1       2.966  -3.600  -6.490  0.00  0.00    -0.086 HD
ENDBRANCH   2   4
BRANCH   1  16
ATOM     13  C   UNL     1       0.025   1.106   0.245  0.00  0.00    +0.000 C 
ATOM     14  C   UNL     1       1.170   2.078  -0.045  0.00  0.00    +0.002 C 
ATOM     15  C   UNL     1       1.839   1.698  -1.368  0.00  0.00    +0.022 C 
ATOM     16  C   UNL     1       2.390   0.274  -1.270  0.00  0.00    +0.076 C 
ATOM     17  C   UNL     1       1.245  -0.698  -0.981  0.00  0.00    +0.022 C 
ATOM     18  C   UNL     1       0.577  -0.318   0.342  0.00  0.00    +0.002 C 
ENDBRANCH   1  16
BRANCH   1  19
ATOM     19  C   UNL     1       4.463  -0.393  -2.573  0.00  0.00    +0.076 C 
ATOM     20  C   UNL     1       5.173   0.605  -3.490  0.00  0.00    +0.022 C 
ATOM     21  C   UNL     1       6.669   0.288  -3.528  0.00  0.00    +0.002 C 
ATOM     22  C   UNL     1       6.877  -1.131  -4.061  0.00  0.00    +0.000 C 
ATOM     23  C   UNL     1       6.167  -2.129  -3.144  0.00  0.00    +0.002 C 
ATOM     24  C   UNL     1       4.671  -1.812  -3.107  0.00  0.00    +0.022 C 
ENDBRANCH   1  19
TORSDOF 3
