REMARK  Name = ZINC40267489
REMARK  10 active torsions:
REMARK  status: ('A' for Active; 'I' for Inactive)
REMARK    1  A    between atoms: C_1  and  C_2
REMARK    2  A    between atoms: C_2  and  C_3
REMARK    3  A    between atoms: C_2  and  N_4
REMARK    4  A    between atoms: C_11  and  N_15
REMARK    5  A    between atoms: C_16  and  C_18
REMARK    6  A    between atoms: N_20  and  C_21
REMARK    7  A    between atoms: C_23  and  C_29
REMARK    8  A    between atoms: C_23  and  C_30
REMARK    9  A    between atoms: C_25  and  C_27
REMARK   10  A    between atoms: C_25  and  C_28
REMARK                            x       y       z     vdW  Elec       q    Type
REMARK                         _______ _______ _______ _____ _____    ______ ____
ROOT
ATOM      1  N   UNL     1      -5.022   0.576   0.052  0.00  0.00    -0.292 N 
ATOM      2  C   UNL     1      -5.745   0.846   1.157  0.00  0.00    +0.300 C 
ATOM      3  O   UNL     1      -5.441   0.343   2.219  0.00  0.00    -0.265 OA
ATOM      4  H   UNL     1      -5.266   0.977  -0.797  0.00  0.00    +0.150 HD
ENDROOT
BRANCH   1  12
ATOM      5  N   UNL     1      -1.769   0.267  -0.598  0.00  0.00    -0.267 N 
ATOM      6  C   UNL     1      -2.319  -0.556  -1.581  0.00  0.00    +0.042 A 
ATOM      7  C   UNL     1      -1.798  -0.996  -2.797  0.00  0.00    +0.024 A 
ATOM      8  C   UNL     1      -2.546  -1.819  -3.613  0.00  0.00    +0.002 A 
ATOM      9  C   UNL     1      -3.817  -2.212  -3.234  0.00  0.00    +0.000 A 
ATOM     10  C   UNL     1      -4.341  -1.779  -2.029  0.00  0.00    +0.008 A 
ATOM     11  C   UNL     1      -3.596  -0.958  -1.212  0.00  0.00    +0.003 A 
ATOM     12  C   UNL     1      -3.869  -0.324   0.133  0.00  0.00    +0.192 C 
ATOM     13  C   UNL     1      -2.604   0.449   0.439  0.00  0.00    +0.245 C 
ATOM     14  O   UNL     1      -2.386   1.111   1.432  0.00  0.00    -0.273 OA
BRANCH   5  16
ATOM     15  C   UNL     1      -0.545   2.384  -0.635  0.00  0.00    +0.028 C 
ATOM     16  C   UNL     1      -0.431   0.859  -0.683  0.00  0.00    +0.075 C 
ATOM     17  C   UNL     1       0.417   0.373   0.494  0.00  0.00    +0.028 C 
ENDBRANCH   5  16
ENDBRANCH   1  12
BRANCH   2  18
ATOM     18  C   UNL     1      -6.922   1.763   1.075  0.00  0.00    +0.299 C 
ATOM     19  O   UNL     1      -7.226   2.266   0.013  0.00  0.00    -0.265 OA
ATOM     20  N   UNL     1      -7.645   2.033   2.179  0.00  0.00    -0.305 N 
ATOM     21  H   UNL     1      -7.401   1.632   3.028  0.00  0.00    +0.149 HD
BRANCH  20  22
ATOM     22  C   UNL     1      -8.801   2.935   2.098  0.00  0.00    +0.071 C 
ATOM     23  C   UNL     1     -10.040   2.129   1.704  0.00  0.00    +0.009 C 
ATOM     24  C   UNL     1     -11.255   3.053   1.628  0.00  0.00    -0.072 C 
ATOM     25  N   UNL     1     -11.448   3.808   2.857  0.00  0.00    +0.386 N 
ATOM     26  C   UNL     1     -10.285   4.454   3.442  0.00  0.00    -0.072 C 
ATOM     27  C   UNL     1      -9.050   3.559   3.471  0.00  0.00    +0.009 C 
ATOM     28  C   UNL     1     -10.635   4.799   4.910  0.00  0.00    -0.010 C 
ATOM     29  C   UNL     1      -9.956   5.774   2.740  0.00  0.00    -0.010 C 
ATOM     30  C   UNL     1     -11.152   3.962   0.404  0.00  0.00    -0.010 C 
ATOM     31  C   UNL     1     -12.500   2.157   1.430  0.00  0.00    -0.010 C 
ATOM     32  H   UNL     1     -12.162   4.521   2.687  0.00  0.00    -0.084 HD
ATOM     33  H   UNL     1     -11.856   3.183   3.557  0.00  0.00    -0.084 HD
ENDBRANCH  20  22
ENDBRANCH   2  18
TORSDOF 4
