REMARK  Name = ZINC18195758
REMARK  7 active torsions:
REMARK  status: ('A' for Active; 'I' for Inactive)
REMARK    1  A    between atoms: C_1  and  O_2
REMARK    2  A    between atoms: O_2  and  C_3
REMARK    3  A    between atoms: C_5  and  C_12
REMARK    4  A    between atoms: C_7  and  O_10
REMARK    5  A    between atoms: C_8  and  O_9
REMARK    6  A    between atoms: O_10  and  C_11
REMARK    7  A    between atoms: N_18  and  C_21
REMARK                            x       y       z     vdW  Elec       q    Type
REMARK                         _______ _______ _______ _____ _____    ______ ____
ROOT
ATOM      1  C   UNL     1      -4.871   0.264   0.038  0.00  0.00    +0.093 C 
ATOM      2  C   UNL     1      -5.682  -0.065  -1.184  0.00  0.00    +0.070 A 
ATOM      3  C   UNL     1      -6.822  -0.828  -1.128  0.00  0.00    +0.125 A 
ATOM      4  N   UNL     1      -7.316  -0.945  -2.390  0.00  0.00    -0.277 N 
ATOM      5  H   UNL     1      -8.115  -1.433  -2.647  0.00  0.00    +0.189 HD
ATOM      6  N   UNL     1      -6.467  -0.235  -3.254  0.00  0.00    -0.218 N 
ATOM      7  C   UNL     1      -5.471   0.301  -2.514  0.00  0.00    +0.278 A 
ATOM      8  O   UNL     1      -4.552   0.983  -2.933  0.00  0.00    -0.265 OA
ATOM      9  N   UNL     1      -7.290  -1.331   0.062  0.00  0.00    -0.303 N 
ATOM     10  C   UNL     1      -6.786  -0.825   1.238  0.00  0.00    +0.017 C 
ATOM     11  C   UNL     1      -5.670  -0.071   1.280  0.00  0.00    +0.024 C 
ATOM     12  C   UNL     1      -5.193   0.448   2.500  0.00  0.00    +0.162 C 
ATOM     13  O   UNL     1      -4.176   1.114   2.505  0.00  0.00    -0.292 OA
ATOM     14  C   UNL     1      -5.912   0.197   3.796  0.00  0.00    +0.080 C 
ATOM     15  C   UNL     1      -7.402  -0.011   3.505  0.00  0.00    +0.014 C 
ATOM     16  C   UNL     1      -7.541  -1.159   2.505  0.00  0.00    +0.051 C 
ATOM     17  H   UNL     1      -7.963  -2.029   0.073  0.00  0.00    +0.153 HD
ENDROOT
BRANCH   1  20
ATOM     18  C   UNL     1      -1.201  -0.638   0.010  0.00  0.00    +0.165 A 
ATOM     19  C   UNL     1      -2.375   0.101   0.019  0.00  0.00    +0.054 A 
ATOM     20  C   UNL     1      -3.598  -0.543   0.028  0.00  0.00    -0.028 A 
ATOM     21  C   UNL     1      -3.657  -1.924   0.027  0.00  0.00    +0.054 A 
ATOM     22  C   UNL     1      -2.488  -2.670   0.017  0.00  0.00    +0.165 A 
ATOM     23  C   UNL     1      -1.256  -2.027   0.003  0.00  0.00    +0.201 A 
BRANCH  18  25
ATOM     24  C   UNL     1      -0.017   1.425   0.010  0.00  0.00    +0.277 C 
ATOM     25  O   UNL     1       0.002  -0.004   0.002  0.00  0.00    -0.491 OA
ENDBRANCH  18  25
BRANCH  23  26
ATOM     26  O   UNL     1      -0.106  -2.755  -0.012  0.00  0.00    -0.501 OA
ATOM     27  H   UNL     1       0.234  -2.970   0.867  0.00  0.00    +0.292 HD
ENDBRANCH  23  26
BRANCH  22  28
ATOM     28  O   UNL     1      -2.547  -4.028   0.017  0.00  0.00    -0.491 OA
ATOM     29  C   UNL     1      -3.847  -4.621   0.026  0.00  0.00    +0.277 C 
ENDBRANCH  22  28
ENDBRANCH   1  20
BRANCH   6  30
ATOM     30  C   UNL     1      -6.623  -0.106  -4.637  0.00  0.00    +0.067 A 
ATOM     31  C   UNL     1      -5.701   0.623  -5.377  0.00  0.00    +0.028 A 
ATOM     32  C   UNL     1      -5.858   0.748  -6.743  0.00  0.00    +0.002 A 
ATOM     33  C   UNL     1      -6.932   0.148  -7.375  0.00  0.00    +0.000 A 
ATOM     34  C   UNL     1      -7.852  -0.578  -6.642  0.00  0.00    +0.002 A 
ATOM     35  C   UNL     1      -7.697  -0.712  -5.276  0.00  0.00    +0.028 A 
ENDBRANCH   6  30
TORSDOF 5
