REMARK  Name = ZINC09256522
REMARK  12 active torsions:
REMARK  status: ('A' for Active; 'I' for Inactive)
REMARK    1  A    between atoms: C_1  and  C_2
REMARK    2  A    between atoms: C_3  and  C_32
REMARK    3  A    between atoms: C_4  and  C_31
REMARK    4  A    between atoms: C_7  and  C_8
REMARK    5  A    between atoms: C_8  and  C_10
REMARK    6  A    between atoms: C_10  and  C_12
REMARK    7  A    between atoms: C_10  and  N_57
REMARK    8  A    between atoms: C_13  and  C_14
REMARK    9  A    between atoms: C_13  and  N_57
REMARK   10  A    between atoms: C_14  and  C_16
REMARK   11  A    between atoms: C_14  and  C_21
REMARK   12  A    between atoms: C_32  and  C_34
REMARK                            x       y       z     vdW  Elec       q    Type
REMARK                         _______ _______ _______ _____ _____    ______ ____
ROOT
ATOM      1  N   UNL     1      -0.758   3.084   2.285  0.00  0.00    +0.386 N 
ATOM      2  H   UNL     1      -1.599   3.296   2.834  0.00  0.00    -0.085 HD
ATOM      3  H   UNL     1      -0.792   3.595   1.395  0.00  0.00    -0.085 HD
ENDROOT
BRANCH   1   4
ATOM      4  C   UNL     1      -0.707   1.635   2.013  0.00  0.00    -0.001 C 
ATOM      5  C   UNL     1       0.110   1.382   0.745  0.00  0.00    -0.006 C 
BRANCH   4   6
ATOM      6  C   UNL     1      -2.110   1.119   1.819  0.00  0.00    +0.165 C 
ATOM      7  O   UNL     1      -3.006   1.889   1.540  0.00  0.00    -0.292 OA
BRANCH   6  14
ATOM      8  C   UNL     1      -4.910  -0.181   1.468  0.00  0.00    +0.047 C 
ATOM      9  C   UNL     1      -3.612  -0.864   1.812  0.00  0.00    -0.012 A 
ATOM     10  C   UNL     1      -3.422  -2.246   2.042  0.00  0.00    +0.041 A 
ATOM     11  C   UNL     1      -2.076  -2.431   2.325  0.00  0.00    +0.024 A 
ATOM     12  N   UNL     1      -1.459  -1.243   2.269  0.00  0.00    -0.355 N 
ATOM     13  H   UNL     1      -0.513  -1.094   2.424  0.00  0.00    +0.166 HD
ATOM     14  C   UNL     1      -2.382  -0.263   1.962  0.00  0.00    +0.084 A 
ATOM     15  C   UNL     1      -1.416  -3.750   2.635  0.00  0.00    +0.064 C 
BRANCH  10  16
ATOM     16  C   UNL     1      -4.453  -3.288   1.993  0.00  0.00    +0.162 C 
ATOM     17  O   UNL     1      -5.079  -3.570   2.993  0.00  0.00    -0.292 OA
ATOM     18  C   UNL     1      -4.734  -4.008   0.699  0.00  0.00    +0.091 C 
ENDBRANCH  10  16
ENDBRANCH   6  14
ENDBRANCH   4   6
ENDBRANCH   1   4
BRANCH   1  19
ATOM     19  C   UNL     1       0.436   3.505   3.043  0.00  0.00    -0.068 C 
BRANCH  19  20
ATOM     20  C   UNL     1       0.356   5.009   3.310  0.00  0.00    +0.041 C 
BRANCH  20  21
ATOM     21  C   UNL     1       1.627   5.470   3.975  0.00  0.00    -0.016 A 
ATOM     22  C   UNL     1       2.115   5.040   5.149  0.00  0.00    +0.087 A 
ATOM     23  N   UNL     1       3.289   5.684   5.431  0.00  0.00    -0.360 N 
ATOM     24  H   UNL     1       3.827   5.540   6.225  0.00  0.00    +0.165 HD
ATOM     25  C   UNL     1       3.593   6.566   4.418  0.00  0.00    +0.047 A 
ATOM     26  C   UNL     1       2.569   6.467   3.459  0.00  0.00    +0.003 A 
ATOM     27  C   UNL     1       2.616   7.251   2.306  0.00  0.00    +0.010 A 
ATOM     28  C   UNL     1       3.660   8.111   2.112  0.00  0.00    +0.001 A 
ATOM     29  C   UNL     1       4.675   8.210   3.053  0.00  0.00    +0.002 A 
ATOM     30  C   UNL     1       4.645   7.451   4.203  0.00  0.00    +0.026 A 
ENDBRANCH  20  21
BRANCH  20  31
ATOM     31  C   UNL     1      -0.816   5.297   4.213  0.00  0.00    -0.005 A 
ATOM     32  C   UNL     1      -1.902   6.075   3.981  0.00  0.00    +0.012 A 
ATOM     33  C   UNL     1      -2.864   6.194   4.966  0.00  0.00    +0.008 A 
ATOM     34  C   UNL     1      -2.694   5.530   6.135  0.00  0.00    +0.045 A 
ATOM     35  S   UNL     1      -1.138   4.697   5.863  0.00  0.00    -0.101 S 
ENDBRANCH  20  31
ENDBRANCH  19  20
ENDBRANCH   1  19
TORSDOF 8
