REMARK  Name = ZINC50224842
REMARK  6 active torsions:
REMARK  status: ('A' for Active; 'I' for Inactive)
REMARK    1  A    between atoms: C_1  and  C_2
REMARK    2  A    between atoms: C_2  and  N_9
REMARK    3  A    between atoms: C_10  and  C_12
REMARK    4  A    between atoms: C_12  and  N_13
REMARK    5  A    between atoms: C_15  and  C_18
REMARK    6  A    between atoms: C_18  and  N_19
REMARK                            x       y       z     vdW  Elec       q    Type
REMARK                         _______ _______ _______ _____ _____    ______ ____
ROOT
ATOM      1  N   UNL     1      -1.378  -0.491   0.059  0.00  0.00    -0.307 N 
ATOM      2  C   UNL     1      -2.254  -0.148  -0.907  0.00  0.00    +0.235 C 
ATOM      3  O   UNL     1      -1.899   0.564  -1.822  0.00  0.00    -0.274 OA
ATOM      4  H   UNL     1      -1.662  -1.060   0.791  0.00  0.00    +0.149 HD
ENDROOT
BRANCH   1   6
ATOM      5  C   UNL     1      -0.019   1.526   0.010  0.00  0.00    +0.033 C 
ATOM      6  C   UNL     1       0.002  -0.004   0.002  0.00  0.00    +0.053 C 
ATOM      7  C   UNL     1       0.632  -0.478  -1.307  0.00  0.00    +0.049 C 
ATOM      8  C   UNL     1       2.169  -0.637  -1.140  0.00  0.00    +0.168 C 
ATOM      9  S   UNL     1       2.220  -1.358   0.560  0.00  0.00    -0.029 S 
ATOM     10  O   UNL     1       1.951  -2.751   0.484  0.00  0.00    -0.174 OA
ATOM     11  O   UNL     1       3.390  -0.903   1.225  0.00  0.00    -0.174 OA
ATOM     12  C   UNL     1       0.751  -0.495   1.257  0.00  0.00    +0.191 C 
ENDBRANCH   1   6
BRANCH   2  13
ATOM     13  C   UNL     1      -3.674  -0.649  -0.849  0.00  0.00    +0.240 C 
BRANCH  13  14
ATOM     14  N   UNL     1      -4.419  -0.141  -2.003  0.00  0.00    -0.243 N 
ATOM     15  C   UNL     1      -5.106  -0.890  -2.896  0.00  0.00    +0.132 A 
ATOM     16  C   UNL     1      -5.636  -0.022  -3.789  0.00  0.00    +0.066 A 
ATOM     17  N   UNL     1      -5.253   1.201  -3.403  0.00  0.00    -0.136 NA
ATOM     18  N   UNL     1      -4.538   1.096  -2.338  0.00  0.00    -0.065 NA
BRANCH  16  19
ATOM     19  C   UNL     1      -6.489  -0.364  -4.983  0.00  0.00    -0.027 C 
BRANCH  19  20
ATOM     20  N   UNL     1      -7.908  -0.250  -4.620  0.00  0.00    +0.382 N 
ATOM     21  H   UNL     1      -8.105   0.695  -4.325  0.00  0.00    -0.090 HD
ATOM     22  H   UNL     1      -8.479  -0.479  -5.419  0.00  0.00    -0.090 HD
ATOM     23  H   UNL     1      -8.114  -0.887  -3.865  0.00  0.00    -0.090 HD
ENDBRANCH  19  20
ENDBRANCH  16  19
ENDBRANCH  13  14
ENDBRANCH   2  13
TORSDOF 5
