REMARK  Name = ZINC64369649
REMARK  7 active torsions:
REMARK  status: ('A' for Active; 'I' for Inactive)
REMARK    1  A    between atoms: C_1  and  C_2
REMARK    2  A    between atoms: C_4  and  N_21
REMARK    3  A    between atoms: C_7  and  C_9
REMARK    4  A    between atoms: N_11  and  C_12
REMARK    5  A    between atoms: N_21  and  C_22
REMARK    6  A    between atoms: C_22  and  C_23
REMARK    7  A    between atoms: C_29  and  C_31
REMARK                            x       y       z     vdW  Elec       q    Type
REMARK                         _______ _______ _______ _____ _____    ______ ____
ROOT
ATOM      1  C   UNL     1       1.056   0.152  -1.134  0.00  0.00    +0.062 C 
ATOM      2  C   UNL     1       0.029   1.128  -1.648  0.00  0.00    +0.021 C 
ATOM      3  N   UNL     1       0.047   1.463  -2.955  0.00  0.00    -0.320 N 
ATOM      4  C   UNL     1      -0.986   2.424  -3.397  0.00  0.00    +0.226 C 
ATOM      5  S   UNL     1      -1.864   2.717  -1.807  0.00  0.00    -0.077 S 
ATOM      6  C   UNL     1      -0.879   1.633  -0.785  0.00  0.00    +0.089 C 
ATOM      7  H   UNL     1       0.700   1.094  -3.570  0.00  0.00    +0.148 HD
ENDROOT
BRANCH   6   8
ATOM      8  C   UNL     1      -1.020   1.358   0.644  0.00  0.00    +0.255 C 
ATOM      9  O   UNL     1      -0.256   0.586   1.194  0.00  0.00    -0.269 OA
ATOM     10  N   UNL     1      -1.996   1.960   1.352  0.00  0.00    -0.274 N 
ATOM     11  H   UNL     1      -2.605   2.575   0.914  0.00  0.00    +0.153 HD
BRANCH  10  12
ATOM     12  C   UNL     1      -2.138   1.685   2.784  0.00  0.00    +0.269 C 
ATOM     13  N   UNL     1      -2.797   0.389   2.986  0.00  0.00    -0.348 N 
ATOM     14  C   UNL     1      -3.901   0.610   3.638  0.00  0.00    +0.061 A 
ATOM     15  C   UNL     1      -4.968  -0.276   4.125  0.00  0.00    +0.027 A 
ATOM     16  C   UNL     1      -6.019   0.250   4.787  0.00  0.00    +0.002 A 
ATOM     17  C   UNL     1      -6.143   1.628   5.039  0.00  0.00    +0.002 A 
ATOM     18  C   UNL     1      -5.223   2.526   4.636  0.00  0.00    +0.027 A 
ATOM     19  C   UNL     1      -4.033   2.068   3.905  0.00  0.00    +0.061 A 
ATOM     20  N   UNL     1      -3.006   2.692   3.407  0.00  0.00    -0.348 N 
ATOM     21  H   UNL     1      -2.470  -0.474   2.687  0.00  0.00    +0.163 HD
ATOM     22  H   UNL     1      -2.843   3.648   3.441  0.00  0.00    +0.163 HD
ENDBRANCH  10  12
ENDBRANCH   6   8
BRANCH   4  23
ATOM     23  N   UNL     1      -0.380   3.658  -3.905  0.00  0.00    -0.272 N 
ATOM     24  C   UNL     1       0.485   4.350  -3.137  0.00  0.00    +0.215 C 
ATOM     25  O   UNL     1       0.834   3.904  -2.065  0.00  0.00    -0.276 OA
ATOM     26  C   UNL     1       1.018   5.677  -3.611  0.00  0.00    +0.109 C 
BRANCH  23  27
ATOM     27  C   UNL     1      -0.714   4.139  -5.248  0.00  0.00    +0.142 C 
BRANCH  27  28
ATOM     28  C   UNL     1      -1.987   4.985  -5.184  0.00  0.00    +0.136 C 
ATOM     29  C   UNL     1      -2.414   5.396  -6.610  0.00  0.00    +0.035 C 
ATOM     30  C   UNL     1      -2.898   6.857  -6.401  0.00  0.00    +0.031 C 
ATOM     31  C   UNL     1      -1.928   7.332  -5.290  0.00  0.00    +0.160 C 
ATOM     32  O   UNL     1      -1.736   6.185  -4.443  0.00  0.00    -0.375 OA
ENDBRANCH  27  28
ENDBRANCH  23  27
ENDBRANCH   4  23
TORSDOF 5
