REMARK  Name = ZINC37313465
REMARK  7 active torsions:
REMARK  status: ('A' for Active; 'I' for Inactive)
REMARK    1  A    between atoms: C_1  and  C_2
REMARK    2  A    between atoms: C_4  and  C_22
REMARK    3  A    between atoms: C_6  and  C_21
REMARK    4  A    between atoms: C_7  and  C_8
REMARK    5  A    between atoms: C_8  and  C_10
REMARK    6  A    between atoms: C_8  and  N_11
REMARK    7  A    between atoms: N_11  and  C_12
REMARK                            x       y       z     vdW  Elec       q    Type
REMARK                         _______ _______ _______ _____ _____    ______ ____
ROOT
ATOM      1  C   UNL     1      -0.213   0.009   2.498  0.00  0.00    +0.099 C 
ATOM      2  C   UNL     1       1.149   0.222   3.162  0.00  0.00    +0.033 C 
ENDROOT
BRANCH   1   9
ATOM      3  C   UNL     1       0.372  -2.852   2.533  0.00  0.00    +0.044 C 
ATOM      4  C   UNL     1       0.247  -2.108   1.228  0.00  0.00    -0.042 A 
ATOM      5  C   UNL     1       0.401  -2.767   0.018  0.00  0.00    +0.024 A 
ATOM      6  C   UNL     1       0.279  -2.052  -1.159  0.00  0.00    +0.013 A 
ATOM      7  N   UNL     1       0.020  -0.759  -1.139  0.00  0.00    -0.362 N 
ATOM      8  C   UNL     1      -0.133  -0.100  -0.007  0.00  0.00    +0.018 A 
ATOM      9  C   UNL     1      -0.031  -0.750   1.209  0.00  0.00    -0.006 A 
ATOM     10  C   UNL     1      -0.427   1.377  -0.039  0.00  0.00    +0.063 C 
ATOM     11  C   UNL     1       0.445  -2.758  -2.480  0.00  0.00    +0.063 C 
ATOM     12  H   UNL     1      -0.060  -0.281  -1.978  0.00  0.00    +0.165 HD
ENDBRANCH   1   9
BRANCH   1  13
ATOM     13  N   UNL     1      -1.081  -0.755   3.397  0.00  0.00    -0.337 N 
ATOM     14  H   UNL     1      -1.236  -1.699   3.235  0.00  0.00    +0.147 HD
BRANCH  13  15
ATOM     15  C   UNL     1      -1.687  -0.125   4.489  0.00  0.00    +0.028 A 
ATOM     16  C   UNL     1      -1.473   1.228   4.721  0.00  0.00    +0.026 A 
ATOM     17  C   UNL     1      -2.072   1.852   5.795  0.00  0.00    +0.048 A 
ATOM     18  C   UNL     1      -2.897   1.133   6.656  0.00  0.00    +0.124 A 
ATOM     19  C   UNL     1      -3.100  -0.221   6.421  0.00  0.00    -0.001 A 
ATOM     20  C   UNL     1      -2.511  -0.846   5.344  0.00  0.00    +0.030 A 
ATOM     21  C   UNL     1      -4.009  -0.733   7.521  0.00  0.00    +0.080 C 
ATOM     22  C   UNL     1      -3.928   0.410   8.561  0.00  0.00    +0.234 C 
ATOM     23  O   UNL     1      -3.587   1.550   7.754  0.00  0.00    -0.491 OA
ENDBRANCH  13  15
ENDBRANCH   1  13
TORSDOF 3
