REMARK  Name = ZINC41466568
REMARK  10 active torsions:
REMARK  status: ('A' for Active; 'I' for Inactive)
REMARK    1  A    between atoms: C_1  and  C_2
REMARK    2  A    between atoms: C_2  and  C_3
REMARK    3  A    between atoms: C_3  and  C_5
REMARK    4  A    between atoms: C_3  and  C_6
REMARK    5  A    between atoms: C_9  and  C_12
REMARK    6  A    between atoms: C_12  and  C_14
REMARK    7  A    between atoms: C_12  and  C_16
REMARK    8  A    between atoms: C_14  and  N_15
REMARK    9  A    between atoms: C_16  and  N_17
REMARK   10  A    between atoms: N_20  and  C_23
REMARK                            x       y       z     vdW  Elec       q    Type
REMARK                         _______ _______ _______ _____ _____    ______ ____
ROOT
ATOM      1  C   UNL     1       0.437  -6.192  -1.557  0.00  0.00    +0.015 C 
ENDROOT
BRANCH   1   5
ATOM      2  C   UNL     1       0.128  -1.932  -1.525  0.00  0.00    -0.045 A 
ATOM      3  C   UNL     1       0.772  -2.586  -0.492  0.00  0.00    +0.004 A 
ATOM      4  C   UNL     1       0.872  -3.965  -0.502  0.00  0.00    +0.004 A 
ATOM      5  C   UNL     1       0.328  -4.690  -1.546  0.00  0.00    -0.045 A 
ATOM      6  C   UNL     1      -0.317  -4.036  -2.579  0.00  0.00    +0.004 A 
ATOM      7  C   UNL     1      -0.421  -2.657  -2.566  0.00  0.00    +0.004 A 
BRANCH   2   8
ATOM      8  C   UNL     1       0.019  -0.429  -1.514  0.00  0.00    +0.016 C 
ATOM      9  C   UNL     1       1.421   0.184  -1.512  0.00  0.00    +0.012 C 
BRANCH   8  11
ATOM     10  C   UNL     1      -0.954   1.532  -0.309  0.00  0.00    +0.004 C 
ATOM     11  C   UNL     1      -0.734   0.018  -0.260  0.00  0.00    +0.004 C 
ENDBRANCH   8  11
ENDBRANCH   2   8
ENDBRANCH   1   5
BRANCH   1  12
ATOM     12  C   UNL     1       1.196  -6.639  -2.809  0.00  0.00    -0.077 C 
BRANCH  12  13
ATOM     13  N   UNL     1       2.583  -6.159  -2.738  0.00  0.00    +0.379 N 
ATOM     14  H   UNL     1       2.587  -5.151  -2.683  0.00  0.00    -0.090 HD
ATOM     15  H   UNL     1       3.030  -6.542  -1.919  0.00  0.00    -0.090 HD
ATOM     16  H   UNL     1       3.083  -6.453  -3.563  0.00  0.00    -0.090 HD
ENDBRANCH  12  13
ENDBRANCH   1  12
BRANCH   1  17
ATOM     17  C   UNL     1      -0.964  -6.806  -1.565  0.00  0.00    +0.090 C 
BRANCH  17  18
ATOM     18  N   UNL     1      -0.859  -8.269  -1.479  0.00  0.00    -0.305 NA
ATOM     19  C   UNL     1      -2.096  -8.914  -1.940  0.00  0.00    +0.066 C 
ATOM     20  C   UNL     1      -1.924 -10.434  -1.891  0.00  0.00    -0.064 C 
ATOM     21  N   UNL     1      -1.619 -10.848  -0.515  0.00  0.00    +0.379 N 
ATOM     22  C   UNL     1      -0.367 -10.215  -0.078  0.00  0.00    -0.064 C 
ATOM     23  C   UNL     1      -0.526  -8.694  -0.112  0.00  0.00    +0.066 C 
ATOM     24  C   UNL     1      -1.471 -12.309  -0.466  0.00  0.00    -0.096 C 
ATOM     25  H   UNL     1      -2.370 -10.566   0.096  0.00  0.00    -0.082 HD
ENDBRANCH  17  18
ENDBRANCH   1  17
TORSDOF 7
