REMARK  Name = ZINC09043918
REMARK  6 active torsions:
REMARK  status: ('A' for Active; 'I' for Inactive)
REMARK    1  A    between atoms: C_1  and  C_2
REMARK    2  A    between atoms: C_2  and  C_3
REMARK    3  A    between atoms: C_3  and  C_4
REMARK    4  A    between atoms: C_4  and  C_5
REMARK    5  A    between atoms: C_17  and  C_20
REMARK    6  A    between atoms: C_17  and  C_21
REMARK                            x       y       z     vdW  Elec       q    Type
REMARK                         _______ _______ _______ _____ _____    ______ ____
ROOT
ATOM      1  C   UNL     1      -2.826  -2.585   0.015  0.00  0.00    +0.049 A 
ATOM      2  C   UNL     1      -3.452  -2.821   1.236  0.00  0.00    +0.003 A 
ATOM      3  C   UNL     1      -4.734  -3.291   1.250  0.00  0.00    -0.024 A 
ATOM      4  C   UNL     1      -5.372  -3.525   0.026  0.00  0.00    +0.063 A 
ATOM      5  C   UNL     1      -6.697  -4.014  -0.356  0.00  0.00    +0.147 A 
ATOM      6  N   UNL     1      -6.747  -4.029  -1.662  0.00  0.00    -0.157 NA
ATOM      7  N   UNL     1      -5.535  -3.579  -2.194  0.00  0.00    -0.258 N 
ATOM      8  H   UNL     1      -5.332  -3.502  -3.139  0.00  0.00    +0.191 HD
ATOM      9  C   UNL     1      -4.680  -3.266  -1.173  0.00  0.00    +0.158 A 
ATOM     10  N   UNL     1      -3.438  -2.800  -1.128  0.00  0.00    -0.232 NA
ATOM     11  N   UNL     1      -7.720  -4.395   0.515  0.00  0.00    -0.341 N 
ATOM     12  C   UNL     1      -5.467  -3.553   2.538  0.00  0.00    +0.070 C 
ATOM     13  C   UNL     1      -4.470  -3.629   3.695  0.00  0.00    +0.068 C 
ATOM     14  O   UNL     1      -3.598  -2.495   3.616  0.00  0.00    -0.369 OA
ATOM     15  C   UNL     1      -2.697  -2.555   2.510  0.00  0.00    +0.197 C 
ATOM     16  C   UNL     1      -5.223  -3.608   5.027  0.00  0.00    +0.041 C 
ATOM     17  C   UNL     1      -3.651  -4.917   3.586  0.00  0.00    +0.041 C 
ATOM     18  H   UNL     1      -7.583  -4.347   1.474  0.00  0.00    +0.144 HD
ATOM     19  H   UNL     1      -8.567  -4.708   0.161  0.00  0.00    +0.144 HD
ENDROOT
BRANCH   1  20
ATOM     20  C   UNL     1      -1.413  -2.063   0.004  0.00  0.00    +0.056 C 
BRANCH  20  21
ATOM     21  C   UNL     1      -1.433  -0.534   0.013  0.00  0.00    +0.006 C 
BRANCH  21  23
ATOM     22  C   UNL     1      -0.019   1.526   0.010  0.00  0.00    +0.004 C 
ATOM     23  C   UNL     1       0.002  -0.004   0.002  0.00  0.00    -0.003 C 
ENDBRANCH  21  23
ENDBRANCH  20  21
ENDBRANCH   1  20
TORSDOF 3
