REMARK  Name = ZINC63073259
REMARK  9 active torsions:
REMARK  status: ('A' for Active; 'I' for Inactive)
REMARK    1  A    between atoms: C_1  and  C_2
REMARK    2  A    between atoms: C_2  and  C_3
REMARK    3  A    between atoms: C_3  and  C_4
REMARK    4  A    between atoms: C_8  and  N_21
REMARK    5  A    between atoms: C_10  and  C_13
REMARK    6  A    between atoms: C_13  and  N_14
REMARK    7  A    between atoms: C_18  and  C_19
REMARK    8  A    between atoms: C_18  and  C_20
REMARK    9  A    between atoms: N_21  and  C_22
REMARK                            x       y       z     vdW  Elec       q    Type
REMARK                         _______ _______ _______ _____ _____    ______ ____
ROOT
ATOM      1  C   UNL     1       0.763  -2.041   1.233  0.00  0.00    -0.011 C 
ATOM      2  C   UNL     1      -0.666  -2.571   1.370  0.00  0.00    +0.002 C 
ATOM      3  C   UNL     1      -0.645  -4.101   1.361  0.00  0.00    -0.015 C 
ATOM      4  C   UNL     1       0.200  -4.606   2.532  0.00  0.00    -0.071 C 
ATOM      5  C   UNL     1       1.629  -4.076   2.396  0.00  0.00    -0.042 C 
ATOM      6  C   UNL     1       1.608  -2.546   2.404  0.00  0.00    +0.003 C 
ENDROOT
BRANCH   4   7
ATOM      7  N   UNL     1       0.220  -6.075   2.524  0.00  0.00    +0.379 N 
ATOM      8  C   UNL     1      -1.135  -6.584   2.775  0.00  0.00    -0.100 C 
ATOM      9  H   UNL     1       0.542  -6.402   1.625  0.00  0.00    -0.086 HD
ATOM     10  H   UNL     1       0.843  -6.407   3.245  0.00  0.00    -0.086 HD
ENDBRANCH   4   7
BRANCH   1  11
ATOM     11  C   UNL     1       0.742  -0.511   1.242  0.00  0.00    +0.003 C 
BRANCH  11  13
ATOM     12  C   UNL     1      -0.019   1.526   0.010  0.00  0.00    +0.004 C 
ATOM     13  C   UNL     1       0.002  -0.004   0.002  0.00  0.00    -0.003 C 
ENDBRANCH  11  13
ENDBRANCH   1  11
BRANCH   5  14
ATOM     14  C   UNL     1       2.474  -4.581   3.567  0.00  0.00    -0.076 C 
BRANCH  14  15
ATOM     15  N   UNL     1       3.872  -4.172   3.373  0.00  0.00    +0.383 N 
ATOM     16  C   UNL     1       4.432  -4.857   2.189  0.00  0.00    -0.078 C 
ATOM     17  C   UNL     1       5.907  -5.151   2.562  0.00  0.00    -0.020 C 
ATOM     18  C   UNL     1       5.786  -5.498   4.069  0.00  0.00    -0.014 C 
ATOM     19  C   UNL     1       4.668  -4.551   4.555  0.00  0.00    -0.071 C 
ATOM     20  C   UNL     1       3.780  -5.273   5.571  0.00  0.00    -0.010 C 
ATOM     21  C   UNL     1       5.283  -3.303   5.191  0.00  0.00    -0.010 C 
ATOM     22  H   UNL     1       3.919  -3.173   3.239  0.00  0.00    -0.081 HD
ENDBRANCH  14  15
ENDBRANCH   5  14
TORSDOF 5
