REMARK  Name = ZINC13033858
REMARK  8 active torsions:
REMARK  status: ('A' for Active; 'I' for Inactive)
REMARK    1  A    between atoms: C_1  and  C_2
REMARK    2  A    between atoms: C_2  and  C_4
REMARK    3  A    between atoms: C_2  and  S_11
REMARK    4  A    between atoms: N_9  and  C_10
REMARK    5  A    between atoms: S_11  and  C_12
REMARK    6  A    between atoms: C_15  and  C_20
REMARK    7  A    between atoms: N_16  and  C_17
REMARK    8  A    between atoms: C_17  and  C_18
REMARK                            x       y       z     vdW  Elec       q    Type
REMARK                         _______ _______ _______ _____ _____    ______ ____
ROOT
ATOM      1  C   UNL     1      -3.190   0.575  -1.053  0.00  0.00    +0.193 A 
ATOM      2  N   UNL     1      -3.944  -0.415  -0.630  0.00  0.00    -0.122 NA
ATOM      3  N   UNL     1      -3.826  -0.547   0.642  0.00  0.00    -0.128 NA
ATOM      4  C   UNL     1      -2.986   0.346   1.110  0.00  0.00    +0.165 A 
ATOM      5  N   UNL     1      -2.550   1.090   0.038  0.00  0.00    -0.291 N 
ENDROOT
BRANCH   4   6
ATOM      6  C   UNL     1      -2.585   0.521   2.522  0.00  0.00    +0.019 A 
ATOM      7  C   UNL     1      -1.419   1.219   2.838  0.00  0.00    +0.013 A 
ATOM      8  C   UNL     1      -1.052   1.382   4.158  0.00  0.00    +0.021 A 
ATOM      9  C   UNL     1      -1.834   0.847   5.168  0.00  0.00    +0.041 A 
ATOM     10  C   UNL     1      -2.990   0.149   4.861  0.00  0.00    +0.021 A 
ATOM     11  C   UNL     1      -3.369  -0.017   3.545  0.00  0.00    +0.013 A 
ATOM     12 CL   UNL     1      -1.363   1.051   6.826  0.00  0.00    -0.084 Cl
ENDBRANCH   4   6
BRANCH   1  13
ATOM     13  S   UNL     1      -3.031   1.131  -2.717  0.00  0.00    -0.073 S 
BRANCH  13  15
ATOM     14  C   UNL     1      -3.610  -1.443  -3.424  0.00  0.00    +0.029 C 
ATOM     15  C   UNL     1      -4.158  -0.020  -3.542  0.00  0.00    +0.137 C 
BRANCH  15  16
ATOM     16  C   UNL     1      -4.279   0.353  -4.997  0.00  0.00    +0.233 C 
ATOM     17  O   UNL     1      -3.384   0.962  -5.544  0.00  0.00    -0.274 OA
ATOM     18  N   UNL     1      -5.382   0.009  -5.691  0.00  0.00    -0.239 N 
ATOM     19  C   UNL     1      -5.490   0.342  -6.993  0.00  0.00    +0.306 C 
ATOM     20  O   UNL     1      -4.594   0.952  -7.541  0.00  0.00    -0.252 OA
ATOM     21  N   UNL     1      -6.594  -0.002  -7.687  0.00  0.00    -0.302 N 
ATOM     22  C   UNL     1      -6.712   0.359  -9.101  0.00  0.00    +0.129 C 
ATOM     23  H   UNL     1      -6.098  -0.479  -5.254  0.00  0.00    +0.159 HD
ATOM     24  H   UNL     1      -7.309  -0.490  -7.250  0.00  0.00    +0.150 HD
ENDBRANCH  15  16
ENDBRANCH  13  15
ENDBRANCH   1  13
BRANCH   5  25
ATOM     25  C   UNL     1      -1.602   2.207   0.063  0.00  0.00    +0.250 C 
BRANCH  25  26
ATOM     26  C   UNL     1      -0.204   1.684  -0.149  0.00  0.00    +0.375 C 
ATOM     27  O   UNL     1      -0.019   0.500  -0.305  0.00  0.00    -0.244 OA
ATOM     28  O   UNL     1       0.834   2.534  -0.170  0.00  0.00    -0.244 OA
ENDBRANCH  25  26
ENDBRANCH   5  25
TORSDOF 6
