REMARK  Name = ZINC25503731
REMARK  6 active torsions:
REMARK  status: ('A' for Active; 'I' for Inactive)
REMARK    1  A    between atoms: C_1  and  C_2
REMARK    2  A    between atoms: C_2  and  C_4
REMARK    3  A    between atoms: C_2  and  N_17
REMARK    4  A    between atoms: N_6  and  C_7
REMARK    5  A    between atoms: C_8  and  C_15
REMARK    6  A    between atoms: C_23  and  C_25
REMARK                            x       y       z     vdW  Elec       q    Type
REMARK                         _______ _______ _______ _____ _____    ______ ____
ROOT
ATOM      1  C   UNL     1       1.408   1.624  -0.004  0.00  0.00    +0.204 C 
ATOM      2  O   UNL     1       1.785   2.321  -0.923  0.00  0.00    -0.277 OA
ATOM      3  N   UNL     1       2.256   1.313   0.997  0.00  0.00    -0.280 N 
ATOM      4  H   UNL     1       1.914   0.680   1.829  0.00  0.00    +0.155 HD
ENDROOT
BRANCH   3   5
ATOM      5  C   UNL     1       3.559   1.789   0.976  0.00  0.00    +0.090 A 
ATOM      6  C   UNL     1       4.565   1.580   1.902  0.00  0.00    +0.084 A 
ATOM      7  C   UNL     1       5.864   2.199   1.643  0.00  0.00    -0.018 A 
ATOM      8  C   UNL     1       5.937   2.921   0.510  0.00  0.00    -0.004 A 
ATOM      9  S   UNL     1       4.322   2.783  -0.217  0.00  0.00    -0.077 S 
ATOM     10  C   UNL     1       7.300   3.528   0.314  0.00  0.00    +0.043 C 
ATOM     11  C   UNL     1       7.965   3.446   1.706  0.00  0.00    +0.010 C 
ATOM     12  C   UNL     1       7.225   2.251   2.339  0.00  0.00    +0.037 C 
BRANCH   6  13
ATOM     13  C   UNL     1       4.343   0.786   3.073  0.00  0.00    +0.102 C 
ATOM     14  N   UNL     1       4.166   0.155   4.001  0.00  0.00    -0.191 NA
ENDBRANCH   6  13
ENDBRANCH   3   5
BRANCH   1  16
ATOM     15  C   UNL     1      -0.716   1.615   1.274  0.00  0.00    -0.004 C 
ATOM     16  C   UNL     1      -0.007   1.107   0.018  0.00  0.00    +0.017 C 
BRANCH  16  17
ATOM     17  N   UNL     1      -0.721   1.583  -1.175  0.00  0.00    +0.389 N 
ATOM     18  C   UNL     1      -0.771   3.051  -1.207  0.00  0.00    -0.058 C 
ATOM     19  C   UNL     1      -1.359   3.510  -2.545  0.00  0.00    +0.089 C 
ATOM     20  N   UNL     1      -2.653   2.838  -2.741  0.00  0.00    -0.305 N 
ATOM     21  C   UNL     1      -2.709   1.377  -2.589  0.00  0.00    +0.089 C 
ATOM     22  C   UNL     1      -2.068   1.002  -1.248  0.00  0.00    -0.058 C 
ATOM     23  C   UNL     1      -3.759   3.545  -3.052  0.00  0.00    +0.212 C 
ATOM     24  O   UNL     1      -3.718   4.756  -3.075  0.00  0.00    -0.276 OA
ATOM     25  C   UNL     1      -5.045   2.828  -3.371  0.00  0.00    +0.109 C 
ATOM     26  H   UNL     1      -0.163   1.248  -2.061  0.00  0.00    -0.081 HD
ENDBRANCH  16  17
ENDBRANCH   1  16
TORSDOF 4
