REMARK  Name = ZINC43287304
REMARK  10 active torsions:
REMARK  status: ('A' for Active; 'I' for Inactive)
REMARK    1  A    between atoms: C_1  and  C_2
REMARK    2  A    between atoms: C_2  and  C_4
REMARK    3  A    between atoms: C_2  and  N_20
REMARK    4  A    between atoms: C_4  and  C_6
REMARK    5  A    between atoms: C_4  and  N_12
REMARK    6  A    between atoms: N_12  and  C_13
REMARK    7  A    between atoms: N_12  and  C_17
REMARK    8  A    between atoms: C_13  and  C_14
REMARK    9  A    between atoms: C_17  and  C_18
REMARK   10  A    between atoms: C_17  and  C_19
REMARK                            x       y       z     vdW  Elec       q    Type
REMARK                         _______ _______ _______ _____ _____    ______ ____
ROOT
ATOM      1  C   UNL     1       0.665  -0.554   1.460  0.00  0.00    +0.080 C 
ENDROOT
BRANCH   1   2
ATOM      2  C   UNL     1       0.552  -1.963   1.982  0.00  0.00    +0.006 A 
ATOM      3  C   UNL     1       1.392  -3.011   1.799  0.00  0.00    +0.028 A 
ATOM      4  C   UNL     1       1.084  -4.227   2.380  0.00  0.00    +0.025 A 
ATOM      5  C   UNL     1      -0.051  -4.335   3.115  0.00  0.00    +0.060 A 
ATOM      6  S   UNL     1      -0.720  -2.684   3.008  0.00  0.00    -0.099 S 
ATOM      7 BR   UNL     1       2.226  -5.717   2.152  0.00  0.00    -0.050 Br
ENDBRANCH   1   2
BRANCH   1   9
ATOM      8  C   UNL     1      -0.172   1.058  -0.256  0.00  0.00    -0.012 C 
ATOM      9  C   UNL     1      -0.333  -0.351   0.318  0.00  0.00    -0.056 C 
BRANCH   9  10
ATOM     10  N   UNL     1      -0.077  -1.342  -0.736  0.00  0.00    +0.381 N 
ATOM     11  H   UNL     1       0.862  -1.226  -1.086  0.00  0.00    -0.090 HD
ATOM     12  H   UNL     1      -0.183  -2.271  -0.358  0.00  0.00    -0.090 HD
ATOM     13  H   UNL     1      -0.735  -1.208  -1.490  0.00  0.00    -0.090 HD
ENDBRANCH   9  10
ENDBRANCH   1   9
BRANCH   1  14
ATOM     14  N   UNL     1       0.368   0.394   2.543  0.00  0.00    -0.286 NA
BRANCH  14  15
ATOM     15  C   UNL     1       1.013   1.691   2.298  0.00  0.00    +0.052 C 
ATOM     16  C   UNL     1       0.536   2.703   3.341  0.00  0.00    +0.024 C 
ATOM     17  C   UNL     1       2.532   1.533   2.398  0.00  0.00    +0.024 C 
ENDBRANCH  14  15
BRANCH  14  18
ATOM     18  C   UNL     1      -1.081   0.552   2.723  0.00  0.00    +0.181 C 
BRANCH  18  19
ATOM     19  C   UNL     1      -1.373   0.912   4.156  0.00  0.00    +0.225 C 
ATOM     20  O   UNL     1      -0.480   0.909   4.976  0.00  0.00    -0.275 OA
ATOM     21  N   UNL     1      -2.627   1.236   4.527  0.00  0.00    -0.328 N 
ATOM     22  H   UNL     1      -3.342   1.239   3.872  0.00  0.00    +0.145 HD
ATOM     23  H   UNL     1      -2.816   1.468   5.450  0.00  0.00    +0.145 HD
ENDBRANCH  18  19
ENDBRANCH  14  18
ENDBRANCH   1  14
TORSDOF 7
