REMARK  Name = ZINC20889990
REMARK  11 active torsions:
REMARK  status: ('A' for Active; 'I' for Inactive)
REMARK    1  A    between atoms: C_3  and  N_29
REMARK    2  A    between atoms: C_4  and  C_10
REMARK    3  A    between atoms: C_6  and  N_7
REMARK    4  A    between atoms: C_10  and  O_12
REMARK    5  A    between atoms: O_12  and  C_13
REMARK    6  A    between atoms: C_13  and  C_14
REMARK    7  A    between atoms: N_16  and  C_17
REMARK    8  A    between atoms: C_18  and  C_27
REMARK    9  A    between atoms: N_29  and  C_30
REMARK   10  A    between atoms: C_30  and  C_31
REMARK   11  A    between atoms: C_31  and  O_32
REMARK                            x       y       z     vdW  Elec       q    Type
REMARK                         _______ _______ _______ _____ _____    ______ ____
ROOT
ATOM      1  O   UNL     1      -2.420   0.983   0.077  0.00  0.00    -0.452 OA
ENDROOT
BRANCH   1   2
ATOM      2  C   UNL     1      -3.671   1.482   0.056  0.00  0.00    +0.342 C 
ATOM      3  O   UNL     1      -3.845   2.685   0.048  0.00  0.00    -0.245 OA
BRANCH   2   7
ATOM      4  C   UNL     1      -7.006  -1.149   0.015  0.00  0.00    +0.034 A 
ATOM      5  C   UNL     1      -7.214   0.210   0.123  0.00  0.00    +0.026 A 
ATOM      6  C   UNL     1      -6.132   1.081   0.137  0.00  0.00    +0.041 A 
ATOM      7  C   UNL     1      -4.828   0.570   0.042  0.00  0.00    +0.082 A 
ATOM      8  C   UNL     1      -4.634  -0.809  -0.072  0.00  0.00    +0.049 A 
ATOM      9  C   UNL     1      -5.720  -1.657  -0.079  0.00  0.00    +0.127 A 
BRANCH   9  10
ATOM     10  N   UNL     1      -5.512  -3.118  -0.195  0.00  0.00    +0.056 N 
ATOM     11  O   UNL     1      -6.470  -3.871  -0.206  0.00  0.00    -0.126 OA
ATOM     12  O   UNL     1      -4.383  -3.568  -0.278  0.00  0.00    -0.126 OA
ENDBRANCH   9  10
BRANCH   6  13
ATOM     13  N   UNL     1      -6.339   2.450   0.245  0.00  0.00    -0.341 N 
ATOM     14  H   UNL     1      -5.489   3.143   0.163  0.00  0.00    +0.146 HD
BRANCH  13  15
ATOM     15  C   UNL     1      -7.690   2.971   0.469  0.00  0.00    +0.129 C 
BRANCH  15  16
ATOM     16  C   UNL     1      -7.641   4.498   0.549  0.00  0.00    +0.174 C 
BRANCH  16  17
ATOM     17  O   UNL     1      -7.235   5.029  -0.714  0.00  0.00    -0.393 OA
ATOM     18  H   UNL     1      -7.141   6.117  -0.849  0.00  0.00    +0.209 HD
ENDBRANCH  16  17
ENDBRANCH  15  16
ENDBRANCH  13  15
ENDBRANCH   6  13
ENDBRANCH   2   7
ENDBRANCH   1   2
BRANCH   1  19
ATOM     19  C   UNL     1      -1.328   1.940   0.090  0.00  0.00    +0.328 C 
BRANCH  19  20
ATOM     20  C   UNL     1      -0.014   1.203   0.113  0.00  0.00    +0.255 C 
ATOM     21  O   UNL     1       0.002  -0.009   0.119  0.00  0.00    -0.272 OA
ATOM     22  N   UNL     1       1.145   1.892   0.122  0.00  0.00    -0.276 N 
ATOM     23  H   UNL     1       1.131   2.992   0.118  0.00  0.00    +0.155 HD
BRANCH  22  24
ATOM     24  C   UNL     1       2.356   1.213   0.138  0.00  0.00    +0.090 A 
ATOM     25  C   UNL     1       3.637   1.739   0.144  0.00  0.00    +0.084 A 
ATOM     26  C   UNL     1       4.753   0.804   0.170  0.00  0.00    -0.018 A 
ATOM     27  C   UNL     1       4.403  -0.501   0.167  0.00  0.00    -0.004 A 
ATOM     28  S   UNL     1       2.631  -0.496   0.148  0.00  0.00    -0.077 S 
ATOM     29  C   UNL     1       5.310  -1.692   0.164  0.00  0.00    +0.043 C 
ATOM     30  C   UNL     1       6.377  -1.519   1.253  0.00  0.00    +0.005 C 
ATOM     31  C   UNL     1       7.572  -0.790   0.646  0.00  0.00    +0.001 C 
ATOM     32  C   UNL     1       7.101   0.195  -0.422  0.00  0.00    +0.005 C 
ATOM     33  C   UNL     1       6.206   1.263   0.197  0.00  0.00    +0.037 C 
BRANCH  25  34
ATOM     34  C   UNL     1       3.857   3.154   0.129  0.00  0.00    +0.102 C 
ATOM     35  N   UNL     1       4.031   4.276   0.117  0.00  0.00    -0.191 NA
ENDBRANCH  25  34
ENDBRANCH  22  24
ENDBRANCH  19  20
ENDBRANCH   1  19
TORSDOF 11
