REMARK  Name = ZINC20238849
REMARK  9 active torsions:
REMARK  status: ('A' for Active; 'I' for Inactive)
REMARK    1  A    between atoms: C_1  and  C_2
REMARK    2  A    between atoms: C_7  and  O_8
REMARK    3  A    between atoms: O_8  and  C_9
REMARK    4  A    between atoms: C_9  and  C_10
REMARK    5  A    between atoms: C_16  and  C_17
REMARK    6  A    between atoms: C_20  and  C_22
REMARK    7  A    between atoms: C_25  and  O_31
REMARK    8  A    between atoms: C_27  and  N_28
REMARK    9  A    between atoms: O_31  and  C_32
REMARK                            x       y       z     vdW  Elec       q    Type
REMARK                         _______ _______ _______ _____ _____    ______ ____
ROOT
ATOM      1  C   UNL     1       1.745  -0.027   4.902  0.00  0.00    +0.137 C 
ATOM      2  N   UNL     1       1.383   1.223   4.883  0.00  0.00    -0.166 NA
ATOM      3  N   UNL     1       1.062   1.892   6.045  0.00  0.00    -0.152 N 
ATOM      4  C   UNL     1       0.574   3.214   6.129  0.00  0.00    +0.153 C 
ATOM      5  N   UNL     1      -0.025   3.823   5.137  0.00  0.00    -0.283 NA
ATOM      6  C   UNL     1       0.807   3.846   7.454  0.00  0.00    +0.084 C 
ATOM      7  C   UNL     1       1.050   5.207   7.582  0.00  0.00    +0.063 C 
ATOM      8  C   UNL     1       0.767   2.948   8.630  0.00  0.00    +0.273 C 
ATOM      9  O   UNL     1       0.492   3.378   9.739  0.00  0.00    -0.268 OA
ATOM     10  N   UNL     1       1.042   1.642   8.442  0.00  0.00    -0.152 NA
ATOM     11  C   UNL     1       1.206   1.192   7.224  0.00  0.00    +0.181 C 
ATOM     12  S   UNL     1       1.672  -0.418   6.645  0.00  0.00    -0.035 S 
ATOM     13  H   UNL     1      -0.152   3.365   4.292  0.00  0.00    +0.188 HD
ENDROOT
BRANCH   7  14
ATOM     14  C   UNL     1       1.260   5.992   6.438  0.00  0.00    +0.129 A 
ATOM     15  C   UNL     1       1.379   7.375   6.411  0.00  0.00    +0.050 A 
ATOM     16  C   UNL     1       1.578   7.736   5.080  0.00  0.00    +0.050 A 
ATOM     17  C   UNL     1       1.575   6.571   4.340  0.00  0.00    +0.138 A 
ATOM     18  O   UNL     1       1.387   5.534   5.174  0.00  0.00    -0.455 OA
BRANCH  17  19
ATOM     19  C   UNL     1       1.752   6.479   2.879  0.00  0.00    +0.048 A 
ATOM     20  C   UNL     1       0.994   7.289   2.028  0.00  0.00    +0.017 A 
ATOM     21  C   UNL     1       1.163   7.200   0.664  0.00  0.00    +0.046 A 
ATOM     22  C   UNL     1       2.086   6.306   0.134  0.00  0.00    +0.122 A 
ATOM     23  C   UNL     1       2.841   5.499   0.975  0.00  0.00    +0.079 A 
ATOM     24  C   UNL     1       2.683   5.586   2.341  0.00  0.00    +0.140 A 
BRANCH  24  25
ATOM     25  N   UNL     1       3.494   4.730   3.237  0.00  0.00    +0.057 N 
ATOM     26  O   UNL     1       4.299   3.958   2.771  0.00  0.00    -0.126 OA
ATOM     27  O   UNL     1       3.351   4.803   4.436  0.00  0.00    -0.126 OA
ENDBRANCH  24  25
BRANCH  22  28
ATOM     28  O   UNL     1       2.249   6.221  -1.212  0.00  0.00    -0.495 OA
ATOM     29  C   UNL     1       1.441   7.080  -2.019  0.00  0.00    +0.277 C 
ENDBRANCH  22  28
ENDBRANCH  17  19
ENDBRANCH   7  14
BRANCH   1  30
ATOM     30  C   UNL     1       2.124  -0.920   3.748  0.00  0.00    +0.293 C 
BRANCH  30  31
ATOM     31  O   UNL     1       2.041  -0.181   2.527  0.00  0.00    -0.485 OA
BRANCH  31  38
ATOM     32  C   UNL     1       1.883   1.261   0.103  0.00  0.00    +0.047 C 
ATOM     33  C   UNL     1       2.294  -0.188   0.162  0.00  0.00    -0.009 A 
ATOM     34  C   UNL     1       2.617  -0.862  -1.000  0.00  0.00    +0.007 A 
ATOM     35  C   UNL     1       2.993  -2.191  -0.947  0.00  0.00    +0.000 A 
ATOM     36  C   UNL     1       3.047  -2.849   0.268  0.00  0.00    +0.004 A 
ATOM     37  C   UNL     1       2.725  -2.179   1.432  0.00  0.00    +0.046 A 
ATOM     38  C   UNL     1       2.353  -0.844   1.383  0.00  0.00    +0.124 A 
ENDBRANCH  31  38
ENDBRANCH  30  31
ENDBRANCH   1  30
TORSDOF 7
