REMARK  Name = ZINC67250418
REMARK  9 active torsions:
REMARK  status: ('A' for Active; 'I' for Inactive)
REMARK    1  A    between atoms: C_1  and  C_2
REMARK    2  A    between atoms: C_2  and  C_4
REMARK    3  A    between atoms: C_2  and  N_14
REMARK    4  A    between atoms: C_4  and  O_5
REMARK    5  A    between atoms: O_5  and  C_6
REMARK    6  A    between atoms: N_14  and  C_15
REMARK    7  A    between atoms: C_15  and  C_16
REMARK    8  A    between atoms: N_18  and  C_25
REMARK    9  A    between atoms: N_21  and  C_24
REMARK                            x       y       z     vdW  Elec       q    Type
REMARK                         _______ _______ _______ _____ _____    ______ ____
ROOT
ATOM      1  N   UNL     1      -1.376  -0.512   0.012  0.00  0.00    +0.386 N 
ATOM      2  H   UNL     1      -1.363  -1.518   0.090  0.00  0.00    -0.085 HD
ATOM      3  H   UNL     1      -1.873  -0.121   0.799  0.00  0.00    -0.085 HD
ENDROOT
BRANCH   1   5
ATOM      4  C   UNL     1      -0.019   1.526   0.010  0.00  0.00    -0.010 C 
ATOM      5  C   UNL     1       0.002  -0.004   0.002  0.00  0.00    -0.036 C 
BRANCH   5   6
ATOM      6  C   UNL     1       0.742  -0.511   1.242  0.00  0.00    +0.213 C 
BRANCH   6   7
ATOM      7  O   UNL     1       0.143   0.044   2.414  0.00  0.00    -0.491 OA
BRANCH   7   8
ATOM      8  C   UNL     1       0.685  -0.308   3.611  0.00  0.00    +0.156 A 
ATOM      9  C   UNL     1       1.774  -1.165   3.653  0.00  0.00    +0.051 A 
ATOM     10  C   UNL     1       2.325  -1.522   4.869  0.00  0.00    +0.042 A 
ATOM     11  C   UNL     1       1.790  -1.026   6.046  0.00  0.00    +0.126 A 
ATOM     12  C   UNL     1       0.702  -0.170   6.006  0.00  0.00    +0.080 A 
ATOM     13  C   UNL     1       0.153   0.195   4.790  0.00  0.00    +0.168 A 
ATOM     14  F   UNL     1      -0.905   1.035   4.751  0.00  0.00    -0.202 F 
ATOM     15  F   UNL     1       2.329  -1.377   7.234  0.00  0.00    -0.205 F 
ENDBRANCH   7   8
ENDBRANCH   6   7
ENDBRANCH   5   6
ENDBRANCH   1   5
BRANCH   1  16
ATOM     16  C   UNL     1      -2.050  -0.126  -1.234  0.00  0.00    -0.039 C 
BRANCH  16  17
ATOM     17  C   UNL     1      -3.464  -0.648  -1.224  0.00  0.00    +0.016 A 
ATOM     18  C   UNL     1      -4.481   0.141  -0.817  0.00  0.00    +0.097 A 
ATOM     19  N   UNL     1      -5.759  -0.348  -0.813  0.00  0.00    -0.303 N 
ATOM     20  C   UNL     1      -6.011  -1.609  -1.211  0.00  0.00    +0.331 A 
ATOM     21  O   UNL     1      -7.154  -2.023  -1.200  0.00  0.00    -0.246 OA
ATOM     22  N   UNL     1      -5.016  -2.417  -1.622  0.00  0.00    -0.264 N 
ATOM     23  C   UNL     1      -3.744  -1.970  -1.646  0.00  0.00    +0.258 A 
ATOM     24  O   UNL     1      -2.844  -2.699  -2.022  0.00  0.00    -0.267 OA
ATOM     25  C   UNL     1      -5.317  -3.785  -2.050  0.00  0.00    +0.157 C 
ATOM     26  C   UNL     1      -6.863   0.508  -0.372  0.00  0.00    +0.153 C 
ENDBRANCH  16  17
ENDBRANCH   1  16
TORSDOF 6
