REMARK  Name = ZINC61639773
REMARK  3 active torsions:
REMARK  status: ('A' for Active; 'I' for Inactive)
REMARK    1  A    between atoms: N_5  and  C_8
REMARK    2  A    between atoms: C_8  and  C_9
REMARK    3  A    between atoms: C_13  and  N_15
REMARK                            x       y       z     vdW  Elec       q    Type
REMARK                         _______ _______ _______ _____ _____    ______ ____
ROOT
ATOM      1  C   UNL     1       3.934  -1.128   1.379  0.00  0.00    +0.083 A 
ATOM      2  C   UNL     1       4.780  -0.244   2.021  0.00  0.00    +0.064 A 
ATOM      3  C   UNL     1       5.178  -0.509   3.326  0.00  0.00    +0.025 A 
ATOM      4  C   UNL     1       4.707  -1.657   3.939  0.00  0.00    +0.045 A 
ATOM      5  C   UNL     1       3.858  -2.502   3.233  0.00  0.00    +0.117 A 
ATOM      6  N   UNL     1       3.498  -2.212   1.992  0.00  0.00    -0.234 NA
ATOM      7 CL   UNL     1       5.341   1.182   1.205  0.00  0.00    -0.082 Cl
ENDROOT
BRANCH   5   8
ATOM      8  N   UNL     1       3.379  -3.659   3.837  0.00  0.00    -0.343 N 
ATOM      9  H   UNL     1       3.637  -3.873   4.747  0.00  0.00    +0.144 HD
ATOM     10  H   UNL     1       2.786  -4.251   3.349  0.00  0.00    +0.144 HD
ENDBRANCH   5   8
BRANCH   1  11
ATOM     11  C   UNL     1       3.499  -0.847  -0.036  0.00  0.00    +0.204 C 
BRANCH  11  16
ATOM     12  C   UNL     1      -0.017   1.401   0.010  0.00  0.00    +0.027 A 
ATOM     13  C   UNL     1       1.177   2.065   0.002  0.00  0.00    +0.073 A 
ATOM     14  C   UNL     1       2.359   1.294  -0.013  0.00  0.00    +0.268 A 
ATOM     15  O   UNL     1       3.451   1.839  -0.021  0.00  0.00    -0.266 OA
ATOM     16  N   UNL     1       2.270  -0.050  -0.020  0.00  0.00    -0.224 N 
ATOM     17  N   UNL     1       1.135  -0.650  -0.013  0.00  0.00    -0.176 NA
ATOM     18  C   UNL     1       0.002  -0.004   0.002  0.00  0.00    +0.133 A 
ENDBRANCH  11  16
ENDBRANCH   1  11
TORSDOF 3
