REMARK  Name = ZINC40778825
REMARK  7 active torsions:
REMARK  status: ('A' for Active; 'I' for Inactive)
REMARK    1  A    between atoms: C_1  and  C_2
REMARK    2  A    between atoms: C_2  and  C_3
REMARK    3  A    between atoms: C_3  and  C_5
REMARK    4  A    between atoms: C_3  and  N_6
REMARK    5  A    between atoms: C_8  and  N_22
REMARK    6  A    between atoms: C_9  and  N_13
REMARK    7  A    between atoms: N_13  and  C_14
REMARK                            x       y       z     vdW  Elec       q    Type
REMARK                         _______ _______ _______ _____ _____    ______ ____
ROOT
ATOM      1  N   UNL     1       1.948   0.845  -1.296  0.00  0.00    -0.325 N 
ATOM      2  C   UNL     1       2.714   0.748  -2.451  0.00  0.00    +0.145 A 
ATOM      3  C   UNL     1       4.101   0.906  -2.399  0.00  0.00    +0.105 A 
ATOM      4  C   UNL     1       4.822   0.798  -3.589  0.00  0.00    +0.149 A 
ATOM      5  N   UNL     1       4.165   0.551  -4.720  0.00  0.00    -0.219 NA
ATOM      6  C   UNL     1       2.856   0.409  -4.726  0.00  0.00    +0.225 A 
ATOM      7  N   UNL     1       2.138   0.498  -3.624  0.00  0.00    -0.219 NA
ATOM      8  H   UNL     1       2.376   1.028  -0.444  0.00  0.00    +0.148 HD
ENDROOT
BRANCH   3   9
ATOM      9  N   UNL     1       4.751   1.166  -1.182  0.00  0.00    -0.353 N 
ATOM     10  H   UNL     1       4.237   1.239  -0.363  0.00  0.00    +0.143 HD
ATOM     11  H   UNL     1       5.715   1.274  -1.161  0.00  0.00    +0.143 HD
ENDBRANCH   3   9
BRANCH   1  12
ATOM     12  C   UNL     1       0.495   0.672  -1.363  0.00  0.00    +0.068 C 
ATOM     13  C   UNL     1       0.155  -0.818  -1.287  0.00  0.00    +0.028 C 
BRANCH  12  15
ATOM     14  C   UNL     1       0.074   2.909  -0.335  0.00  0.00    +0.005 C 
ATOM     15  C   UNL     1      -0.161   1.404  -0.191  0.00  0.00    +0.018 C 
ENDBRANCH  12  15
ENDBRANCH   1  12
BRANCH   4  16
ATOM     16  N   UNL     1       6.204   0.947  -3.592  0.00  0.00    -0.297 N 
ATOM     17  H   UNL     1       6.685   1.032  -2.754  0.00  0.00    +0.154 HD
BRANCH  16  18
ATOM     18  C   UNL     1       6.901   0.976  -4.804  0.00  0.00    +0.052 A 
ATOM     19  C   UNL     1       6.250   1.350  -5.973  0.00  0.00    +0.025 A 
ATOM     20  C   UNL     1       6.940   1.377  -7.169  0.00  0.00    +0.003 A 
ATOM     21  C   UNL     1       8.279   1.032  -7.205  0.00  0.00    +0.021 A 
ATOM     22  C   UNL     1       8.932   0.659  -6.043  0.00  0.00    +0.061 A 
ATOM     23  C   UNL     1       8.248   0.635  -4.841  0.00  0.00    +0.080 A 
ATOM     24 CL   UNL     1       9.068   0.174  -3.383  0.00  0.00    -0.080 Cl
ATOM     25 CL   UNL     1      10.613   0.227  -6.093  0.00  0.00    -0.082 Cl
ENDBRANCH  16  18
ENDBRANCH   4  16
TORSDOF 5
