REMARK  Name = ZINC67531198
REMARK  9 active torsions:
REMARK  status: ('A' for Active; 'I' for Inactive)
REMARK    1  A    between atoms: C_1  and  C_2
REMARK    2  A    between atoms: C_5  and  C_8
REMARK    3  A    between atoms: C_8  and  C_10
REMARK    4  A    between atoms: C_8  and  N_26
REMARK    5  A    between atoms: C_10  and  N_11
REMARK    6  A    between atoms: N_14  and  C_15
REMARK    7  A    between atoms: N_24  and  C_25
REMARK    8  A    between atoms: N_26  and  C_27
REMARK    9  A    between atoms: N_26  and  C_28
REMARK                            x       y       z     vdW  Elec       q    Type
REMARK                         _______ _______ _______ _____ _____    ______ ____
ROOT
ATOM      1  N   UNL     1       0.774  -6.390   0.509  0.00  0.00    -0.301 N 
ATOM      2  C   UNL     1       1.768  -7.243   0.827  0.00  0.00    +0.300 C 
ATOM      3  O   UNL     1       2.916  -6.844   0.883  0.00  0.00    -0.253 OA
ATOM      4  N   UNL     1       1.491  -8.537   1.083  0.00  0.00    -0.292 N 
ATOM      5  H   UNL     1      -0.141  -6.708   0.465  0.00  0.00    +0.150 HD
ATOM      6  H   UNL     1       0.576  -8.854   1.038  0.00  0.00    +0.151 HD
ENDROOT
BRANCH   4   7
ATOM      7  C   UNL     1       2.572  -9.463   1.429  0.00  0.00    +0.108 C 
ATOM      8  C   UNL     1       2.007 -10.636   2.239  0.00  0.00    +0.027 C 
ATOM      9  C   UNL     1       3.076 -11.724   2.377  0.00  0.00    +0.008 C 
ATOM     10  C   UNL     1       3.303 -12.395   1.017  0.00  0.00    +0.055 C 
ATOM     11  C   UNL     1       3.518 -11.316  -0.015  0.00  0.00    +0.044 A 
ATOM     12  C   UNL     1       3.194 -10.010   0.168  0.00  0.00    +0.013 A 
ATOM     13  C   UNL     1       3.537  -9.314  -0.989  0.00  0.00    +0.140 A 
ATOM     14  N   UNL     1       4.048 -10.169  -1.841  0.00  0.00    -0.179 NA
ATOM     15  N   UNL     1       4.043 -11.441  -1.245  0.00  0.00    -0.271 N 
ATOM     16  C   UNL     1       4.527 -12.682  -1.856  0.00  0.00    +0.172 C 
ENDBRANCH   4   7
BRANCH   1  17
ATOM     17  C   UNL     1       1.075  -4.984   0.231  0.00  0.00    +0.095 C 
BRANCH  17  18
ATOM     18  C   UNL     1      -0.229  -4.220  -0.007  0.00  0.00    -0.021 C 
BRANCH  18  23
ATOM     19  C   UNL     1      -2.812  -6.249  -4.761  0.00  0.00    +0.044 C 
ATOM     20  C   UNL     1      -2.139  -5.720  -3.521  0.00  0.00    -0.050 A 
ATOM     21  C   UNL     1      -2.566  -6.132  -2.273  0.00  0.00    +0.003 A 
ATOM     22  C   UNL     1      -1.948  -5.647  -1.136  0.00  0.00    +0.002 A 
ATOM     23  C   UNL     1      -0.902  -4.750  -1.247  0.00  0.00    -0.059 A 
ATOM     24  C   UNL     1      -0.474  -4.338  -2.495  0.00  0.00    +0.002 A 
ATOM     25  C   UNL     1      -1.089  -4.827  -3.632  0.00  0.00    +0.003 A 
ENDBRANCH  18  23
BRANCH  18  26
ATOM     26  N   UNL     1       0.065  -2.792  -0.182  0.00  0.00    +0.382 N 
ATOM     27  C   UNL     1      -1.182  -2.065  -0.455  0.00  0.00    -0.096 C 
ATOM     28  C   UNL     1       0.680  -2.265   1.044  0.00  0.00    -0.096 C 
ATOM     29  H   UNL     1       0.701  -2.671  -0.956  0.00  0.00    -0.082 HD
ENDBRANCH  18  26
ENDBRANCH  17  18
ENDBRANCH   1  17
TORSDOF 5
