REMARK  Name = ZINC37035264
REMARK  6 active torsions:
REMARK  status: ('A' for Active; 'I' for Inactive)
REMARK    1  A    between atoms: C_1  and  N_2
REMARK    2  A    between atoms: N_2  and  C_3
REMARK    3  A    between atoms: C_6  and  C_11
REMARK    4  A    between atoms: C_11  and  S_12
REMARK    5  A    between atoms: S_12  and  C_13
REMARK    6  A    between atoms: C_18  and  N_19
REMARK                            x       y       z     vdW  Elec       q    Type
REMARK                         _______ _______ _______ _____ _____    ______ ____
ROOT
ATOM      1  C   UNL     1      -0.018   1.461   0.010  0.00  0.00    +0.132 C 
ATOM      2  N   UNL     1       0.002  -0.004   0.002  0.00  0.00    -0.306 N 
ATOM      3  C   UNL     1       1.281  -0.719  -0.014  0.00  0.00    +0.132 C 
ATOM      4  C   UNL     1      -1.183  -0.710   0.009  0.00  0.00    +0.222 A 
ATOM      5  N   UNL     1      -1.166  -2.041   0.008  0.00  0.00    -0.198 NA
ATOM      6  C   UNL     1      -2.301  -2.718   0.015  0.00  0.00    +0.146 A 
ATOM      7  N   UNL     1      -3.457  -2.078   0.024  0.00  0.00    -0.199 NA
ATOM      8  C   UNL     1      -3.482  -0.747   0.026  0.00  0.00    +0.217 A 
ATOM      9  N   UNL     1      -2.343  -0.063   0.024  0.00  0.00    -0.181 NA
ATOM     10  N   UNL     1      -4.690  -0.079   0.035  0.00  0.00    -0.327 N 
ATOM     11  H   UNL     1      -5.521  -0.579   0.040  0.00  0.00    +0.145 HD
ATOM     12  H   UNL     1      -4.707   0.891   0.036  0.00  0.00    +0.145 HD
ENDROOT
BRANCH   6  13
ATOM     13  C   UNL     1      -2.277  -4.225   0.012  0.00  0.00    +0.150 C 
BRANCH  13  14
ATOM     14  S   UNL     1      -2.255  -4.833   1.722  0.00  0.00    -0.116 S 
BRANCH  14  15
ATOM     15  C   UNL     1      -2.228  -6.586   1.550  0.00  0.00    +0.029 A 
ATOM     16  C   UNL     1      -2.223  -7.162   0.288  0.00  0.00    +0.016 A 
ATOM     17  C   UNL     1      -2.201  -8.538   0.157  0.00  0.00    +0.001 A 
ATOM     18  C   UNL     1      -2.186  -9.344   1.280  0.00  0.00    +0.002 A 
ATOM     19  C   UNL     1      -2.192  -8.778   2.542  0.00  0.00    +0.024 A 
ATOM     20  C   UNL     1      -2.207  -7.399   2.684  0.00  0.00    +0.038 A 
BRANCH  20  21
ATOM     21  N   UNL     1      -2.207  -6.825   3.961  0.00  0.00    -0.357 N 
ATOM     22  H   UNL     1      -2.222  -5.860   4.058  0.00  0.00    +0.142 HD
ATOM     23  H   UNL     1      -2.193  -7.392   4.748  0.00  0.00    +0.142 HD
ENDBRANCH  20  21
ENDBRANCH  14  15
ENDBRANCH  13  14
ENDBRANCH   6  13
TORSDOF 4
