REMARK  Name = ZINC40234592
REMARK  6 active torsions:
REMARK  status: ('A' for Active; 'I' for Inactive)
REMARK    1  A    between atoms: C_1  and  C_2
REMARK    2  A    between atoms: C_2  and  N_3
REMARK    3  A    between atoms: N_3  and  C_4
REMARK    4  A    between atoms: N_3  and  C_11
REMARK    5  A    between atoms: C_8  and  C_10
REMARK    6  A    between atoms: C_14  and  N_21
REMARK                            x       y       z     vdW  Elec       q    Type
REMARK                         _______ _______ _______ _____ _____    ______ ____
ROOT
ATOM      1  C   UNL     1      -0.040  -0.713  -2.374  0.00  0.00    +0.058 A 
ATOM      2  C   UNL     1      -0.214   0.297  -3.295  0.00  0.00    +0.027 A 
ATOM      3  C   UNL     1      -0.935   0.081  -4.465  0.00  0.00    +0.025 A 
ATOM      4  C   UNL     1      -1.492  -1.152  -4.732  0.00  0.00    +0.034 A 
ATOM      5  C   UNL     1      -1.330  -2.205  -3.808  0.00  0.00    +0.021 A 
ATOM      6  C   UNL     1      -0.592  -1.988  -2.619  0.00  0.00    +0.070 A 
ATOM      7  N   UNL     1      -0.432  -2.986  -1.744  0.00  0.00    -0.359 N 
ATOM      8  C   UNL     1      -0.942  -4.173  -1.964  0.00  0.00    +0.083 A 
ATOM      9  C   UNL     1      -1.673  -4.455  -3.116  0.00  0.00    +0.018 A 
ATOM     10  C   UNL     1      -1.884  -3.475  -4.045  0.00  0.00    +0.013 A 
ATOM     11  H   UNL     1       0.071  -2.828  -0.930  0.00  0.00    +0.165 HD
ENDROOT
BRANCH   4  12
ATOM     12  N   UNL     1      -2.213  -1.356  -5.910  0.00  0.00    -0.357 N 
ATOM     13  H   UNL     1      -2.324  -0.630  -6.543  0.00  0.00    +0.142 HD
ATOM     14  H   UNL     1      -2.604  -2.224  -6.095  0.00  0.00    +0.142 HD
ENDBRANCH   4  12
BRANCH   1  15
ATOM     15  N   UNL     1       0.688  -0.476  -1.203  0.00  0.00    -0.299 N 
BRANCH  15  16
ATOM     16  C   UNL     1       2.068  -0.691  -1.183  0.00  0.00    +0.034 A 
ATOM     17  C   UNL     1       2.721  -1.133  -2.327  0.00  0.00    +0.023 A 
ATOM     18  C   UNL     1       4.085  -1.344  -2.304  0.00  0.00    +0.002 A 
ATOM     19  C   UNL     1       4.802  -1.115  -1.143  0.00  0.00    +0.003 A 
ATOM     20  C   UNL     1       4.155  -0.675  -0.003  0.00  0.00    -0.049 A 
ATOM     21  C   UNL     1       2.792  -0.456  -0.021  0.00  0.00    +0.026 A 
ATOM     22  C   UNL     1       4.941  -0.426   1.259  0.00  0.00    +0.044 C 
ENDBRANCH  15  16
BRANCH  15  24
ATOM     23  C   UNL     1      -0.019   1.526   0.010  0.00  0.00    +0.024 C 
ATOM     24  C   UNL     1       0.002  -0.004   0.002  0.00  0.00    +0.107 C 
ENDBRANCH  15  24
ENDBRANCH   1  15
TORSDOF 4
