REMARK  Name = ZINC39670573
REMARK  5 active torsions:
REMARK  status: ('A' for Active; 'I' for Inactive)
REMARK    1  A    between atoms: C_1  and  C_2
REMARK    2  A    between atoms: C_7  and  C_11
REMARK    3  A    between atoms: C_11  and  N_12
REMARK    4  A    between atoms: C_13  and  C_15
REMARK    5  A    between atoms: C_26  and  C_28
REMARK                            x       y       z     vdW  Elec       q    Type
REMARK                         _______ _______ _______ _____ _____    ______ ____
ROOT
ATOM      1  C   UNL     1       2.263  -7.305   3.477  0.00  0.00    +0.100 C 
ATOM      2  C   UNL     1       3.508  -6.572   4.025  0.00  0.00    +0.121 C 
ATOM      3  N   UNL     1       3.582  -6.975   5.449  0.00  0.00    -0.300 N 
ATOM      4  C   UNL     1       3.210  -8.410   5.446  0.00  0.00    +0.115 C 
ATOM      5  C   UNL     1       2.073  -8.513   4.410  0.00  0.00    -0.004 C 
ATOM      6  C   UNL     1       2.193  -9.813   3.622  0.00  0.00    -0.010 C 
ATOM      7  C   UNL     1       1.942 -10.998   4.559  0.00  0.00    -0.082 C 
ATOM      8  N   UNL     1       0.604 -10.882   5.150  0.00  0.00    +0.379 N 
ATOM      9  C   UNL     1       0.527  -9.675   5.982  0.00  0.00    -0.082 C 
ATOM     10  C   UNL     1       0.717  -8.435   5.105  0.00  0.00    -0.010 C 
ATOM     11  C   UNL     1       3.915  -6.210   6.508  0.00  0.00    +0.219 C 
ATOM     12  O   UNL     1       4.122  -5.024   6.359  0.00  0.00    -0.275 OA
ATOM     13  H   UNL     1      -0.084 -10.826   4.413  0.00  0.00    -0.086 HD
ATOM     14  H   UNL     1       0.417 -11.694   5.719  0.00  0.00    -0.086 HD
ENDROOT
BRANCH  11  15
ATOM     15  C   UNL     1       4.028  -6.828   7.878  0.00  0.00    +0.079 C 
ATOM     16  C   UNL     1       3.785  -5.757   8.949  0.00  0.00    +0.017 C 
ATOM     17  C   UNL     1       3.730  -6.442  10.316  0.00  0.00    +0.027 C 
ATOM     18  C   UNL     1       4.909  -7.354  10.485  0.00  0.00    -0.031 C 
ATOM     19  C   UNL     1       5.649  -7.772   9.508  0.00  0.00    -0.030 C 
ATOM     20  C   UNL     1       5.435  -7.399   8.069  0.00  0.00    +0.039 C 
ENDBRANCH  11  15
BRANCH   1  22
ATOM     21  N   UNL     1       0.059  -6.558   2.639  0.00  0.00    -0.309 N 
ATOM     22  C   UNL     1       1.056  -6.404   3.533  0.00  0.00    +0.219 C 
ATOM     23  O   UNL     1       0.983  -5.540   4.381  0.00  0.00    -0.275 OA
ATOM     24  H   UNL     1       0.118  -7.248   1.960  0.00  0.00    +0.149 HD
BRANCH  21  25
ATOM     25  C   UNL     1      -1.114  -5.682   2.693  0.00  0.00    +0.159 C 
BRANCH  25  32
ATOM     26  C   UNL     1      -5.188  -6.522  -3.416  0.00  0.00    +0.045 C 
ATOM     27  C   UNL     1      -4.650  -6.720  -2.022  0.00  0.00    -0.034 A 
ATOM     28  C   UNL     1      -5.205  -7.709  -1.192  0.00  0.00    +0.008 A 
ATOM     29  C   UNL     1      -4.717  -7.885   0.065  0.00  0.00    +0.045 A 
ATOM     30  C   UNL     1      -3.659  -7.070   0.515  0.00  0.00    +0.115 A 
ATOM     31  N   UNL     1      -3.000  -7.018   1.664  0.00  0.00    -0.342 N 
ATOM     32  C   UNL     1      -2.074  -6.059   1.594  0.00  0.00    +0.051 A 
ATOM     33  C   UNL     1      -2.140  -5.483   0.374  0.00  0.00    +0.115 A 
ATOM     34  N   UNL     1      -3.139  -6.114  -0.317  0.00  0.00    -0.308 N 
ATOM     35  C   UNL     1      -3.634  -5.951  -1.578  0.00  0.00    +0.096 A 
ATOM     36  H   UNL     1      -3.164  -7.586   2.433  0.00  0.00    +0.167 HD
ENDBRANCH  25  32
ENDBRANCH  21  25
ENDBRANCH   1  22
TORSDOF 4
