REMARK  Name = ZINC63846684
REMARK  4 active torsions:
REMARK  status: ('A' for Active; 'I' for Inactive)
REMARK    1  A    between atoms: C_3  and  C_7
REMARK    2  A    between atoms: C_7  and  N_8
REMARK    3  A    between atoms: C_13  and  C_16
REMARK    4  A    between atoms: C_19  and  N_22
REMARK                            x       y       z     vdW  Elec       q    Type
REMARK                         _______ _______ _______ _____ _____    ______ ____
ROOT
ATOM      1  N   UNL     1       4.141   2.271   1.355  0.00  0.00    -0.228 N 
ATOM      2  C   UNL     1       4.962   1.380   2.180  0.00  0.00    +0.212 C 
ATOM      3  C   UNL     1       5.672   2.391   3.080  0.00  0.00    +0.094 C 
ATOM      4  N   UNL     1       6.878   1.987   3.272  0.00  0.00    -0.260 NA
ATOM      5  C   UNL     1       7.139   0.765   2.494  0.00  0.00    +0.205 C 
ATOM      6  N   UNL     1       6.047   0.699   1.461  0.00  0.00    -0.267 NA
ATOM      7  C   UNL     1       4.665   3.447   3.206  0.00  0.00    +0.156 C 
ATOM      8  N   UNL     1       3.877   3.388   2.170  0.00  0.00    -0.189 NA
ATOM      9  H   UNL     1       5.795  -0.254   1.244  0.00  0.00    +0.126 HD
ENDROOT
BRANCH   5  10
ATOM     10  C   UNL     1       8.491   0.844   1.833  0.00  0.00    -0.009 A 
ATOM     11  C   UNL     1       8.701   0.225   0.615  0.00  0.00    +0.009 A 
ATOM     12  C   UNL     1       9.939   0.296   0.007  0.00  0.00    +0.028 A 
ATOM     13  C   UNL     1      10.973   0.990   0.620  0.00  0.00    +0.065 A 
ATOM     14  C   UNL     1      10.759   1.611   1.843  0.00  0.00    +0.028 A 
ATOM     15  C   UNL     1       9.517   1.541   2.444  0.00  0.00    +0.009 A 
BRANCH  13  16
ATOM     16  N   UNL     1      12.231   1.063   0.006  0.00  0.00    -0.240 N 
ATOM     17  C   UNL     1      13.320   1.698   0.495  0.00  0.00    +0.114 A 
ATOM     18  C   UNL     1      14.327   1.533  -0.394  0.00  0.00    +0.041 A 
ATOM     19  C   UNL     1      13.839   0.772  -1.462  0.00  0.00    +0.135 A 
ATOM     20  N   UNL     1      12.585   0.485  -1.220  0.00  0.00    -0.175 NA
ENDBRANCH  13  16
ENDBRANCH   5  10
BRANCH   1  21
ATOM     21  C   UNL     1       3.696   2.049  -0.023  0.00  0.00    +0.164 C 
BRANCH  21  24
ATOM     22  C   UNL     1      -0.017   1.378   0.010  0.00  0.00    +0.020 A 
ATOM     23  C   UNL     1       1.185   2.070   0.002  0.00  0.00    +0.008 A 
ATOM     24  C   UNL     1       2.365   1.343  -0.013  0.00  0.00    -0.010 A 
ATOM     25  C   UNL     1       2.305  -0.038  -0.020  0.00  0.00    +0.116 A 
ATOM     26  N   UNL     1       1.144  -0.663  -0.013  0.00  0.00    -0.263 NA
ATOM     27  C   UNL     1       0.002  -0.004   0.002  0.00  0.00    +0.111 A 
ENDBRANCH  21  24
ENDBRANCH   1  21
TORSDOF 4
