REMARK  Name = ZINC24249688
REMARK  7 active torsions:
REMARK  status: ('A' for Active; 'I' for Inactive)
REMARK    1  A    between atoms: C_1  and  C_2
REMARK    2  A    between atoms: C_5  and  N_8
REMARK    3  A    between atoms: C_12  and  C_14
REMARK    4  A    between atoms: C_14  and  C_16
REMARK    5  A    between atoms: C_14  and  N_17
REMARK    6  A    between atoms: N_20  and  C_23
REMARK    7  A    between atoms: C_28  and  O_29
REMARK                            x       y       z     vdW  Elec       q    Type
REMARK                         _______ _______ _______ _____ _____    ______ ____
ROOT
ATOM      1  C   UNL     1       3.604  -6.255  -0.501  0.00  0.00    +0.017 C 
ATOM      2  C   UNL     1       2.906  -6.697   0.787  0.00  0.00    -0.004 C 
ENDROOT
BRANCH   1   7
ATOM      3  N   UNL     1       1.283  -2.109  -1.231  0.00  0.00    -0.269 N 
ATOM      4  C   UNL     1       2.430  -2.757  -0.950  0.00  0.00    +0.310 C 
ATOM      5  O   UNL     1       3.454  -2.128  -0.766  0.00  0.00    -0.252 OA
ATOM      6  N   UNL     1       2.443  -4.102  -0.871  0.00  0.00    -0.241 N 
ATOM      7  C   UNL     1       3.590  -4.750  -0.589  0.00  0.00    +0.207 C 
ATOM      8  O   UNL     1       4.612  -4.123  -0.406  0.00  0.00    -0.277 OA
ATOM      9  H   UNL     1       0.339  -2.670  -1.310  0.00  0.00    +0.156 HD
ATOM     10  H   UNL     1       1.516  -4.672  -1.037  0.00  0.00    +0.159 HD
BRANCH   3  15
ATOM     11  C   UNL     1       1.316   3.510  -2.015  0.00  0.00    +0.044 C 
ATOM     12  C   UNL     1       1.307   2.017  -1.807  0.00  0.00    -0.050 A 
ATOM     13  C   UNL     1       2.403   1.262  -2.182  0.00  0.00    +0.005 A 
ATOM     14  C   UNL     1       2.398  -0.106  -1.992  0.00  0.00    +0.023 A 
ATOM     15  C   UNL     1       1.291  -0.723  -1.425  0.00  0.00    +0.035 A 
ATOM     16  C   UNL     1       0.192   0.038  -1.049  0.00  0.00    +0.023 A 
ATOM     17  C   UNL     1       0.203   1.406  -1.241  0.00  0.00    +0.005 A 
ENDBRANCH   3  15
ENDBRANCH   1   7
BRANCH   1  18
ATOM     18  N   UNL     1       4.994  -6.732  -0.494  0.00  0.00    +0.389 N 
ATOM     19  C   UNL     1       5.058  -8.171  -0.788  0.00  0.00    -0.059 C 
ATOM     20  C   UNL     1       6.522  -8.611  -0.849  0.00  0.00    +0.086 C 
ATOM     21  N   UNL     1       7.176  -8.308   0.431  0.00  0.00    -0.331 N 
ATOM     22  C   UNL     1       7.112  -6.870   0.725  0.00  0.00    +0.086 C 
ATOM     23  C   UNL     1       5.648  -6.429   0.787  0.00  0.00    -0.059 C 
ATOM     24  H   UNL     1       5.537  -6.199  -1.288  0.00  0.00    -0.081 HD
BRANCH  21  25
ATOM     25  C   UNL     1       8.500  -8.763   0.438  0.00  0.00    +0.072 A 
ATOM     26  C   UNL     1       9.087  -9.212  -0.736  0.00  0.00    +0.027 A 
ATOM     27  C   UNL     1      10.396  -9.656  -0.728  0.00  0.00    +0.002 A 
ATOM     28  C   UNL     1      11.120  -9.664   0.451  0.00  0.00    +0.004 A 
ATOM     29  C   UNL     1      10.539  -9.223   1.626  0.00  0.00    +0.047 A 
ATOM     30  C   UNL     1       9.229  -8.772   1.625  0.00  0.00    +0.138 A 
BRANCH  30  31
ATOM     31  O   UNL     1       8.657  -8.339   2.780  0.00  0.00    -0.505 OA
ATOM     32  H   UNL     1       9.234  -8.346   3.717  0.00  0.00    +0.292 HD
ENDBRANCH  30  31
ENDBRANCH  21  25
ENDBRANCH   1  18
TORSDOF 5
