REMARK  Name = ZINC65416060
REMARK  10 active torsions:
REMARK  status: ('A' for Active; 'I' for Inactive)
REMARK    1  A    between atoms: C_1  and  C_2
REMARK    2  A    between atoms: C_2  and  N_3
REMARK    3  A    between atoms: N_3  and  C_4
REMARK    4  A    between atoms: N_3  and  C_6
REMARK    5  A    between atoms: C_4  and  C_5
REMARK    6  A    between atoms: C_6  and  C_7
REMARK    7  A    between atoms: C_6  and  C_24
REMARK    8  A    between atoms: C_7  and  N_8
REMARK    9  A    between atoms: N_11  and  C_12
REMARK   10  A    between atoms: C_14  and  C_20
REMARK                            x       y       z     vdW  Elec       q    Type
REMARK                         _______ _______ _______ _____ _____    ______ ____
ROOT
ATOM      1  N   UNL     1       1.051  -2.263  -3.386  0.00  0.00    -0.300 N 
ATOM      2  C   UNL     1       1.778  -3.081  -4.174  0.00  0.00    +0.304 C 
ATOM      3  O   UNL     1       2.574  -2.613  -4.965  0.00  0.00    -0.253 OA
ATOM      4  N   UNL     1       1.622  -4.417  -4.084  0.00  0.00    -0.265 N 
ATOM      5  H   UNL     1       0.416  -2.636  -2.755  0.00  0.00    +0.150 HD
ATOM      6  H   UNL     1       0.938  -4.787  -3.506  0.00  0.00    +0.157 HD
ENDROOT
BRANCH   4   7
ATOM      7  C   UNL     1       2.450  -5.270  -4.827  0.00  0.00    +0.100 A 
ATOM      8  C   UNL     1       3.240  -6.191  -4.195  0.00  0.00    +0.042 A 
ATOM      9  C   UNL     1       4.058  -7.033  -4.962  0.00  0.00    +0.073 A 
ATOM     10  C   UNL     1       4.061  -6.929  -6.310  0.00  0.00    +0.098 A 
ATOM     11  N   UNL     1       3.277  -6.014  -6.940  0.00  0.00    -0.327 N 
ATOM     12  H   UNL     1       3.293  -5.955  -7.908  0.00  0.00    +0.168 HD
ATOM     13  C   UNL     1       2.475  -5.193  -6.236  0.00  0.00    +0.270 A 
ATOM     14  O   UNL     1       1.773  -4.380  -6.816  0.00  0.00    -0.266 OA
BRANCH   9  15
ATOM     15  C   UNL     1       4.935  -8.053  -4.283  0.00  0.00    +0.419 C 
ATOM     16  F   UNL     1       5.652  -8.768  -5.249  0.00  0.00    -0.166 F 
ATOM     17  F   UNL     1       5.829  -7.404  -3.425  0.00  0.00    -0.166 F 
ATOM     18  F   UNL     1       4.139  -8.936  -3.546  0.00  0.00    -0.166 F 
ENDBRANCH   9  15
ENDBRANCH   4   7
BRANCH   1  19
ATOM     19  C   UNL     1       1.220  -0.811  -3.484  0.00  0.00    +0.098 C 
BRANCH  19  20
ATOM     20  C   UNL     1       0.353  -0.125  -2.426  0.00  0.00    +0.016 C 
BRANCH  20  21
ATOM     21  C   UNL     1       0.584   1.363  -2.477  0.00  0.00    +0.093 A 
ATOM     22  C   UNL     1      -0.273   2.276  -2.970  0.00  0.00    +0.043 A 
ATOM     23  C   UNL     1       0.342   3.539  -2.818  0.00  0.00    +0.041 A 
ATOM     24  C   UNL     1       1.538   3.324  -2.242  0.00  0.00    +0.195 A 
ATOM     25  O   UNL     1       1.677   2.005  -2.032  0.00  0.00    -0.469 OA
ENDBRANCH  20  21
BRANCH  20  26
ATOM     26  N   UNL     1       0.712  -0.631  -1.095  0.00  0.00    +0.387 N 
ATOM     27  H   UNL     1       0.493  -1.615  -1.038  0.00  0.00    -0.081 HD
BRANCH  26  29
ATOM     28  C   UNL     1       2.910  -1.689  -1.310  0.00  0.00    -0.017 C 
ATOM     29  C   UNL     1       2.150  -0.437  -0.868  0.00  0.00    -0.081 C 
ENDBRANCH  26  29
BRANCH  26  30
ATOM     30  C   UNL     1      -0.048   0.100  -0.072  0.00  0.00    -0.081 C 
ATOM     31  C   UNL     1      -1.536  -0.227  -0.212  0.00  0.00    -0.017 C 
ENDBRANCH  26  30
ENDBRANCH  20  26
ENDBRANCH  19  20
ENDBRANCH   1  19
TORSDOF 8
