REMARK  Name = ZINC65425375
REMARK  6 active torsions:
REMARK  status: ('A' for Active; 'I' for Inactive)
REMARK    1  A    between atoms: C_1  and  C_2
REMARK    2  A    between atoms: C_4  and  C_25
REMARK    3  A    between atoms: C_8  and  C_9
REMARK    4  A    between atoms: N_11  and  C_12
REMARK    5  A    between atoms: N_11  and  C_13
REMARK    6  A    between atoms: C_13  and  C_14
REMARK                            x       y       z     vdW  Elec       q    Type
REMARK                         _______ _______ _______ _____ _____    ______ ____
ROOT
ATOM      1  C   UNL     1      -0.017  -0.203   2.584  0.00  0.00    +0.252 C 
ATOM      2  O   UNL     1      -0.177   0.997   2.707  0.00  0.00    -0.270 OA
ATOM      3  N   UNL     1       0.138  -0.978   3.676  0.00  0.00    -0.298 N 
ATOM      4  C   UNL     1       0.443  -2.403   3.525  0.00  0.00    +0.132 C 
ENDROOT
BRANCH   1  12
ATOM      5  C   UNL     1       2.521  -0.916   1.359  0.00  0.00    +0.045 C 
ATOM      6  C   UNL     1       1.216  -1.154   0.644  0.00  0.00    -0.031 A 
ATOM      7  C   UNL     1       1.199  -1.731  -0.626  0.00  0.00    +0.025 A 
ATOM      8  C   UNL     1       0.019  -1.943  -1.263  0.00  0.00    +0.016 A 
ATOM      9  N   UNL     1      -1.160  -1.603  -0.688  0.00  0.00    -0.326 N 
ATOM     10  C   UNL     1      -1.200  -1.043   0.536  0.00  0.00    +0.261 A 
ATOM     11  O   UNL     1      -2.270  -0.744   1.036  0.00  0.00    -0.267 OA
ATOM     12  C   UNL     1       0.007  -0.808   1.243  0.00  0.00    +0.104 A 
ATOM     13  C   UNL     1       0.020  -2.566  -2.635  0.00  0.00    +0.063 C 
ATOM     14  H   UNL     1      -1.988  -1.765  -1.166  0.00  0.00    +0.169 HD
ENDBRANCH   1  12
BRANCH   3  15
ATOM     15  C   UNL     1       0.001  -0.395   5.013  0.00  0.00    +0.136 C 
BRANCH  15  16
ATOM     16  C   UNL     1      -1.458  -0.493   5.465  0.00  0.00    +0.120 C 
ATOM     17  C   UNL     1      -1.586  -0.065   6.910  0.00  0.00    +0.009 C 
ATOM     18  C   UNL     1      -2.065  -1.138   7.578  0.00  0.00    -0.001 A 
ATOM     19  C   UNL     1      -2.401  -1.361   8.989  0.00  0.00    +0.048 A 
ATOM     20  C   UNL     1      -2.872  -2.573   9.368  0.00  0.00    +0.124 A 
ATOM     21  C   UNL     1      -3.045  -3.618   8.446  0.00  0.00    +0.040 A 
ATOM     22  C   UNL     1      -2.757  -3.487   7.135  0.00  0.00    +0.029 A 
ATOM     23  C   UNL     1      -2.256  -2.256   6.627  0.00  0.00    +0.043 A 
ATOM     24  N   UNL     1      -1.910  -1.888   5.416  0.00  0.00    -0.376 N 
ATOM     25  F   UNL     1      -3.182  -2.782  10.666  0.00  0.00    -0.205 F 
ATOM     26  H   UNL     1      -1.947  -2.443   4.622  0.00  0.00    +0.160 HD
ENDBRANCH  15  16
ENDBRANCH   3  15
TORSDOF 3
