REMARK  Name = ZINC11174281
REMARK  6 active torsions:
REMARK  status: ('A' for Active; 'I' for Inactive)
REMARK    1  A    between atoms: C_1  and  C_2
REMARK    2  A    between atoms: N_5  and  S_8
REMARK    3  A    between atoms: S_8  and  C_11
REMARK    4  A    between atoms: C_14  and  N_20
REMARK    5  A    between atoms: C_15  and  N_17
REMARK    6  A    between atoms: C_23  and  C_26
REMARK                            x       y       z     vdW  Elec       q    Type
REMARK                         _______ _______ _______ _____ _____    ______ ____
ROOT
ATOM      1  C   UNL     1       1.901   4.295  -3.458  0.00  0.00    +0.108 A 
ATOM      2  C   UNL     1       1.137   3.849  -4.521  0.00  0.00    +0.030 A 
ATOM      3  C   UNL     1       1.727   3.143  -5.551  0.00  0.00    +0.027 A 
ATOM      4  C   UNL     1       3.091   2.881  -5.518  0.00  0.00    +0.060 A 
ATOM      5  C   UNL     1       3.856   3.330  -4.449  0.00  0.00    +0.149 A 
ATOM      6  C   UNL     1       3.260   4.040  -3.425  0.00  0.00    +0.063 A 
ENDROOT
BRANCH   4   7
ATOM      7  N   UNL     1       3.692   2.168  -6.558  0.00  0.00    -0.331 N 
ATOM      8  C   UNL     1       3.611   2.913  -7.823  0.00  0.00    +0.086 C 
ATOM      9  C   UNL     1       4.348   2.137  -8.917  0.00  0.00    -0.062 C 
ATOM     10  C   UNL     1       3.830   0.058  -7.791  0.00  0.00    +0.033 C 
ATOM     11  C   UNL     1       3.093   0.834  -6.697  0.00  0.00    +0.098 C 
ATOM     12  N   UNL     1       3.745   0.799  -9.063  0.00  0.00    +0.389 N 
ATOM     13  H   UNL     1       4.247   0.279  -9.793  0.00  0.00    -0.085 HD
ATOM     14  H   UNL     1       2.759   0.899  -9.332  0.00  0.00    -0.085 HD
BRANCH  10  15
ATOM     15  C   UNL     1       3.192  -1.297  -7.963  0.00  0.00    +0.198 C 
ATOM     16  O   UNL     1       2.413  -1.489  -8.873  0.00  0.00    -0.278 OA
ATOM     17  N   UNL     1       3.487  -2.294  -7.106  0.00  0.00    -0.331 N 
ATOM     18  H   UNL     1       4.110  -2.141  -6.379  0.00  0.00    +0.145 HD
ATOM     19  H   UNL     1       3.076  -3.166  -7.217  0.00  0.00    +0.145 HD
ENDBRANCH  10  15
ENDBRANCH   4   7
BRANCH   1  20
ATOM     20  S   UNL     1       1.144   5.195  -2.147  0.00  0.00    +0.061 S 
ATOM     21  O   UNL     1      -0.036   5.777  -2.683  0.00  0.00    -0.153 OA
ATOM     22  O   UNL     1       2.169   5.971  -1.542  0.00  0.00    -0.153 OA
BRANCH  20  27
ATOM     23  C   UNL     1       0.376   0.026   0.213  0.00  0.00    +0.007 C 
ATOM     24  C   UNL     1       0.265   1.552   0.169  0.00  0.00    -0.012 C 
ATOM     25  C   UNL     1      -0.548   1.968  -1.059  0.00  0.00    +0.020 C 
ATOM     26  C   UNL     1      -0.686   3.493  -1.081  0.00  0.00    +0.110 C 
ATOM     27  N   UNL     1       0.654   4.091  -1.014  0.00  0.00    -0.177 NA
ATOM     28  C   UNL     1       1.552   3.690   0.078  0.00  0.00    +0.110 C 
ATOM     29  C   UNL     1       1.666   2.163   0.087  0.00  0.00    +0.020 C 
ENDBRANCH  20  27
ENDBRANCH   1  20
BRANCH   5  30
ATOM     30  N   UNL     1       5.310   3.054  -4.410  0.00  0.00    +0.058 N 
ATOM     31  O   UNL     1       5.963   3.365  -3.431  0.00  0.00    -0.126 OA
ATOM     32  O   UNL     1       5.853   2.514  -5.358  0.00  0.00    -0.126 OA
ENDBRANCH   5  30
TORSDOF 5
