REMARK  Name = ZINC40684272
REMARK  8 active torsions:
REMARK  status: ('A' for Active; 'I' for Inactive)
REMARK    1  A    between atoms: C_1  and  C_2
REMARK    2  A    between atoms: C_5  and  O_24
REMARK    3  A    between atoms: C_6  and  N_8
REMARK    4  A    between atoms: C_10  and  N_23
REMARK    5  A    between atoms: C_11  and  N_15
REMARK    6  A    between atoms: N_15  and  C_16
REMARK    7  A    between atoms: N_15  and  C_17
REMARK    8  A    between atoms: O_24  and  C_25
REMARK                            x       y       z     vdW  Elec       q    Type
REMARK                         _______ _______ _______ _____ _____    ______ ____
ROOT
ATOM      1  N   UNL     1      -0.112  -2.827   2.427  0.00  0.00    -0.296 N 
ATOM      2  C   UNL     1       0.027  -2.129   3.621  0.00  0.00    +0.126 A 
ATOM      3  C   UNL     1       0.200  -2.813   4.826  0.00  0.00    +0.104 A 
ATOM      4  C   UNL     1       0.335  -2.063   5.996  0.00  0.00    +0.151 A 
ATOM      5  N   UNL     1       0.294  -0.735   5.918  0.00  0.00    -0.220 NA
ATOM      6  C   UNL     1       0.130  -0.129   4.760  0.00  0.00    +0.200 A 
ATOM      7  N   UNL     1       0.004  -0.799   3.633  0.00  0.00    -0.333 N 
ATOM      8  H   UNL     1      -0.177  -3.795   2.436  0.00  0.00    +0.154 HD
ATOM      9  H   UNL     1      -0.111  -0.315   2.800  0.00  0.00    +0.168 HD
ENDROOT
BRANCH   1  15
ATOM     10  C   UNL     1      -2.624  -1.460  -1.571  0.00  0.00    +0.044 C 
ATOM     11  C   UNL     1      -1.363  -1.454  -0.747  0.00  0.00    -0.048 A 
ATOM     12  C   UNL     1      -0.252  -0.762  -1.193  0.00  0.00    +0.007 A 
ATOM     13  C   UNL     1       0.909  -0.752  -0.441  0.00  0.00    +0.048 A 
ATOM     14  C   UNL     1       0.961  -1.437   0.762  0.00  0.00    +0.141 A 
ATOM     15  C   UNL     1      -0.159  -2.134   1.212  0.00  0.00    +0.075 A 
ATOM     16  C   UNL     1      -1.321  -2.134   0.455  0.00  0.00    +0.030 A 
BRANCH  14  17
ATOM     17  O   UNL     1       2.101  -1.429   1.503  0.00  0.00    -0.493 OA
ATOM     18  C   UNL     1       3.209  -0.693   0.979  0.00  0.00    +0.277 C 
ENDBRANCH  14  17
ENDBRANCH   1  15
BRANCH   3  19
ATOM     19  N   UNL     1       0.236  -4.216   4.861  0.00  0.00    -0.353 N 
ATOM     20  H   UNL     1       0.214  -4.722   4.034  0.00  0.00    +0.143 HD
ATOM     21  H   UNL     1       0.282  -4.679   5.712  0.00  0.00    +0.143 HD
ENDBRANCH   3  19
BRANCH   4  22
ATOM     22  N   UNL     1       0.508  -2.694   7.223  0.00  0.00    -0.287 N 
ATOM     23  C   UNL     1      -0.650  -2.961   8.080  0.00  0.00    +0.137 C 
BRANCH  22  24
ATOM     24  C   UNL     1       1.787  -3.074   7.639  0.00  0.00    +0.035 A 
ATOM     25  C   UNL     1       2.899  -2.713   6.888  0.00  0.00    +0.023 A 
ATOM     26  C   UNL     1       4.162  -3.090   7.301  0.00  0.00    +0.002 A 
ATOM     27  C   UNL     1       4.320  -3.826   8.462  0.00  0.00    +0.000 A 
ATOM     28  C   UNL     1       3.215  -4.187   9.211  0.00  0.00    +0.002 A 
ATOM     29  C   UNL     1       1.950  -3.807   8.807  0.00  0.00    +0.023 A 
ENDBRANCH  22  24
ENDBRANCH   4  22
TORSDOF 5
