REMARK  Name = ZINC49956310
REMARK  5 active torsions:
REMARK  status: ('A' for Active; 'I' for Inactive)
REMARK    1  A    between atoms: C_1  and  C_2
REMARK    2  A    between atoms: C_4  and  O_9
REMARK    3  A    between atoms: O_9  and  C_10
REMARK    4  A    between atoms: C_20  and  N_22
REMARK    5  A    between atoms: N_22  and  C_23
REMARK                            x       y       z     vdW  Elec       q    Type
REMARK                         _______ _______ _______ _____ _____    ______ ____
ROOT
ATOM      1  C   UNL     1       0.224  -4.290  -2.256  0.00  0.00    +0.201 C 
ATOM      2  C   UNL     1      -1.165  -4.939  -2.291  0.00  0.00    +0.272 C 
ATOM      3  O   UNL     1      -1.897  -4.379  -3.383  0.00  0.00    -0.488 OA
ATOM      4  C   UNL     1      -1.288  -4.330  -4.596  0.00  0.00    +0.122 A 
ATOM      5  C   UNL     1      -2.076  -4.140  -5.727  0.00  0.00    +0.046 A 
ATOM      6  C   UNL     1      -1.495  -4.080  -6.977  0.00  0.00    +0.004 A 
ATOM      7  C   UNL     1      -0.124  -4.209  -7.107  0.00  0.00    +0.000 A 
ATOM      8  C   UNL     1       0.661  -4.401  -5.987  0.00  0.00    +0.006 A 
ATOM      9  C   UNL     1       0.083  -4.464  -4.730  0.00  0.00    -0.016 A 
ATOM     10  C   UNL     1       0.972  -4.685  -3.532  0.00  0.00    +0.007 C 
ENDROOT
BRANCH  10  11
ATOM     11  N   UNL     1       2.183  -3.863  -3.663  0.00  0.00    +0.384 N 
ATOM     12  C   UNL     1       3.103  -4.167  -2.558  0.00  0.00    -0.099 C 
ATOM     13  H   UNL     1       2.634  -4.067  -4.542  0.00  0.00    -0.085 HD
ATOM     14  H   UNL     1       1.931  -2.886  -3.632  0.00  0.00    -0.085 HD
ENDBRANCH  10  11
BRANCH   1  15
ATOM     15  O   UNL     1       0.091  -2.869  -2.197  0.00  0.00    -0.487 OA
BRANCH  15  19
ATOM     16  C   UNL     1      -0.419   1.118   0.573  0.00  0.00    +0.045 C 
ATOM     17  C   UNL     1      -0.338  -0.379   0.422  0.00  0.00    -0.029 A 
ATOM     18  C   UNL     1      -0.159  -0.938  -0.829  0.00  0.00    +0.050 A 
ATOM     19  C   UNL     1      -0.085  -2.316  -0.967  0.00  0.00    +0.121 A 
ATOM     20  C   UNL     1      -0.191  -3.131   0.151  0.00  0.00    +0.047 A 
ATOM     21  C   UNL     1      -0.369  -2.568   1.400  0.00  0.00    +0.024 A 
ATOM     22  C   UNL     1      -0.438  -1.192   1.536  0.00  0.00    +0.044 A 
ATOM     23 CL   UNL     1      -0.655  -0.487   3.108  0.00  0.00    -0.083 Cl
ENDBRANCH  15  19
ENDBRANCH   1  15
TORSDOF 3
