REMARK  Name = ZINC52517081
REMARK  7 active torsions:
REMARK  status: ('A' for Active; 'I' for Inactive)
REMARK    1  A    between atoms: C_1  and  N_2
REMARK    2  A    between atoms: N_2  and  C_3
REMARK    3  A    between atoms: N_2  and  C_10
REMARK    4  A    between atoms: C_3  and  C_4
REMARK    5  A    between atoms: C_10  and  C_11
REMARK    6  A    between atoms: C_14  and  C_16
REMARK    7  A    between atoms: C_16  and  N_17
REMARK                            x       y       z     vdW  Elec       q    Type
REMARK                         _______ _______ _______ _____ _____    ______ ____
ROOT
ATOM      1  C   UNL     1       0.690  -0.478  -1.207  0.00  0.00    -0.022 C 
ENDROOT
BRANCH   1   2
ATOM      2  C   UNL     1      -0.106  -0.083  -2.424  0.00  0.00    +0.032 A 
ATOM      3  C   UNL     1       0.174   1.050  -3.118  0.00  0.00    +0.068 A 
ATOM      4  S   UNL     1      -1.066   0.965  -4.400  0.00  0.00    -0.082 S 
ATOM      5  C   UNL     1      -1.793  -0.476  -3.923  0.00  0.00    +0.061 A 
ATOM      6  N   UNL     1      -1.101  -0.825  -2.868  0.00  0.00    -0.253 NA
BRANCH   5   7
ATOM      7  C   UNL     1      -2.955  -1.195  -4.560  0.00  0.00    -0.022 C 
BRANCH   7   8
ATOM      8  N   UNL     1      -4.211  -0.719  -3.965  0.00  0.00    +0.382 N 
ATOM      9  H   UNL     1      -4.988  -1.200  -4.391  0.00  0.00    -0.090 HD
ATOM     10  H   UNL     1      -4.204  -0.904  -2.973  0.00  0.00    -0.090 HD
ATOM     11  H   UNL     1      -4.302   0.274  -4.121  0.00  0.00    -0.090 HD
ENDBRANCH   7   8
ENDBRANCH   5   7
ENDBRANCH   1   2
BRANCH   1  13
ATOM     12  C   UNL     1      -0.018   1.465   0.010  0.00  0.00    -0.095 C 
ATOM     13  N   UNL     1       0.002  -0.004   0.002  0.00  0.00    +0.385 N 
ATOM     14  H   UNL     1      -0.945  -0.353   0.009  0.00  0.00    -0.081 HD
BRANCH  13  15
ATOM     15  C   UNL     1       0.713  -0.491   1.192  0.00  0.00    -0.035 C 
BRANCH  15  16
ATOM     16  C   UNL     1      -0.059  -0.109   2.429  0.00  0.00    -0.026 A 
ATOM     17  C   UNL     1      -1.025  -0.802   3.080  0.00  0.00    +0.024 A 
ATOM     18  C   UNL     1      -1.602  -0.250   4.209  0.00  0.00    +0.025 A 
ATOM     19  C   UNL     1      -1.184   0.969   4.631  0.00  0.00    +0.060 A 
ATOM     20  S   UNL     1       0.067   1.369   3.421  0.00  0.00    -0.102 S 
ATOM     21 BR   UNL     1      -2.954  -1.180   5.149  0.00  0.00    -0.050 Br
ENDBRANCH  15  16
ENDBRANCH  13  15
ENDBRANCH   1  13
TORSDOF 6
