REMARK  Name = ZINC44166922
REMARK  7 active torsions:
REMARK  status: ('A' for Active; 'I' for Inactive)
REMARK    1  A    between atoms: C_1  and  C_2
REMARK    2  A    between atoms: C_3  and  C_31
REMARK    3  A    between atoms: C_6  and  C_7
REMARK    4  A    between atoms: C_12  and  C_15
REMARK    5  A    between atoms: N_17  and  C_18
REMARK    6  A    between atoms: C_18  and  C_20
REMARK    7  A    between atoms: C_18  and  C_21
REMARK                            x       y       z     vdW  Elec       q    Type
REMARK                         _______ _______ _______ _____ _____    ______ ____
ROOT
ATOM      1  C   UNL     1       0.933  -0.189   2.000  0.00  0.00    +0.010 C 
ATOM      2  C   UNL     1      -0.442  -0.107   2.674  0.00  0.00    +0.061 C 
ATOM      3  S   UNL     1      -0.215   0.558   4.354  0.00  0.00    -0.163 S 
ATOM      4  C   UNL     1       1.124  -0.482   5.016  0.00  0.00    +0.062 C 
ATOM      5  C   UNL     1       2.264  -0.508   3.991  0.00  0.00    +0.027 C 
ATOM      6  N   UNL     1       1.795  -1.111   2.742  0.00  0.00    +0.394 N 
ATOM      7  H   UNL     1       1.277  -1.951   2.953  0.00  0.00    -0.084 HD
ATOM      8  H   UNL     1       2.592  -1.350   2.171  0.00  0.00    -0.084 HD
ENDROOT
BRANCH   1  14
ATOM      9  C   UNL     1       1.127   1.547  -0.577  0.00  0.00    +0.049 C 
ATOM     10  C   UNL     1       0.853   0.066  -0.526  0.00  0.00    +0.018 A 
ATOM     11  C   UNL     1       0.645  -0.780  -1.642  0.00  0.00    +0.116 A 
ATOM     12  N   UNL     1       0.438  -1.994  -1.192  0.00  0.00    -0.078 NA
ATOM     13  O   UNL     1       0.510  -1.950   0.222  0.00  0.00    -0.360 OA
ATOM     14  C   UNL     1       0.768  -0.684   0.586  0.00  0.00    +0.128 A 
BRANCH  11  15
ATOM     15  C   UNL     1       0.658  -0.367  -3.068  0.00  0.00    +0.004 A 
ATOM     16  C   UNL     1       1.568   0.592  -3.510  0.00  0.00    +0.010 A 
ATOM     17  C   UNL     1       1.576   0.972  -4.836  0.00  0.00    +0.001 A 
ATOM     18  C   UNL     1       0.683   0.405  -5.727  0.00  0.00    +0.000 A 
ATOM     19  C   UNL     1      -0.223  -0.547  -5.293  0.00  0.00    +0.001 A 
ATOM     20  C   UNL     1      -0.236  -0.939  -3.970  0.00  0.00    +0.010 A 
ENDBRANCH  11  15
ENDBRANCH   1  14
BRANCH   5  21
ATOM     21  C   UNL     1       3.411  -1.320   4.538  0.00  0.00    +0.200 C 
ATOM     22  O   UNL     1       3.792  -2.306   3.944  0.00  0.00    -0.278 OA
ATOM     23  N   UNL     1       4.011  -0.949   5.686  0.00  0.00    -0.310 N 
ATOM     24  H   UNL     1       3.706  -0.160   6.160  0.00  0.00    +0.149 HD
BRANCH  23  25
ATOM     25  C   UNL     1       5.126  -1.738   6.217  0.00  0.00    +0.101 C 
ATOM     26  C   UNL     1       4.577  -2.931   7.003  0.00  0.00    +0.033 C 
BRANCH  25  27
ATOM     27  C   UNL     1       5.961  -0.877   7.129  0.00  0.00    -0.020 A 
ATOM     28  C   UNL     1       5.394   0.169   7.791  0.00  0.00    +0.006 A 
ATOM     29  C   UNL     1       6.151   0.976   8.639  0.00  0.00    +0.001 A 
ATOM     30  C   UNL     1       7.478   0.742   8.829  0.00  0.00    +0.008 A 
ATOM     31  C   UNL     1       8.098  -0.329   8.164  0.00  0.00    -0.018 A 
ATOM     32  C   UNL     1       7.327  -1.154   7.306  0.00  0.00    -0.013 A 
ATOM     33  C   UNL     1       7.946  -2.229   6.645  0.00  0.00    +0.009 A 
ATOM     34  C   UNL     1       9.272  -2.466   6.840  0.00  0.00    +0.001 A 
ATOM     35  C   UNL     1      10.028  -1.659   7.688  0.00  0.00    +0.001 A 
ATOM     36  C   UNL     1       9.466  -0.602   8.335  0.00  0.00    +0.008 A 
ENDBRANCH  25  27
ENDBRANCH  23  25
ENDBRANCH   5  21
TORSDOF 5
