REMARK  Name = ZINC49065894
REMARK  8 active torsions:
REMARK  status: ('A' for Active; 'I' for Inactive)
REMARK    1  A    between atoms: C_1  and  C_2
REMARK    2  A    between atoms: C_2  and  C_3
REMARK    3  A    between atoms: C_2  and  C_4
REMARK    4  A    between atoms: C_2  and  C_5
REMARK    5  A    between atoms: N_6  and  O_7
REMARK    6  A    between atoms: O_7  and  C_8
REMARK    7  A    between atoms: C_8  and  C_9
REMARK    8  A    between atoms: N_11  and  C_12
REMARK                            x       y       z     vdW  Elec       q    Type
REMARK                         _______ _______ _______ _____ _____    ______ ____
ROOT
ATOM      1  C   UNL     1       2.305   0.952  -4.107  0.00  0.00    +0.358 C 
ENDROOT
BRANCH   1   2
ATOM      2  C   UNL     1       2.998   0.355  -5.305  0.00  0.00    +0.258 C 
ATOM      3  O   UNL     1       3.084  -0.849  -5.417  0.00  0.00    -0.272 OA
ATOM      4  N   UNL     1       3.522   1.160  -6.251  0.00  0.00    -0.283 N 
ATOM      5  H   UNL     1       3.395   2.120  -6.195  0.00  0.00    +0.155 HD
BRANCH   4   6
ATOM      6  C   UNL     1       4.248   0.610  -7.313  0.00  0.00    +0.034 A 
ATOM      7  C   UNL     1       5.341   1.290  -7.834  0.00  0.00    +0.024 A 
ATOM      8  C   UNL     1       6.057   0.745  -8.882  0.00  0.00    +0.016 A 
ATOM      9  C   UNL     1       5.686  -0.478  -9.412  0.00  0.00    +0.013 A 
ATOM     10  C   UNL     1       4.598  -1.158  -8.895  0.00  0.00    +0.016 A 
ATOM     11  C   UNL     1       3.882  -0.620  -7.843  0.00  0.00    +0.024 A 
ATOM     12  I   UNL     1       6.774  -1.300 -11.002  0.00  0.00    -0.044 I 
ENDBRANCH   4   6
ENDBRANCH   1   2
BRANCH   1  13
ATOM     13  O   UNL     1       1.839  -0.096  -3.255  0.00  0.00    -0.383 OA
BRANCH  13  15
ATOM     14  C   UNL     1       0.700  -0.489  -1.242  0.00  0.00    +0.137 C 
ATOM     15  N   UNL     1       1.170   0.361  -2.093  0.00  0.00    -0.073 NA
ATOM     16  N   UNL     1       0.851  -1.840  -1.463  0.00  0.00    -0.344 N 
ATOM     17  H   UNL     1       0.498  -2.479  -0.824  0.00  0.00    +0.144 HD
ATOM     18  H   UNL     1       1.309  -2.153  -2.259  0.00  0.00    +0.144 HD
BRANCH  14  20
ATOM     19  C   UNL     1      -0.042   1.526  -0.003  0.00  0.00    +0.018 C 
ATOM     20  C   UNL     1      -0.012  -0.004  -0.006  0.00  0.00    +0.021 C 
ATOM     21  C   UNL     1       0.727  -0.502   1.238  0.00  0.00    +0.018 C 
ATOM     22  C   UNL     1      -1.444  -0.541   0.002  0.00  0.00    +0.018 C 
ENDBRANCH  14  20
ENDBRANCH  13  15
ENDBRANCH   1  13
TORSDOF 5
