REMARK  Name = ZINC39855483
REMARK  9 active torsions:
REMARK  status: ('A' for Active; 'I' for Inactive)
REMARK    1  A    between atoms: C_1  and  C_2
REMARK    2  A    between atoms: C_6  and  C_7
REMARK    3  A    between atoms: N_9  and  C_10
REMARK    4  A    between atoms: C_11  and  C_19
REMARK    5  A    between atoms: C_19  and  O_21
REMARK    6  A    between atoms: O_21  and  C_22
REMARK    7  A    between atoms: C_24  and  C_29
REMARK    8  A    between atoms: C_24  and  C_30
REMARK    9  A    between atoms: C_26  and  O_28
REMARK                            x       y       z     vdW  Elec       q    Type
REMARK                         _______ _______ _______ _____ _____    ______ ____
ROOT
ATOM      1  C   UNL     1       0.031  -0.400   2.496  0.00  0.00    +0.284 C 
ATOM      2  O   UNL     1       0.017   0.786   2.770  0.00  0.00    -0.266 OA
ATOM      3  N   UNL     1       0.054  -1.319   3.481  0.00  0.00    -0.273 N 
ATOM      4  H   UNL     1       0.065  -2.264   3.263  0.00  0.00    +0.156 HD
ENDROOT
BRANCH   1  10
ATOM      5  C   UNL     1      -0.018   1.503   0.010  0.00  0.00    +0.048 C 
ATOM      6  C   UNL     1       0.002  -0.004   0.002  0.00  0.00    +0.006 A 
ATOM      7  C   UNL     1       0.008  -0.833  -1.122  0.00  0.00    +0.025 A 
ATOM      8  C   UNL     1       0.027  -2.115  -0.680  0.00  0.00    +0.112 A 
ATOM      9  O   UNL     1       0.035  -2.106   0.655  0.00  0.00    -0.454 OA
ATOM     10  C   UNL     1       0.024  -0.828   1.094  0.00  0.00    +0.193 A 
ATOM     11  C   UNL     1       0.035  -3.317  -1.593  0.00  0.00    +0.081 C 
ATOM     12  C   UNL     1      -0.398  -2.866  -2.993  0.00  0.00    -0.025 C 
ATOM     13  C   UNL     1       0.422  -1.643  -3.414  0.00  0.00    +0.043 C 
ATOM     14  C   UNL     1      -0.002  -0.431  -2.574  0.00  0.00    +0.149 C 
ATOM     15  C   UNL     1      -1.884  -2.501  -2.974  0.00  0.00    +0.011 C 
ATOM     16  C   UNL     1      -0.165  -4.003  -3.990  0.00  0.00    +0.011 C 
BRANCH  14  17
ATOM     17  O   UNL     1       0.917   0.643  -2.783  0.00  0.00    -0.387 OA
ATOM     18  H   UNL     1       0.717   1.437  -2.268  0.00  0.00    +0.210 HD
ENDBRANCH  14  17
ENDBRANCH   1  10
BRANCH   3  19
ATOM     19  C   UNL     1       0.060  -0.914   4.805  0.00  0.00    +0.087 A 
ATOM     20  C   UNL     1       0.088  -1.711   5.941  0.00  0.00    +0.091 A 
ATOM     21  C   UNL     1       0.090  -1.034   7.226  0.00  0.00    -0.021 A 
ATOM     22  C   UNL     1       0.063   0.313   7.141  0.00  0.00    -0.004 A 
ATOM     23  S   UNL     1       0.044   0.654   5.406  0.00  0.00    -0.077 S 
ATOM     24  C   UNL     1       0.056   1.287   8.280  0.00  0.00    +0.043 C 
ATOM     25  C   UNL     1      -0.298   0.523   9.565  0.00  0.00    +0.005 C 
ATOM     26  C   UNL     1       0.564  -0.740   9.643  0.00  0.00    +0.005 C 
ATOM     27  C   UNL     1       0.119  -1.741   8.573  0.00  0.00    +0.037 C 
BRANCH  20  28
ATOM     28  C   UNL     1       0.114  -3.172   5.848  0.00  0.00    +0.342 C 
ATOM     29  O   UNL     1       1.178  -3.759   5.797  0.00  0.00    -0.245 OA
BRANCH  28  30
ATOM     30  O   UNL     1      -1.042  -3.866   5.818  0.00  0.00    -0.464 OA
ATOM     31  C   UNL     1      -0.942  -5.289   5.726  0.00  0.00    +0.280 C 
ENDBRANCH  28  30
ENDBRANCH  20  28
ENDBRANCH   3  19
TORSDOF 5
