REMARK  Name = ZINC67577275
REMARK  10 active torsions:
REMARK  status: ('A' for Active; 'I' for Inactive)
REMARK    1  A    between atoms: C_1  and  C_2
REMARK    2  A    between atoms: N_5  and  C_8
REMARK    3  A    between atoms: C_8  and  C_9
REMARK    4  A    between atoms: C_9  and  C_11
REMARK    5  A    between atoms: C_9  and  O_26
REMARK    6  A    between atoms: C_11  and  N_12
REMARK    7  A    between atoms: N_15  and  C_16
REMARK    8  A    between atoms: C_18  and  C_24
REMARK    9  A    between atoms: C_21  and  S_22
REMARK   10  A    between atoms: S_22  and  C_23
REMARK                            x       y       z     vdW  Elec       q    Type
REMARK                         _______ _______ _______ _____ _____    ______ ____
ROOT
ATOM      1  N   UNL     1       0.540  -6.331   4.072  0.00  0.00    -0.297 N 
ATOM      2  C   UNL     1       0.692  -7.641   4.348  0.00  0.00    +0.304 C 
ATOM      3  O   UNL     1       0.344  -8.478   3.537  0.00  0.00    -0.253 OA
ATOM      4  N   UNL     1       1.230  -8.024   5.523  0.00  0.00    -0.268 N 
ATOM      5  H   UNL     1       0.818  -5.664   4.719  0.00  0.00    +0.150 HD
ATOM      6  H   UNL     1       1.567  -7.358   6.142  0.00  0.00    +0.156 HD
ENDROOT
BRANCH   4   7
ATOM      7  C   UNL     1       1.302  -9.386   5.851  0.00  0.00    +0.049 A 
ATOM      8  C   UNL     1       1.527 -10.324   4.862  0.00  0.00    +0.043 A 
ATOM      9  C   UNL     1       1.599 -11.681   5.192  0.00  0.00    +0.054 A 
ATOM     10  C   UNL     1       1.442 -12.083   6.522  0.00  0.00    +0.020 A 
ATOM     11  C   UNL     1       1.218 -11.145   7.505  0.00  0.00    +0.018 A 
ATOM     12  C   UNL     1       1.151  -9.794   7.179  0.00  0.00    +0.029 A 
BRANCH  12  13
ATOM     13  S   UNL     1       0.871  -8.598   8.441  0.00  0.00    -0.127 S 
ATOM     14  C   UNL     1       0.744  -9.582   9.959  0.00  0.00    +0.090 C 
ENDBRANCH  12  13
BRANCH   9  15
ATOM     15  C   UNL     1       1.831 -12.656   4.170  0.00  0.00    +0.099 C 
ATOM     16  N   UNL     1       2.016 -13.431   3.360  0.00  0.00    -0.191 NA
ENDBRANCH   9  15
ENDBRANCH   4   7
BRANCH   1  17
ATOM     17  C   UNL     1      -0.045  -5.915   2.795  0.00  0.00    +0.135 C 
BRANCH  17  18
ATOM     18  C   UNL     1      -0.104  -4.387   2.735  0.00  0.00    +0.115 C 
BRANCH  18  19
ATOM     19  O   UNL     1      -0.910  -3.899   3.809  0.00  0.00    -0.392 OA
ATOM     20  H   UNL     1      -1.822  -4.221   3.795  0.00  0.00    +0.210 HD
ENDBRANCH  18  19
BRANCH  18  21
ATOM     21  C   UNL     1      -0.715  -3.953   1.401  0.00  0.00    -0.046 C 
BRANCH  21  26
ATOM     22  C   UNL     1       0.055   1.516  -0.023  0.00  0.00    +0.007 C 
ATOM     23  C   UNL     1       0.066  -0.014  -0.027  0.00  0.00    -0.018 C 
ATOM     24  C   UNL     1      -1.373  -0.537  -0.007  0.00  0.00    -0.016 C 
ATOM     25  C   UNL     1      -1.355  -2.065   0.070  0.00  0.00    -0.078 C 
ATOM     26  N   UNL     1      -0.662  -2.489   1.292  0.00  0.00    +0.381 N 
ATOM     27  C   UNL     1       0.739  -2.053   1.248  0.00  0.00    -0.078 C 
ATOM     28  C   UNL     1       0.801  -0.524   1.217  0.00  0.00    -0.016 C 
ATOM     29  H   UNL     1      -1.116  -2.077   2.094  0.00  0.00    -0.082 HD
ENDBRANCH  21  26
ENDBRANCH  18  21
ENDBRANCH  17  18
ENDBRANCH   1  17
TORSDOF 8
