REMARK  Name = ZINC46346835
REMARK  11 active torsions:
REMARK  status: ('A' for Active; 'I' for Inactive)
REMARK    1  A    between atoms: C_1  and  C_2
REMARK    2  A    between atoms: C_2  and  C_4
REMARK    3  A    between atoms: C_2  and  O_22
REMARK    4  A    between atoms: N_6  and  N_7
REMARK    5  A    between atoms: N_10  and  C_11
REMARK    6  A    between atoms: C_11  and  C_12
REMARK    7  A    between atoms: C_12  and  C_14
REMARK    8  A    between atoms: C_12  and  N_19
REMARK    9  A    between atoms: N_19  and  C_20
REMARK   10  A    between atoms: N_19  and  C_21
REMARK   11  A    between atoms: O_22  and  C_23
REMARK                            x       y       z     vdW  Elec       q    Type
REMARK                         _______ _______ _______ _____ _____    ______ ____
ROOT
ATOM      1  N   UNL     1      -4.649  -1.346  -1.852  0.00  0.00    -0.218 N 
ATOM      2  C   UNL     1      -5.324  -0.751  -2.855  0.00  0.00    +0.316 C 
ATOM      3  O   UNL     1      -6.527  -0.895  -2.948  0.00  0.00    -0.251 OA
ATOM      4  N   UNL     1      -4.664   0.004  -3.756  0.00  0.00    -0.299 N 
ATOM      5  H   UNL     1      -5.124  -1.889  -1.203  0.00  0.00    +0.174 HD
ATOM      6  H   UNL     1      -3.703   0.119  -3.682  0.00  0.00    +0.150 HD
ENDROOT
BRANCH   1   9
ATOM      7  C   UNL     1      -2.587  -1.776  -0.742  0.00  0.00    +0.270 C 
ATOM      8  O   UNL     1      -3.181  -2.455   0.069  0.00  0.00    -0.270 OA
ATOM      9  N   UNL     1      -3.262  -1.181  -1.745  0.00  0.00    -0.230 N 
ATOM     10  H   UNL     1      -2.787  -0.637  -2.393  0.00  0.00    +0.173 HD
BRANCH   7  12
ATOM     11  C   UNL     1      -0.778  -0.130  -0.336  0.00  0.00    +0.062 C 
ATOM     12  C   UNL     1      -1.095  -1.598  -0.627  0.00  0.00    +0.257 C 
BRANCH  12  13
ATOM     13  O   UNL     1      -0.599  -2.413   0.437  0.00  0.00    -0.477 OA
BRANCH  13  14
ATOM     14  C   UNL     1       0.706  -2.790   0.368  0.00  0.00    +0.157 A 
ATOM     15  C   UNL     1       1.518  -2.301  -0.643  0.00  0.00    +0.048 A 
ATOM     16  C   UNL     1       2.843  -2.686  -0.712  0.00  0.00    +0.004 A 
ATOM     17  C   UNL     1       3.361  -3.559   0.227  0.00  0.00    +0.003 A 
ATOM     18  C   UNL     1       2.554  -4.049   1.238  0.00  0.00    +0.042 A 
ATOM     19  C   UNL     1       1.228  -3.662   1.315  0.00  0.00    +0.165 A 
ATOM     20  F   UNL     1       0.442  -4.136   2.305  0.00  0.00    -0.202 F 
ENDBRANCH  13  14
ENDBRANCH  12  13
ENDBRANCH   7  12
ENDBRANCH   1   9
BRANCH   4  21
ATOM     21  C   UNL     1      -5.397   0.651  -4.847  0.00  0.00    +0.095 C 
BRANCH  21  22
ATOM     22  C   UNL     1      -4.408   1.351  -5.781  0.00  0.00    -0.020 C 
BRANCH  22  23
ATOM     23  C   UNL     1      -3.712   2.461  -5.036  0.00  0.00    -0.052 A 
ATOM     24  C   UNL     1      -2.437   2.277  -4.535  0.00  0.00    +0.009 A 
ATOM     25  C   UNL     1      -1.839   3.295  -3.869  0.00  0.00    +0.045 A 
ATOM     26  S   UNL     1      -3.091   4.566  -3.937  0.00  0.00    -0.105 S 
ATOM     27  C   UNL     1      -4.324   3.656  -4.852  0.00  0.00    +0.047 A 
ENDBRANCH  22  23
BRANCH  22  28
ATOM     28  N   UNL     1      -5.132   1.912  -6.930  0.00  0.00    +0.382 N 
ATOM     29  C   UNL     1      -4.183   2.583  -7.827  0.00  0.00    -0.096 C 
ATOM     30  C   UNL     1      -5.812   0.830  -7.655  0.00  0.00    -0.096 C 
ATOM     31  H   UNL     1      -5.815   2.579  -6.603  0.00  0.00    -0.082 HD
ENDBRANCH  22  28
ENDBRANCH  21  22
ENDBRANCH   4  21
TORSDOF 8
