REMARK  Name = ZINC64152362
REMARK  9 active torsions:
REMARK  status: ('A' for Active; 'I' for Inactive)
REMARK    1  A    between atoms: C_1  and  C_2
REMARK    2  A    between atoms: C_2  and  C_3
REMARK    3  A    between atoms: C_3  and  C_5
REMARK    4  A    between atoms: C_3  and  C_6
REMARK    5  A    between atoms: N_8  and  C_9
REMARK    6  A    between atoms: C_9  and  C_10
REMARK    7  A    between atoms: C_22  and  C_24
REMARK    8  A    between atoms: C_24  and  C_25
REMARK    9  A    between atoms: C_25  and  C_26
REMARK                            x       y       z     vdW  Elec       q    Type
REMARK                         _______ _______ _______ _____ _____    ______ ____
ROOT
ATOM      1  C   UNL     1       2.298  -4.555   3.400  0.00  0.00    +0.157 C 
ATOM      2  N   UNL     1       1.474  -4.144   4.562  0.00  0.00    -0.237 NA
ATOM      3  N   UNL     1       2.454  -3.723   5.579  0.00  0.00    -0.238 NA
ATOM      4  C   UNL     1       3.518  -3.077   4.763  0.00  0.00    +0.141 C 
ATOM      5  N   UNL     1       3.588  -3.847   3.549  0.00  0.00    -0.267 NA
ATOM      6  C   UNL     1       3.887  -3.063   2.330  0.00  0.00    +0.106 C 
ATOM      7  C   UNL     1       4.952  -1.982   2.659  0.00  0.00    +0.123 C 
ATOM      8  N   UNL     1       6.011  -2.414   3.524  0.00  0.00    -0.300 N 
ATOM      9  C   UNL     1       5.860  -2.256   5.005  0.00  0.00    +0.110 C 
ATOM     10  C   UNL     1       4.857  -3.213   5.475  0.00  0.00    +0.055 C 
ATOM     11  C   UNL     1       7.131  -2.959   3.009  0.00  0.00    +0.216 C 
ATOM     12  O   UNL     1       8.023  -3.323   3.745  0.00  0.00    -0.276 OA
ATOM     13  H   UNL     1       0.857  -3.383   4.318  0.00  0.00    +0.142 HD
ATOM     14  H   UNL     1       2.817  -4.519   6.082  0.00  0.00    +0.142 HD
ENDROOT
BRANCH   1  15
ATOM     15  C   UNL     1       1.615  -4.139   2.095  0.00  0.00    +0.140 C 
BRANCH  15  18
ATOM     16  C   UNL     1      -0.382  -4.724   0.828  0.00  0.00    +0.216 C 
ATOM     17  O   UNL     1      -0.092  -3.860   0.028  0.00  0.00    -0.276 OA
ATOM     18  N   UNL     1       0.407  -4.944   1.898  0.00  0.00    -0.312 N 
ATOM     19  H   UNL     1       0.175  -5.635   2.538  0.00  0.00    +0.149 HD
BRANCH  16  20
ATOM     20  C   UNL     1      -1.625  -5.551   0.625  0.00  0.00    +0.072 C 
ATOM     21  C   UNL     1      -1.241  -7.027   0.504  0.00  0.00    +0.017 C 
BRANCH  20  23
ATOM     22  C   UNL     1      -3.659  -5.855  -0.794  0.00  0.00    +0.004 C 
ATOM     23  C   UNL     1      -2.334  -5.102  -0.654  0.00  0.00    +0.009 C 
ENDBRANCH  20  23
ENDBRANCH  16  20
ENDBRANCH  15  18
ENDBRANCH   1  15
BRANCH  11  24
ATOM     24  C   UNL     1       7.275  -3.116   1.517  0.00  0.00    +0.100 C 
BRANCH  24  25
ATOM     25  C   UNL     1       8.628  -3.755   1.199  0.00  0.00    +0.042 C 
BRANCH  25  26
ATOM     26  C   UNL     1       8.772  -3.912  -0.293  0.00  0.00    -0.041 C 
ATOM     27  C   UNL     1       9.387  -3.060  -1.144  0.00  0.00    -0.001 A 
ATOM     28  C   UNL     1      10.079  -1.781  -0.944  0.00  0.00    +0.010 A 
ATOM     29  C   UNL     1      10.605  -1.145  -2.016  0.00  0.00    +0.001 A 
ATOM     30  C   UNL     1      10.507  -1.676  -3.309  0.00  0.00    +0.002 A 
ATOM     31  C   UNL     1       9.886  -2.846  -3.572  0.00  0.00    +0.026 A 
ATOM     32  C   UNL     1       9.297  -3.599  -2.520  0.00  0.00    +0.043 A 
ATOM     33  N   UNL     1       8.651  -4.740  -2.519  0.00  0.00    -0.380 N 
ATOM     34  C   UNL     1       8.263  -5.057  -1.140  0.00  0.00    +0.144 C 
ATOM     35  H   UNL     1       8.464  -5.285  -3.299  0.00  0.00    +0.160 HD
ENDBRANCH  25  26
ENDBRANCH  24  25
ENDBRANCH  11  24
TORSDOF 7
