REMARK  Name = ZINC62851321
REMARK  9 active torsions:
REMARK  status: ('A' for Active; 'I' for Inactive)
REMARK    1  A    between atoms: C_1  and  C_2
REMARK    2  A    between atoms: C_2  and  C_3
REMARK    3  A    between atoms: C_3  and  C_4
REMARK    4  A    between atoms: C_4  and  C_10
REMARK    5  A    between atoms: C_10  and  N_11
REMARK    6  A    between atoms: N_11  and  C_12
REMARK    7  A    between atoms: N_11  and  C_13
REMARK    8  A    between atoms: C_13  and  C_15
REMARK    9  A    between atoms: C_13  and  C_16
REMARK                            x       y       z     vdW  Elec       q    Type
REMARK                         _______ _______ _______ _____ _____    ______ ____
ROOT
ATOM      1  C   UNL     1      -3.603  -2.594   0.369  0.00  0.00    -0.072 C 
ENDROOT
BRANCH   1   2
ATOM      2  C   UNL     1      -2.267  -2.185   0.994  0.00  0.00    -0.047 C 
ATOM      3  C   UNL     1      -1.135  -2.436  -0.006  0.00  0.00    -0.014 C 
ATOM      4  C   UNL     1      -1.050  -3.934  -0.307  0.00  0.00    -0.082 C 
ATOM      5  N   UNL     1      -0.782  -4.672   0.933  0.00  0.00    +0.379 N 
ATOM      6  C   UNL     1      -1.899  -4.493   1.870  0.00  0.00    -0.082 C 
ATOM      7  C   UNL     1      -2.016  -3.017   2.255  0.00  0.00    -0.014 C 
ATOM      8  H   UNL     1      -0.674  -5.653   0.724  0.00  0.00    -0.086 HD
ATOM      9  H   UNL     1       0.067  -4.324   1.353  0.00  0.00    -0.086 HD
BRANCH   2  10
ATOM     10  C   UNL     1      -2.307  -0.700   1.359  0.00  0.00    +0.005 C 
BRANCH  10  12
ATOM     11  C   UNL     1      -1.078   1.153   2.499  0.00  0.00    +0.004 C 
ATOM     12  C   UNL     1      -1.039  -0.332   2.133  0.00  0.00    -0.003 C 
ENDBRANCH  10  12
ENDBRANCH   2  10
ENDBRANCH   1   2
BRANCH   1  13
ATOM     13  N   UNL     1      -3.618  -2.211  -1.049  0.00  0.00    +0.383 N 
ATOM     14  C   UNL     1      -3.650  -0.747  -1.161  0.00  0.00    -0.095 C 
ATOM     15  H   UNL     1      -2.789  -2.566  -1.502  0.00  0.00    -0.081 HD
BRANCH  13  16
ATOM     16  C   UNL     1      -4.810  -2.777  -1.696  0.00  0.00    -0.038 C 
ATOM     17  C   UNL     1      -4.777  -4.303  -1.579  0.00  0.00    -0.008 C 
BRANCH  16  18
ATOM     18  C   UNL     1      -4.825  -2.385  -3.151  0.00  0.00    -0.026 A 
ATOM     19  C   UNL     1      -3.642  -2.085  -3.799  0.00  0.00    +0.005 A 
ATOM     20  C   UNL     1      -3.655  -1.726  -5.133  0.00  0.00    +0.000 A 
ATOM     21  C   UNL     1      -4.853  -1.665  -5.822  0.00  0.00    +0.003 A 
ATOM     22  C   UNL     1      -6.037  -1.965  -5.176  0.00  0.00    +0.038 A 
ATOM     23  C   UNL     1      -6.024  -2.331  -3.841  0.00  0.00    +0.125 A 
ATOM     24  F   UNL     1      -7.181  -2.629  -3.210  0.00  0.00    -0.205 F 
ENDBRANCH  16  18
ENDBRANCH  13  16
ENDBRANCH   1  13
TORSDOF 6
