REMARK  Name = ZINC51762874
REMARK  10 active torsions:
REMARK  status: ('A' for Active; 'I' for Inactive)
REMARK    1  A    between atoms: C_1  and  C_2
REMARK    2  A    between atoms: C_7  and  N_12
REMARK    3  A    between atoms: C_9  and  C_11
REMARK    4  A    between atoms: C_13  and  C_15
REMARK    5  A    between atoms: C_15  and  C_17
REMARK    6  A    between atoms: C_15  and  N_18
REMARK    7  A    between atoms: C_24  and  C_26
REMARK    8  A    between atoms: C_26  and  N_27
REMARK    9  A    between atoms: N_27  and  C_28
REMARK   10  A    between atoms: N_27  and  C_29
REMARK                            x       y       z     vdW  Elec       q    Type
REMARK                         _______ _______ _______ _____ _____    ______ ____
ROOT
ATOM      1  C   UNL     1      -2.287  -4.298   1.743  0.00  0.00    +0.140 C 
ATOM      2  C   UNL     1      -2.822  -4.349   0.311  0.00  0.00    +0.034 C 
ENDROOT
BRANCH   1   3
ATOM      3  N   UNL     1      -2.306  -5.648   2.322  0.00  0.00    -0.289 NA
ATOM      4  C   UNL     1      -1.484  -6.572   1.529  0.00  0.00    +0.104 C 
ATOM      5  C   UNL     1      -1.383  -7.915   2.260  0.00  0.00    +0.123 C 
ATOM      6  N   UNL     1      -2.743  -8.390   2.554  0.00  0.00    -0.301 N 
ATOM      7  C   UNL     1      -3.672  -7.468   3.226  0.00  0.00    +0.123 C 
ATOM      8  C   UNL     1      -3.683  -6.143   2.458  0.00  0.00    +0.104 C 
ATOM      9  C   UNL     1      -3.129  -9.637   2.218  0.00  0.00    +0.199 C 
ATOM     10  O   UNL     1      -2.350 -10.384   1.665  0.00  0.00    -0.278 OA
BRANCH   9  11
ATOM     11  C   UNL     1      -4.528 -10.103   2.530  0.00  0.00    +0.018 C 
BRANCH  11  12
ATOM     12  N   UNL     1      -4.697 -11.487   2.067  0.00  0.00    +0.382 N 
ATOM     13  C   UNL     1      -3.812 -12.373   2.836  0.00  0.00    -0.096 C 
ATOM     14  C   UNL     1      -6.093 -11.901   2.261  0.00  0.00    -0.096 C 
ATOM     15  H   UNL     1      -4.463 -11.545   1.087  0.00  0.00    -0.082 HD
ENDBRANCH  11  12
ENDBRANCH   9  11
ENDBRANCH   1   3
BRANCH   1  17
ATOM     16  N   UNL     1      -0.612  -2.548   1.244  0.00  0.00    -0.311 N 
ATOM     17  C   UNL     1      -0.873  -3.776   1.733  0.00  0.00    +0.230 C 
ATOM     18  O   UNL     1       0.030  -4.462   2.164  0.00  0.00    -0.274 OA
ATOM     19  H   UNL     1      -1.333  -2.000   0.898  0.00  0.00    +0.149 HD
BRANCH  16  25
ATOM     20  C   UNL     1      -0.019   1.526   0.010  0.00  0.00    +0.008 C 
ATOM     21  C   UNL     1       0.002  -0.004   0.002  0.00  0.00    -0.009 C 
ATOM     22  C   UNL     1       0.718  -0.497  -1.257  0.00  0.00    +0.003 C 
ATOM     23  C   UNL     1       0.739  -2.027  -1.265  0.00  0.00    +0.002 C 
ATOM     24  C   UNL     1       1.479  -2.534  -0.026  0.00  0.00    +0.022 C 
ATOM     25  C   UNL     1       0.763  -2.041   1.233  0.00  0.00    +0.076 C 
ATOM     26  C   UNL     1       0.742  -0.511   1.242  0.00  0.00    +0.009 C 
ATOM     27  C   UNL     1       0.026  -0.018   2.500  0.00  0.00    +0.009 C 
ENDBRANCH  16  25
ENDBRANCH   1  17
TORSDOF 5
