REMARK  Name = ZINC43999166
REMARK  8 active torsions:
REMARK  status: ('A' for Active; 'I' for Inactive)
REMARK    1  A    between atoms: C_1  and  C_2
REMARK    2  A    between atoms: C_4  and  C_22
REMARK    3  A    between atoms: C_5  and  C_9
REMARK    4  A    between atoms: C_6  and  C_8
REMARK    5  A    between atoms: C_9  and  C_11
REMARK    6  A    between atoms: C_9  and  N_20
REMARK    7  A    between atoms: C_11  and  N_12
REMARK    8  A    between atoms: N_20  and  C_21
REMARK                            x       y       z     vdW  Elec       q    Type
REMARK                         _______ _______ _______ _____ _____    ______ ____
ROOT
ATOM      1  C   UNL     1       0.070  -4.281  -0.087  0.00  0.00    -0.023 C 
ENDROOT
BRANCH   1   6
ATOM      2  C   UNL     1       0.318   1.462  -0.676  0.00  0.00    +0.044 C 
ATOM      3  C   UNL     1       0.254  -0.036  -0.523  0.00  0.00    -0.050 A 
ATOM      4  C   UNL     1       0.319  -0.849  -1.639  0.00  0.00    +0.007 A 
ATOM      5  C   UNL     1       0.260  -2.223  -1.498  0.00  0.00    -0.048 A 
ATOM      6  C   UNL     1       0.135  -2.784  -0.241  0.00  0.00    -0.054 A 
ATOM      7  C   UNL     1       0.071  -1.971   0.875  0.00  0.00    -0.048 A 
ATOM      8  C   UNL     1       0.134  -0.597   0.735  0.00  0.00    +0.007 A 
ATOM      9  C   UNL     1      -0.066  -2.583   2.246  0.00  0.00    +0.044 C 
ATOM     10  C   UNL     1       0.330  -3.109  -2.715  0.00  0.00    +0.044 C 
ENDBRANCH   1   6
BRANCH   1  11
ATOM     11  N   UNL     1       1.027  -4.711   0.941  0.00  0.00    +0.383 N 
ATOM     12  C   UNL     1       2.395  -4.434   0.482  0.00  0.00    -0.100 C 
ATOM     13  H   UNL     1       0.851  -4.206   1.796  0.00  0.00    -0.085 HD
ATOM     14  H   UNL     1       0.922  -5.700   1.106  0.00  0.00    -0.085 HD
ENDBRANCH   1  11
BRANCH   1  15
ATOM     15  C   UNL     1      -1.344  -4.690   0.331  0.00  0.00    +0.105 C 
BRANCH  15  16
ATOM     16  N   UNL     1      -1.383  -6.133   0.578  0.00  0.00    -0.243 N 
ATOM     17  C   UNL     1      -1.559  -6.961  -0.463  0.00  0.00    +0.222 C 
ATOM     18  O   UNL     1      -1.691  -6.497  -1.575  0.00  0.00    -0.275 OA
ATOM     19  C   UNL     1      -1.596  -8.455  -0.277  0.00  0.00    +0.097 C 
ATOM     20  C   UNL     1      -2.129  -8.774   1.124  0.00  0.00    +0.018 C 
ATOM     21  C   UNL     1      -1.259  -8.047   2.155  0.00  0.00    +0.097 C 
ATOM     22  C   UNL     1      -1.235  -6.576   1.836  0.00  0.00    +0.222 C 
ATOM     23  O   UNL     1      -1.084  -5.775   2.733  0.00  0.00    -0.275 OA
ENDBRANCH  15  16
ENDBRANCH   1  15
TORSDOF 4
