REMARK  Name = ZINC54269601
REMARK  3 active torsions:
REMARK  status: ('A' for Active; 'I' for Inactive)
REMARK    1  A    between atoms: C_3  and  N_11
REMARK    2  A    between atoms: C_4  and  N_8
REMARK    3  A    between atoms: C_16  and  C_18
REMARK                            x       y       z     vdW  Elec       q    Type
REMARK                         _______ _______ _______ _____ _____    ______ ____
ROOT
ATOM      1  N   UNL     1       3.424   2.682   0.028  0.00  0.00    -0.317 N 
ATOM      2  C   UNL     1       4.074   3.182  -1.191  0.00  0.00    +0.106 C 
ATOM      3  C   UNL     1       4.811   4.484  -0.859  0.00  0.00    +0.019 C 
ATOM      4  C   UNL     1       5.769   4.239   0.309  0.00  0.00    +0.004 C 
ATOM      5  C   UNL     1       4.973   3.806   1.542  0.00  0.00    +0.032 C 
ATOM      6  C   UNL     1       4.237   2.502   1.239  0.00  0.00    +0.159 C 
ENDROOT
BRANCH   1   9
ATOM      7  C   UNL     1      -0.212   3.080   0.380  0.00  0.00    +0.005 A 
ATOM      8  C   UNL     1       1.138   3.373   0.371  0.00  0.00    +0.025 A 
ATOM      9  C   UNL     1       2.059   2.388   0.037  0.00  0.00    +0.064 A 
ATOM     10  C   UNL     1       1.620   1.111  -0.288  0.00  0.00    +0.182 A 
ATOM     11  C   UNL     1       0.267   0.824  -0.278  0.00  0.00    +0.155 A 
ATOM     12  C   UNL     1      -0.648   1.809   0.056  0.00  0.00    +0.041 A 
ATOM     13  F   UNL     1      -0.162  -0.417  -0.595  0.00  0.00    -0.203 F 
BRANCH  10  14
ATOM     14  N   UNL     1       2.598   0.059  -0.645  0.00  0.00    +0.061 N 
ATOM     15  O   UNL     1       3.065  -0.649   0.216  0.00  0.00    -0.126 OA
ATOM     16  O   UNL     1       2.931  -0.090  -1.798  0.00  0.00    -0.126 OA
ENDBRANCH  10  14
ENDBRANCH   1   9
BRANCH   6  17
ATOM     17  C   UNL     1       3.343   2.147   2.399  0.00  0.00    +0.231 C 
ATOM     18  O   UNL     1       2.276   2.707   2.536  0.00  0.00    -0.274 OA
ATOM     19  N   UNL     1       3.730   1.208   3.284  0.00  0.00    -0.328 N 
ATOM     20  H   UNL     1       4.583   0.760   3.175  0.00  0.00    +0.145 HD
ATOM     21  H   UNL     1       3.155   0.979   4.031  0.00  0.00    +0.145 HD
ENDBRANCH   6  17
TORSDOF 3
