REMARK  Name = ZINC41142992
REMARK  6 active torsions:
REMARK  status: ('A' for Active; 'I' for Inactive)
REMARK    1  A    between atoms: C_1  and  O_2
REMARK    2  A    between atoms: O_2  and  C_3
REMARK    3  A    between atoms: C_8  and  C_9
REMARK    4  A    between atoms: C_11  and  C_21
REMARK    5  A    between atoms: N_13  and  C_14
REMARK    6  A    between atoms: C_21  and  N_22
REMARK                            x       y       z     vdW  Elec       q    Type
REMARK                         _______ _______ _______ _____ _____    ______ ____
ROOT
ATOM      1  C   UNL     1      -0.012  -2.834  -0.058  0.00  0.00    +0.078 A 
ATOM      2  C   UNL     1       1.260  -2.343  -0.139  0.00  0.00    +0.051 A 
ATOM      3  C   UNL     1       2.142  -3.421  -0.060  0.00  0.00    +0.047 A 
ATOM      4  N   UNL     1       1.445  -4.523   0.064  0.00  0.00    -0.173 NA
ATOM      5  N   UNL     1       0.084  -4.190   0.075  0.00  0.00    -0.232 N 
ENDROOT
BRANCH   5   6
ATOM      6  C   UNL     1      -0.985  -5.087   0.197  0.00  0.00    +0.066 A 
ATOM      7  C   UNL     1      -2.109  -4.943  -0.607  0.00  0.00    +0.029 A 
ATOM      8  C   UNL     1      -3.162  -5.829  -0.484  0.00  0.00    +0.022 A 
ATOM      9  C   UNL     1      -3.098  -6.858   0.438  0.00  0.00    +0.041 A 
ATOM     10  C   UNL     1      -1.979  -7.003   1.240  0.00  0.00    +0.022 A 
ATOM     11  C   UNL     1      -0.921  -6.125   1.117  0.00  0.00    +0.029 A 
ATOM     12 CL   UNL     1      -4.423  -7.969   0.590  0.00  0.00    -0.084 Cl
ENDBRANCH   5   6
BRANCH   1  18
ATOM     13  C   UNL     1      -1.457  -1.088  -1.102  0.00  0.00    +0.129 A 
ATOM     14  C   UNL     1      -2.633  -0.357  -1.136  0.00  0.00    +0.046 A 
ATOM     15  C   UNL     1      -3.607  -0.568  -0.178  0.00  0.00    +0.004 A 
ATOM     16  C   UNL     1      -3.416  -1.508   0.819  0.00  0.00    +0.001 A 
ATOM     17  C   UNL     1      -2.250  -2.245   0.865  0.00  0.00    +0.013 A 
ATOM     18  C   UNL     1      -1.262  -2.044  -0.099  0.00  0.00    +0.042 A 
BRANCH  13  20
ATOM     19  C   UNL     1      -0.767   0.110  -3.036  0.00  0.00    +0.277 C 
ATOM     20  O   UNL     1      -0.499  -0.882  -2.043  0.00  0.00    -0.494 OA
ENDBRANCH  13  20
ENDBRANCH   1  18
BRANCH   3  21
ATOM     21  C   UNL     1       3.645  -3.333  -0.110  0.00  0.00    -0.028 C 
BRANCH  21  22
ATOM     22  N   UNL     1       4.179  -3.293   1.258  0.00  0.00    +0.382 N 
ATOM     23  H   UNL     1       5.186  -3.235   1.225  0.00  0.00    -0.090 HD
ATOM     24  H   UNL     1       3.811  -2.487   1.739  0.00  0.00    -0.090 HD
ATOM     25  H   UNL     1       3.907  -4.131   1.750  0.00  0.00    -0.090 HD
ENDBRANCH  21  22
ENDBRANCH   3  21
TORSDOF 5
