REMARK  Name = ZINC32227387
REMARK  7 active torsions:
REMARK  status: ('A' for Active; 'I' for Inactive)
REMARK    1  A    between atoms: C_1  and  C_2
REMARK    2  A    between atoms: C_2  and  C_3
REMARK    3  A    between atoms: C_6  and  N_9
REMARK    4  A    between atoms: N_9  and  C_10
REMARK    5  A    between atoms: C_10  and  C_11
REMARK    6  A    between atoms: C_20  and  C_22
REMARK    7  A    between atoms: C_22  and  N_23
REMARK                            x       y       z     vdW  Elec       q    Type
REMARK                         _______ _______ _______ _____ _____    ______ ____
ROOT
ATOM      1  N   UNL     1       0.391  -0.740  -1.203  0.00  0.00    -0.269 N 
ATOM      2  C   UNL     1      -0.010  -0.159  -0.055  0.00  0.00    +0.203 C 
ATOM      3  O   UNL     1      -0.471  -0.836   0.840  0.00  0.00    -0.277 OA
ENDROOT
BRANCH   1   7
ATOM      4  C   UNL     1      -0.313  -4.797  -1.839  0.00  0.00    -0.048 A 
ATOM      5  C   UNL     1      -0.858  -4.167  -0.735  0.00  0.00    +0.005 A 
ATOM      6  C   UNL     1      -0.626  -2.822  -0.521  0.00  0.00    +0.024 A 
ATOM      7  C   UNL     1       0.154  -2.103  -1.416  0.00  0.00    +0.037 A 
ATOM      8  C   UNL     1       0.695  -2.737  -2.527  0.00  0.00    +0.024 A 
ATOM      9  C   UNL     1       0.465  -4.083  -2.732  0.00  0.00    +0.005 A 
BRANCH   4  11
ATOM     10  C   UNL     1      -1.832  -6.436  -2.913  0.00  0.00    +0.009 C 
ATOM     11  C   UNL     1      -0.567  -6.264  -2.069  0.00  0.00    +0.032 C 
ENDBRANCH   4  11
ENDBRANCH   1   7
BRANCH   1  12
ATOM     12  C   UNL     1       1.074   0.054  -2.227  0.00  0.00    +0.148 C 
BRANCH  12  13
ATOM     13  C   UNL     1       2.559   0.026  -1.976  0.00  0.00    -0.026 A 
ATOM     14  C   UNL     1       3.141   0.988  -1.170  0.00  0.00    +0.009 A 
ATOM     15  C   UNL     1       4.503   0.963  -0.933  0.00  0.00    +0.050 A 
ATOM     16  C   UNL     1       5.290  -0.019  -1.512  0.00  0.00    +0.166 A 
ATOM     17  C   UNL     1       4.705  -0.984  -2.327  0.00  0.00    +0.167 A 
ATOM     18  C   UNL     1       3.339  -0.957  -2.556  0.00  0.00    +0.054 A 
ATOM     19  O   UNL     1       5.680  -1.830  -2.771  0.00  0.00    -0.453 OA
ATOM     20  C   UNL     1       6.921  -1.134  -2.551  0.00  0.00    +0.466 C 
ATOM     21  O   UNL     1       6.632  -0.260  -1.444  0.00  0.00    -0.453 OA
ENDBRANCH  12  13
ENDBRANCH   1  12
BRANCH   2  22
ATOM     22  C   UNL     1       0.114   1.333   0.117  0.00  0.00    +0.012 C 
BRANCH  22  23
ATOM     23  N   UNL     1      -0.516   1.734   1.383  0.00  0.00    +0.384 N 
ATOM     24  H   UNL     1      -0.426   2.823   1.508  0.00  0.00    -0.089 HD
ATOM     25  H   UNL     1      -0.015   1.226   2.219  0.00  0.00    -0.089 HD
ATOM     26  H   UNL     1      -1.580   1.454   1.367  0.00  0.00    -0.089 HD
ENDBRANCH  22  23
ENDBRANCH   2  22
TORSDOF 6
