REMARK  Name = ZINC44714292
REMARK  7 active torsions:
REMARK  status: ('A' for Active; 'I' for Inactive)
REMARK    1  A    between atoms: C_1  and  C_2
REMARK    2  A    between atoms: C_3  and  C_9
REMARK    3  A    between atoms: C_4  and  C_8
REMARK    4  A    between atoms: C_9  and  C_11
REMARK    5  A    between atoms: C_9  and  N_12
REMARK    6  A    between atoms: C_13  and  C_15
REMARK    7  A    between atoms: C_26  and  C_28
REMARK                            x       y       z     vdW  Elec       q    Type
REMARK                         _______ _______ _______ _____ _____    ______ ____
ROOT
ATOM      1  C   UNL     1      -2.404  -1.285  -5.633  0.00  0.00    +0.100 C 
ATOM      2  C   UNL     1      -3.714  -1.635  -4.891  0.00  0.00    +0.121 C 
ATOM      3  N   UNL     1      -4.649  -0.543  -5.249  0.00  0.00    -0.295 N 
ATOM      4  C   UNL     1      -4.373  -0.274  -6.680  0.00  0.00    +0.115 C 
ATOM      5  C   UNL     1      -2.842  -0.395  -6.809  0.00  0.00    -0.004 C 
ATOM      6  C   UNL     1      -2.473  -1.053  -8.135  0.00  0.00    -0.010 C 
ATOM      7  C   UNL     1      -2.865  -0.123  -9.287  0.00  0.00    -0.082 C 
ATOM      8  N   UNL     1      -2.166   1.159  -9.143  0.00  0.00    +0.379 N 
ATOM      9  C   UNL     1      -2.597   1.829  -7.909  0.00  0.00    -0.082 C 
ATOM     10  C   UNL     1      -2.193   0.981  -6.699  0.00  0.00    -0.010 C 
ATOM     11  C   UNL     1      -5.549   0.068  -4.452  0.00  0.00    +0.265 C 
ATOM     12  O   UNL     1      -5.593  -0.200  -3.268  0.00  0.00    -0.268 OA
ATOM     13  H   UNL     1      -1.171   0.996  -9.105  0.00  0.00    -0.086 HD
ATOM     14  H   UNL     1      -2.378   1.748  -9.934  0.00  0.00    -0.086 HD
ENDROOT
BRANCH  11  15
ATOM     15  C   UNL     1      -6.485   1.068  -5.021  0.00  0.00    +0.126 A 
ATOM     16  C   UNL     1      -7.332   1.780  -4.160  0.00  0.00    +0.033 A 
ATOM     17  C   UNL     1      -8.198   2.704  -4.671  0.00  0.00    +0.012 A 
ATOM     18  C   UNL     1      -8.208   2.909  -6.064  0.00  0.00    +0.000 A 
ATOM     19  C   UNL     1      -9.072   3.843  -6.657  0.00  0.00    +0.010 A 
ATOM     20  C   UNL     1      -9.053   4.015  -8.008  0.00  0.00    +0.001 A 
ATOM     21  C   UNL     1      -8.187   3.276  -8.812  0.00  0.00    +0.002 A 
ATOM     22  C   UNL     1      -7.336   2.362  -8.273  0.00  0.00    +0.028 A 
ATOM     23  C   UNL     1      -7.325   2.155  -6.880  0.00  0.00    +0.072 A 
ATOM     24  N   UNL     1      -6.497   1.270  -6.324  0.00  0.00    -0.242 NA
ENDBRANCH  11  15
BRANCH   1  26
ATOM     25  N   UNL     1      -0.137  -0.641  -4.882  0.00  0.00    -0.308 N 
ATOM     26  C   UNL     1      -1.471  -0.530  -4.722  0.00  0.00    +0.219 C 
ATOM     27  O   UNL     1      -1.920   0.178  -3.846  0.00  0.00    -0.275 OA
ATOM     28  H   UNL     1       0.222  -1.208  -5.583  0.00  0.00    +0.149 HD
BRANCH  25  29
ATOM     29  C   UNL     1       0.770   0.093  -3.996  0.00  0.00    +0.104 C 
ATOM     30  C   UNL     1       0.885   1.542  -4.472  0.00  0.00    +0.033 C 
BRANCH  29  33
ATOM     31  C   UNL     1       2.311  -0.850  -6.550  0.00  0.00    +0.065 C 
ATOM     32  C   UNL     1       2.797  -0.962  -5.128  0.00  0.00    +0.038 A 
ATOM     33  C   UNL     1       2.131  -0.554  -4.023  0.00  0.00    +0.015 A 
ATOM     34  C   UNL     1       2.929  -0.840  -2.910  0.00  0.00    +0.065 A 
ATOM     35  N   UNL     1       4.034  -1.398  -3.332  0.00  0.00    -0.179 NA
ATOM     36  N   UNL     1       3.972  -1.491  -4.728  0.00  0.00    -0.281 N 
ATOM     37  H   UNL     1       4.655  -1.867  -5.306  0.00  0.00    +0.189 HD
ATOM     38  C   UNL     1       2.576  -0.553  -1.473  0.00  0.00    +0.068 C 
ENDBRANCH  29  33
ENDBRANCH  25  29
ENDBRANCH   1  26
TORSDOF 4
