REMARK  Name = ZINC40144811
REMARK  7 active torsions:
REMARK  status: ('A' for Active; 'I' for Inactive)
REMARK    1  A    between atoms: C_1  and  C_2
REMARK    2  A    between atoms: C_2  and  C_4
REMARK    3  A    between atoms: C_2  and  N_23
REMARK    4  A    between atoms: N_6  and  C_7
REMARK    5  A    between atoms: C_9  and  S_14
REMARK    6  A    between atoms: C_12  and  O_13
REMARK    7  A    between atoms: S_14  and  N_17
REMARK                            x       y       z     vdW  Elec       q    Type
REMARK                         _______ _______ _______ _____ _____    ______ ____
ROOT
ATOM      1  C   UNL     1      -3.584  -0.601   1.046  0.00  0.00    +0.077 A 
ATOM      2  C   UNL     1      -4.085  -1.412   0.038  0.00  0.00    +0.055 A 
ATOM      3  C   UNL     1      -5.414  -1.790   0.053  0.00  0.00    +0.107 A 
ATOM      4  C   UNL     1      -6.247  -1.362   1.070  0.00  0.00    +0.032 A 
ATOM      5  C   UNL     1      -5.755  -0.554   2.078  0.00  0.00    +0.049 A 
ATOM      6  C   UNL     1      -4.422  -0.175   2.074  0.00  0.00    +0.138 A 
ENDROOT
BRANCH   1   9
ATOM      7  C   UNL     1      -1.611   0.010  -0.139  0.00  0.00    +0.240 C 
ATOM      8  O   UNL     1      -2.190  -0.196  -1.185  0.00  0.00    -0.273 OA
ATOM      9  N   UNL     1      -2.236  -0.217   1.033  0.00  0.00    -0.281 N 
ATOM     10  H   UNL     1      -1.753  -0.114   1.868  0.00  0.00    +0.155 HD
BRANCH   7  12
ATOM     11  C   UNL     1      -0.131   1.869   0.569  0.00  0.00    +0.041 C 
ATOM     12  C   UNL     1      -0.193   0.520  -0.151  0.00  0.00    +0.171 C 
BRANCH  12  13
ATOM     13  N   UNL     1       0.256   0.684  -1.535  0.00  0.00    -0.327 N 
ATOM     14  C   UNL     1      -0.305   1.502  -2.480  0.00  0.00    +0.105 A 
ATOM     15  C   UNL     1       0.416   1.347  -3.607  0.00  0.00    +0.101 A 
ATOM     16  N   UNL     1       1.390   0.459  -3.357  0.00  0.00    -0.352 N 
ATOM     17  C   UNL     1       1.303   0.062  -2.117  0.00  0.00    +0.174 A 
ATOM     18  H   UNL     1       2.056   0.162  -3.997  0.00  0.00    +0.166 HD
ENDBRANCH  12  13
ENDBRANCH   7  12
ENDBRANCH   1   9
BRANCH   3  19
ATOM     19  S   UNL     1      -6.049  -2.820  -1.228  0.00  0.00    +0.061 S 
ATOM     20  O   UNL     1      -7.450  -2.585  -1.282  0.00  0.00    -0.153 OA
ATOM     21  O   UNL     1      -5.202  -2.636  -2.355  0.00  0.00    -0.153 OA
BRANCH  19  22
ATOM     22  N   UNL     1      -5.851  -4.389  -0.739  0.00  0.00    -0.172 NA
ATOM     23  C   UNL     1      -4.620  -5.131  -1.053  0.00  0.00    +0.137 C 
ATOM     24  C   UNL     1      -4.090  -5.759   0.241  0.00  0.00    +0.177 C 
ATOM     25  O   UNL     1      -5.138  -6.504   0.867  0.00  0.00    -0.377 OA
ATOM     26  C   UNL     1      -6.260  -5.713   1.266  0.00  0.00    +0.177 C 
ATOM     27  C   UNL     1      -6.899  -5.081   0.029  0.00  0.00    +0.137 C 
ENDBRANCH  19  22
ENDBRANCH   3  19
BRANCH   6  28
ATOM     28  O   UNL     1      -3.935   0.615   3.067  0.00  0.00    -0.505 OA
ATOM     29  H   UNL     1      -4.003   1.562   2.886  0.00  0.00    +0.292 HD
ENDBRANCH   6  28
TORSDOF 6
