REMARK  Name = ZINC62199538
REMARK  10 active torsions:
REMARK  status: ('A' for Active; 'I' for Inactive)
REMARK    1  A    between atoms: C_1  and  C_2
REMARK    2  A    between atoms: C_2  and  C_3
REMARK    3  A    between atoms: C_3  and  C_5
REMARK    4  A    between atoms: C_3  and  N_6
REMARK    5  A    between atoms: C_7  and  C_16
REMARK    6  A    between atoms: C_9  and  C_15
REMARK    7  A    between atoms: C_10  and  C_13
REMARK    8  A    between atoms: C_13  and  N_14
REMARK    9  A    between atoms: C_19  and  C_23
REMARK   10  A    between atoms: C_21  and  C_22
REMARK                            x       y       z     vdW  Elec       q    Type
REMARK                         _______ _______ _______ _____ _____    ______ ____
ROOT
ATOM      1  N   UNL     1      -2.079  -0.054  -1.255  0.00  0.00    -0.305 N 
ATOM      2  C   UNL     1      -3.306   0.545  -1.188  0.00  0.00    +0.053 A 
ATOM      3  C   UNL     1      -4.010   0.818  -2.340  0.00  0.00    +0.030 A 
ATOM      4  C   UNL     1      -3.465   0.479  -3.581  0.00  0.00    -0.042 A 
ATOM      5  C   UNL     1      -2.238  -0.120  -3.634  0.00  0.00    +0.003 A 
ATOM      6  C   UNL     1      -1.540  -0.381  -2.445  0.00  0.00    +0.254 A 
ATOM      7  O   UNL     1      -0.442  -0.912  -2.489  0.00  0.00    -0.267 OA
ATOM      8  C   UNL     1      -4.224   0.771  -4.850  0.00  0.00    +0.044 C 
ENDROOT
BRANCH   2   9
ATOM      9  C   UNL     1      -3.879   0.902   0.127  0.00  0.00    +0.002 A 
ATOM     10  C   UNL     1      -4.226  -0.100   1.036  0.00  0.00    +0.010 A 
ATOM     11  C   UNL     1      -4.760   0.240   2.261  0.00  0.00    +0.004 A 
ATOM     12  C   UNL     1      -4.952   1.570   2.591  0.00  0.00    -0.050 A 
ATOM     13  C   UNL     1      -4.611   2.568   1.695  0.00  0.00    +0.007 A 
ATOM     14  C   UNL     1      -4.070   2.242   0.468  0.00  0.00    -0.041 A 
ATOM     15  C   UNL     1      -3.693   3.330  -0.504  0.00  0.00    +0.044 C 
ATOM     16  C   UNL     1      -5.536   1.934   3.931  0.00  0.00    +0.044 C 
ENDBRANCH   2   9
BRANCH   1  17
ATOM     17  C   UNL     1      -1.341  -0.338  -0.022  0.00  0.00    +0.087 C 
ATOM     18  C   UNL     1      -1.104  -1.845   0.096  0.00  0.00    +0.031 C 
BRANCH  17  20
ATOM     19  C   UNL     1      -0.232   1.901  -0.045  0.00  0.00    +0.006 C 
ATOM     20  C   UNL     1       0.005   0.389  -0.054  0.00  0.00    +0.021 C 
ENDBRANCH  17  20
ENDBRANCH   1  17
BRANCH   5  21
ATOM     21  C   UNL     1      -1.635  -0.493  -4.964  0.00  0.00    -0.045 C 
BRANCH  21  22
ATOM     22  N   UNL     1      -0.740   0.582  -5.414  0.00  0.00    +0.381 N 
ATOM     23  H   UNL     1      -1.265   1.438  -5.511  0.00  0.00    -0.090 HD
ATOM     24  H   UNL     1      -0.005   0.713  -4.736  0.00  0.00    -0.090 HD
ATOM     25  H   UNL     1      -0.337   0.332  -6.305  0.00  0.00    -0.090 HD
ENDBRANCH  21  22
ENDBRANCH   5  21
TORSDOF 5
