REMARK  Name = ZINC63513848
REMARK  7 active torsions:
REMARK  status: ('A' for Active; 'I' for Inactive)
REMARK    1  A    between atoms: C_1  and  C_2
REMARK    2  A    between atoms: C_4  and  C_12
REMARK    3  A    between atoms: C_12  and  C_13
REMARK    4  A    between atoms: C_13  and  N_14
REMARK    5  A    between atoms: N_14  and  S_15
REMARK    6  A    between atoms: S_15  and  C_18
REMARK    7  A    between atoms: C_20  and  C_27
REMARK                            x       y       z     vdW  Elec       q    Type
REMARK                         _______ _______ _______ _____ _____    ______ ____
ROOT
ATOM      1  N   UNL     1      -5.100  -1.334  -1.844  0.00  0.00    -0.189 NA
ATOM      2  H   UNL     1      -4.965  -0.662  -2.530  0.00  0.00    +0.148 HD
ENDROOT
BRANCH   1   3
ATOM      3  S   UNL     1      -6.581  -2.054  -1.671  0.00  0.00    +0.065 S 
ATOM      4  O   UNL     1      -7.436  -1.464  -2.640  0.00  0.00    -0.153 OA
ATOM      5  O   UNL     1      -6.348  -3.455  -1.613  0.00  0.00    -0.153 OA
BRANCH   3   6
ATOM      6  C   UNL     1      -7.208  -1.583  -0.092  0.00  0.00    +0.188 A 
ATOM      7  H   UNL     1      -8.861   0.752   1.395  0.00  0.00    +0.170 HD
ATOM      8  C   UNL     1      -7.891  -0.428   0.056  0.00  0.00    +0.049 A 
ATOM      9  N   UNL     1      -8.370  -0.078   1.288  0.00  0.00    -0.310 N 
ATOM     10  C   UNL     1      -8.167  -0.873   2.354  0.00  0.00    +0.327 A 
ATOM     11  O   UNL     1      -8.602  -0.542   3.441  0.00  0.00    -0.247 OA
ATOM     12  N   UNL     1      -7.490  -2.030   2.235  0.00  0.00    -0.273 N 
ATOM     13  C   UNL     1      -7.006  -2.414   1.036  0.00  0.00    +0.281 A 
ATOM     14  O   UNL     1      -6.398  -3.463   0.926  0.00  0.00    -0.266 OA
ATOM     15  C   UNL     1      -8.124   0.471  -1.131  0.00  0.00    +0.065 C 
ATOM     16  H   UNL     1      -7.352  -2.592   3.014  0.00  0.00    +0.173 HD
ENDBRANCH   3   6
ENDBRANCH   1   3
BRANCH   1  17
ATOM     17  C   UNL     1      -3.994  -1.712  -0.962  0.00  0.00    +0.110 C 
BRANCH  17  18
ATOM     18  C   UNL     1      -2.676  -1.203  -1.549  0.00  0.00    +0.050 C 
BRANCH  18  21
ATOM     19  C   UNL     1       0.157   0.223  -0.880  0.00  0.00    +0.035 C 
ATOM     20  C   UNL     1      -0.070  -1.290  -0.844  0.00  0.00    +0.103 C 
ATOM     21  C   UNL     1      -1.538  -1.592  -0.642  0.00  0.00    -0.037 C 
ATOM     22  C   UNL     1      -1.622  -2.283   0.518  0.00  0.00    -0.001 A 
ATOM     23  C   UNL     1      -2.756  -2.856   1.254  0.00  0.00    +0.010 A 
ATOM     24  C   UNL     1      -2.521  -3.507   2.416  0.00  0.00    +0.001 A 
ATOM     25  C   UNL     1      -1.227  -3.648   2.934  0.00  0.00    +0.002 A 
ATOM     26  C   UNL     1      -0.135  -3.149   2.315  0.00  0.00    +0.026 A 
ATOM     27  C   UNL     1      -0.265  -2.446   1.086  0.00  0.00    +0.043 A 
ATOM     28  N   UNL     1       0.626  -1.878   0.307  0.00  0.00    -0.378 N 
ATOM     29  H   UNL     1       1.583  -1.851   0.464  0.00  0.00    +0.160 HD
ENDBRANCH  18  21
ENDBRANCH  17  18
ENDBRANCH   1  17
TORSDOF 5
