REMARK  Name = ZINC65423614
REMARK  4 active torsions:
REMARK  status: ('A' for Active; 'I' for Inactive)
REMARK    1  A    between atoms: C_1  and  C_2
REMARK    2  A    between atoms: C_2  and  C_3
REMARK    3  A    between atoms: N_7  and  C_8
REMARK    4  A    between atoms: C_8  and  C_9
REMARK                            x       y       z     vdW  Elec       q    Type
REMARK                         _______ _______ _______ _____ _____    ______ ____
ROOT
ATOM      1  C   UNL     1      -1.738   0.555  -3.115  0.00  0.00    +0.235 C 
ATOM      2  O   UNL     1      -0.910   1.437  -3.192  0.00  0.00    -0.274 OA
ATOM      3  N   UNL     1      -3.025   0.809  -3.426  0.00  0.00    -0.297 N 
ATOM      4  C   UNL     1      -4.044  -0.246  -3.333  0.00  0.00    +0.123 C 
ATOM      5  C   UNL     1      -4.827  -0.290  -4.650  0.00  0.00    +0.104 C 
ATOM      6  N   UNL     1      -5.338   1.053  -4.951  0.00  0.00    -0.287 NA
ATOM      7  C   UNL     1      -6.243   1.042  -6.108  0.00  0.00    +0.104 C 
ATOM      8  C   UNL     1      -6.976   2.383  -6.173  0.00  0.00    +0.119 C 
ATOM      9  N   UNL     1      -6.022   3.484  -6.072  0.00  0.00    -0.313 N 
ATOM     10  C   UNL     1      -4.781   3.332  -5.597  0.00  0.00    +0.232 C 
ATOM     11  O   UNL     1      -4.066   4.308  -5.511  0.00  0.00    -0.274 OA
ATOM     12  C   UNL     1      -4.238   2.001  -5.166  0.00  0.00    +0.161 C 
ATOM     13  C   UNL     1      -3.443   2.152  -3.860  0.00  0.00    +0.136 C 
ATOM     14  H   UNL     1      -6.302   4.367  -6.363  0.00  0.00    +0.149 HD
ENDROOT
BRANCH   1  15
ATOM     15  C   UNL     1      -1.329  -0.826  -2.672  0.00  0.00    +0.218 C 
BRANCH  15  20
ATOM     16  C   UNL     1       0.707  -0.490  -1.238  0.00  0.00    +0.087 A 
ATOM     17  N   UNL     1       1.997  -0.644  -1.369  0.00  0.00    -0.350 N 
ATOM     18  C   UNL     1       2.266  -1.092  -2.604  0.00  0.00    +0.101 A 
ATOM     19  C   UNL     1       1.099  -1.221  -3.264  0.00  0.00    +0.105 A 
ATOM     20  N   UNL     1       0.110  -0.844  -2.396  0.00  0.00    -0.327 N 
ATOM     21  H   UNL     1       2.656  -0.462  -0.681  0.00  0.00    +0.166 HD
BRANCH  16  23
ATOM     22  C   UNL     1      -0.019   1.526   0.010  0.00  0.00    +0.012 C 
ATOM     23  C   UNL     1       0.002  -0.004   0.002  0.00  0.00    +0.069 C 
ENDBRANCH  16  23
ENDBRANCH  15  20
ENDBRANCH   1  15
TORSDOF 3
