REMARK  Name = ZINC20681603
REMARK  8 active torsions:
REMARK  status: ('A' for Active; 'I' for Inactive)
REMARK    1  A    between atoms: C_1  and  C_2
REMARK    2  A    between atoms: C_2  and  C_3
REMARK    3  A    between atoms: C_3  and  O_4
REMARK    4  A    between atoms: O_4  and  C_5
REMARK    5  A    between atoms: C_5  and  C_7
REMARK    6  A    between atoms: C_20  and  C_23
REMARK    7  A    between atoms: C_26  and  O_30
REMARK    8  A    between atoms: C_28  and  O_29
REMARK                            x       y       z     vdW  Elec       q    Type
REMARK                         _______ _______ _______ _____ _____    ______ ____
ROOT
ATOM      1  C   UNL     1       2.473   1.580   0.308  0.00  0.00    +0.059 A 
ATOM      2  C   UNL     1       1.075   1.578   0.346  0.00  0.00    +0.017 A 
ATOM      3  C   UNL     1       0.396   2.760   0.289  0.00  0.00    +0.024 A 
ATOM      4  C   UNL     1       1.087   3.965   0.182  0.00  0.00    +0.031 A 
ATOM      5  C   UNL     1       2.476   3.984   0.141  0.00  0.00    -0.019 A 
ATOM      6  C   UNL     1       3.166   2.787   0.203  0.00  0.00    +0.021 A 
ATOM      7  C   UNL     1       3.256   5.256   0.037  0.00  0.00    +0.049 C 
ATOM      8  C   UNL     1       3.820   5.447  -1.351  0.00  0.00    -0.023 C 
ATOM      9  C   UNL     1       3.793   6.715  -1.681  0.00  0.00    -0.030 C 
ATOM     10  C   UNL     1       3.212   7.546  -0.554  0.00  0.00    +0.033 C 
ATOM     11  C   UNL     1       2.391   6.511   0.271  0.00  0.00    +0.029 C 
ATOM     12  C   UNL     1       1.036   6.345  -0.424  0.00  0.00    +0.108 C 
ATOM     13  N   UNL     1       0.368   5.156   0.115  0.00  0.00    -0.336 N 
ATOM     14  H   UNL     1      -0.676   5.219   0.454  0.00  0.00    +0.147 HD
ENDROOT
BRANCH  12  15
ATOM     15  C   UNL     1       1.246   6.178  -1.907  0.00  0.00    +0.015 A 
ATOM     16  C   UNL     1       1.520   4.928  -2.429  0.00  0.00    +0.012 A 
ATOM     17  C   UNL     1       1.713   4.771  -3.788  0.00  0.00    +0.046 A 
ATOM     18  C   UNL     1       1.632   5.869  -4.632  0.00  0.00    +0.120 A 
ATOM     19  C   UNL     1       1.357   7.124  -4.112  0.00  0.00    +0.091 A 
ATOM     20  C   UNL     1       1.159   7.278  -2.748  0.00  0.00    +0.125 A 
BRANCH  20  21
ATOM     21  O   UNL     1       0.884   8.506  -2.235  0.00  0.00    -0.506 OA
ATOM     22  H   UNL     1       0.815   9.378  -2.902  0.00  0.00    +0.292 HD
ENDBRANCH  20  21
BRANCH  18  23
ATOM     23  O   UNL     1       1.822   5.714  -5.969  0.00  0.00    -0.507 OA
ATOM     24  H   UNL     1       1.757   6.585  -6.638  0.00  0.00    +0.292 HD
ENDBRANCH  18  23
ENDBRANCH  12  15
BRANCH   1  25
ATOM     25  C   UNL     1       3.215   0.308   0.374  0.00  0.00    +0.339 C 
ATOM     26  O   UNL     1       4.429   0.310   0.337  0.00  0.00    -0.245 OA
BRANCH  25  27
ATOM     27  O   UNL     1       2.546  -0.858   0.477  0.00  0.00    -0.461 OA
BRANCH  27  28
ATOM     28  C   UNL     1       3.341  -2.071   0.537  0.00  0.00    +0.232 C 
BRANCH  28  30
ATOM     29  C   UNL     1       3.251  -4.562   0.714  0.00  0.00    +0.007 C 
ATOM     30  C   UNL     1       2.413  -3.283   0.650  0.00  0.00    +0.038 C 
ENDBRANCH  28  30
ENDBRANCH  27  28
ENDBRANCH  25  27
ENDBRANCH   1  25
TORSDOF 7
