REMARK  Name = ZINC64502417
REMARK  5 active torsions:
REMARK  status: ('A' for Active; 'I' for Inactive)
REMARK    1  A    between atoms: C_1  and  C_2
REMARK    2  A    between atoms: C_2  and  C_3
REMARK    3  A    between atoms: N_5  and  C_6
REMARK    4  A    between atoms: C_11  and  N_16
REMARK    5  A    between atoms: C_17  and  C_19
REMARK                            x       y       z     vdW  Elec       q    Type
REMARK                         _______ _______ _______ _____ _____    ______ ____
ROOT
ATOM      1  C   UNL     1       1.552  -2.279  -2.646  0.00  0.00    +0.224 C 
ATOM      2  N   UNL     1       1.352  -3.721  -2.843  0.00  0.00    -0.316 N 
ATOM      3  C   UNL     1       2.481  -4.538  -2.817  0.00  0.00    +0.044 A 
ATOM      4  C   UNL     1       2.484  -5.934  -2.985  0.00  0.00    +0.047 A 
ATOM      5  C   UNL     1       3.660  -6.656  -2.942  0.00  0.00    +0.035 A 
ATOM      6  C   UNL     1       4.878  -6.025  -2.731  0.00  0.00    +0.024 A 
ATOM      7  C   UNL     1       4.899  -4.651  -2.562  0.00  0.00    +0.018 A 
ATOM      8  C   UNL     1       3.725  -3.934  -2.607  0.00  0.00    +0.032 A 
ATOM      9  S   UNL     1       3.375  -2.198  -2.435  0.00  0.00    -0.082 S 
ATOM     10  H   UNL     1       0.466  -4.091  -2.985  0.00  0.00    +0.149 HD
ENDROOT
BRANCH   1  13
ATOM     11  C   UNL     1       0.725  -0.489  -1.214  0.00  0.00    +0.215 C 
ATOM     12  O   UNL     1       1.176   0.312  -2.006  0.00  0.00    -0.276 OA
ATOM     13  N   UNL     1       0.860  -1.810  -1.442  0.00  0.00    -0.288 N 
ATOM     14  H   UNL     1       0.500  -2.451  -0.810  0.00  0.00    +0.151 HD
BRANCH  11  16
ATOM     15  C   UNL     1      -0.001   1.523   0.040  0.00  0.00    +0.013 C 
ATOM     16  C   UNL     1       0.014  -0.007   0.024  0.00  0.00    +0.092 C 
ENDBRANCH  11  16
ENDBRANCH   1  13
BRANCH   5  17
ATOM     17  N   UNL     1       3.623  -8.046  -3.114  0.00  0.00    -0.283 N 
ATOM     18  C   UNL     1       4.627  -8.672  -3.760  0.00  0.00    +0.244 C 
ATOM     19  O   UNL     1       5.601  -8.045  -4.119  0.00  0.00    -0.273 OA
ATOM     20  H   UNL     1       2.875  -8.558  -2.769  0.00  0.00    +0.155 HD
BRANCH  18  21
ATOM     21  C   UNL     1       4.539 -10.151  -4.036  0.00  0.00    +0.190 C 
ATOM     22  C   UNL     1       4.481 -10.921  -2.735  0.00  0.00    +0.016 C 
ATOM     23  C   UNL     1       5.569 -11.724  -2.726  0.00  0.00    -0.004 A 
ATOM     24  C   UNL     1       6.076 -12.702  -1.755  0.00  0.00    +0.010 A 
ATOM     25  C   UNL     1       7.220 -13.367  -2.030  0.00  0.00    +0.001 A 
ATOM     26  C   UNL     1       7.934 -13.147  -3.216  0.00  0.00    +0.002 A 
ATOM     27  C   UNL     1       7.532 -12.266  -4.156  0.00  0.00    +0.026 A 
ATOM     28  C   UNL     1       6.341 -11.511  -3.971  0.00  0.00    +0.043 A 
ATOM     29  N   UNL     1       5.752 -10.610  -4.723  0.00  0.00    -0.370 N 
ATOM     30  H   UNL     1       6.064 -10.300  -5.587  0.00  0.00    +0.161 HD
ENDBRANCH  18  21
ENDBRANCH   5  17
TORSDOF 4
