REMARK  Name = ZINC26328438
REMARK  7 active torsions:
REMARK  status: ('A' for Active; 'I' for Inactive)
REMARK    1  A    between atoms: C_1  and  N_2
REMARK    2  A    between atoms: N_2  and  C_3
REMARK    3  A    between atoms: N_2  and  C_12
REMARK    4  A    between atoms: C_3  and  C_4
REMARK    5  A    between atoms: C_8  and  C_10
REMARK    6  A    between atoms: C_12  and  C_13
REMARK    7  A    between atoms: N_19  and  C_20
REMARK                            x       y       z     vdW  Elec       q    Type
REMARK                         _______ _______ _______ _____ _____    ______ ____
ROOT
ATOM      1  C   UNL     1       1.308   2.297  -0.005  0.00  0.00    +0.120 A 
ATOM      2  N   UNL     1       1.868   2.697  -1.133  0.00  0.00    -0.202 NA
ATOM      3  C   UNL     1       3.113   3.167  -1.131  0.00  0.00    +0.217 A 
ATOM      4  N   UNL     1       3.793   3.235   0.008  0.00  0.00    -0.181 NA
ATOM      5  C   UNL     1       3.228   2.832   1.141  0.00  0.00    +0.224 A 
ATOM      6  N   UNL     1       1.980   2.368   1.131  0.00  0.00    -0.201 NA
ATOM      7  N   UNL     1       3.931   2.900   2.327  0.00  0.00    -0.284 N 
ATOM      8  N   UNL     1       3.696   3.584  -2.310  0.00  0.00    -0.327 N 
ATOM      9  H   UNL     1       3.433   2.653   3.277  0.00  0.00    +0.155 HD
ATOM     10  H   UNL     1       4.725   3.973  -2.307  0.00  0.00    +0.145 HD
ATOM     11  H   UNL     1       3.132   3.527  -3.253  0.00  0.00    +0.145 HD
ENDROOT
BRANCH   7  12
ATOM     12  C   UNL     1       5.277   3.284   2.322  0.00  0.00    +0.034 A 
ATOM     13  C   UNL     1       6.093   2.943   1.251  0.00  0.00    +0.026 A 
ATOM     14  C   UNL     1       7.420   3.326   1.246  0.00  0.00    +0.040 A 
ATOM     15  C   UNL     1       7.939   4.041   2.312  0.00  0.00    +0.124 A 
ATOM     16  C   UNL     1       7.129   4.378   3.383  0.00  0.00    +0.040 A 
ATOM     17  C   UNL     1       5.800   4.001   3.390  0.00  0.00    +0.026 A 
ATOM     18  F   UNL     1       9.238   4.411   2.307  0.00  0.00    -0.205 F 
ENDBRANCH   7  12
BRANCH   1  19
ATOM     19  C   UNL     1      -0.102   1.766  -0.012  0.00  0.00    -0.001 C 
BRANCH  19  21
ATOM     20  C   UNL     1       0.552  -0.377   0.907  0.00  0.00    -0.095 C 
ATOM     21  N   UNL     1      -0.076   0.313  -0.228  0.00  0.00    +0.385 N 
ATOM     22  H   UNL     1       0.533   0.114  -1.122  0.00  0.00    -0.081 HD
BRANCH  21  23
ATOM     23  C   UNL     1      -1.427  -0.207  -0.477  0.00  0.00    -0.043 C 
BRANCH  23  24
ATOM     24  C   UNL     1      -1.338  -1.640  -0.933  0.00  0.00    -0.063 A 
ATOM     25  C   UNL     1      -1.234  -1.930  -2.282  0.00  0.00    +0.002 A 
ATOM     26  C   UNL     1      -1.147  -3.243  -2.709  0.00  0.00    +0.001 A 
ATOM     27  C   UNL     1      -1.174  -4.274  -1.792  0.00  0.00    +0.019 A 
ATOM     28  C   UNL     1      -1.284  -3.988  -0.430  0.00  0.00    +0.052 A 
ATOM     29  C   UNL     1      -1.367  -2.660  -0.005  0.00  0.00    +0.020 A 
BRANCH  28  30
ATOM     30  C   UNL     1      -1.314  -5.053   0.528  0.00  0.00    +0.099 C 
ATOM     31  N   UNL     1      -1.337  -5.897   1.287  0.00  0.00    -0.191 NA
ENDBRANCH  28  30
ENDBRANCH  23  24
ENDBRANCH  21  23
ENDBRANCH  19  21
ENDBRANCH   1  19
TORSDOF 6
