REMARK  Name = ZINC36243791
REMARK  8 active torsions:
REMARK  status: ('A' for Active; 'I' for Inactive)
REMARK    1  A    between atoms: C_1  and  C_2
REMARK    2  A    between atoms: C_3  and  N_22
REMARK    3  A    between atoms: C_8  and  C_21
REMARK    4  A    between atoms: C_9  and  C_11
REMARK    5  A    between atoms: C_14  and  O_19
REMARK    6  A    between atoms: C_15  and  O_17
REMARK    7  A    between atoms: O_17  and  C_18
REMARK    8  A    between atoms: O_19  and  C_20
REMARK                            x       y       z     vdW  Elec       q    Type
REMARK                         _______ _______ _______ _____ _____    ______ ____
ROOT
ATOM      1  C   UNL     1      -0.018   1.503   0.010  0.00  0.00    +0.066 C 
ATOM      2  C   UNL     1       0.002  -0.004   0.002  0.00  0.00    +0.043 A 
ATOM      3  C   UNL     1       0.006  -0.670  -1.179  0.00  0.00    +0.044 A 
ATOM      4  C   UNL     1       0.025  -2.079  -1.196  0.00  0.00    +0.028 A 
ATOM      5  C   UNL     1       0.040  -2.767  -0.024  0.00  0.00    +0.047 A 
ATOM      6  C   UNL     1       0.036  -2.059   1.196  0.00  0.00    +0.116 A 
ATOM      7  N   UNL     1       0.023  -0.689   1.186  0.00  0.00    -0.300 N 
ATOM      8  C   UNL     1       0.029  -0.274   2.488  0.00  0.00    +0.046 A 
ATOM      9  C   UNL     1       0.052  -1.394   3.265  0.00  0.00    +0.068 A 
ATOM     10  N   UNL     1       0.049  -2.466   2.458  0.00  0.00    -0.339 N 
ATOM     11  C   UNL     1       0.014   1.153   2.974  0.00  0.00    +0.066 C 
ATOM     12  H   UNL     1       0.063  -3.390   2.751  0.00  0.00    +0.167 HD
ENDROOT
BRANCH   9  13
ATOM     13  C   UNL     1       0.066  -1.422   4.748  0.00  0.00    +0.004 A 
ATOM     14  C   UNL     1       0.909  -0.567   5.455  0.00  0.00    +0.014 A 
ATOM     15  C   UNL     1       0.922  -0.594   6.835  0.00  0.00    +0.050 A 
ATOM     16  C   UNL     1       0.096  -1.471   7.521  0.00  0.00    +0.162 A 
ATOM     17  C   UNL     1      -0.749  -2.328   6.820  0.00  0.00    +0.162 A 
ATOM     18  C   UNL     1      -0.769  -2.300   5.437  0.00  0.00    +0.059 A 
BRANCH  17  19
ATOM     19  O   UNL     1      -1.558  -3.188   7.495  0.00  0.00    -0.491 OA
ATOM     20  C   UNL     1      -2.398  -4.038   6.712  0.00  0.00    +0.277 C 
ENDBRANCH  17  19
BRANCH  16  21
ATOM     21  O   UNL     1       0.112  -1.495   8.881  0.00  0.00    -0.491 OA
ATOM     22  C   UNL     1       1.003  -0.590   9.535  0.00  0.00    +0.277 C 
ENDBRANCH  16  21
ENDBRANCH   9  13
BRANCH   3  23
ATOM     23  N   UNL     1      -0.010   0.044  -2.384  0.00  0.00    -0.357 N 
ATOM     24  H   UNL     1      -0.024   1.014  -2.373  0.00  0.00    +0.142 HD
ATOM     25  H   UNL     1      -0.008  -0.431  -3.230  0.00  0.00    +0.142 HD
ENDBRANCH   3  23
TORSDOF 4
