REMARK  Name = ZINC35208482
REMARK  6 active torsions:
REMARK  status: ('A' for Active; 'I' for Inactive)
REMARK    1  A    between atoms: C_1  and  C_2
REMARK    2  A    between atoms: C_2  and  C_3
REMARK    3  A    between atoms: C_2  and  C_4
REMARK    4  A    between atoms: C_9  and  C_12
REMARK    5  A    between atoms: C_19  and  C_21
REMARK    6  A    between atoms: C_21  and  O_22
REMARK                            x       y       z     vdW  Elec       q    Type
REMARK                         _______ _______ _______ _____ _____    ______ ____
ROOT
ATOM      1  C   UNL     1      -0.263  -0.561   1.203  0.00  0.00    +0.218 C 
ATOM      2  O   UNL     1       0.717  -1.122   0.758  0.00  0.00    -0.275 OA
ATOM      3  N   UNL     1      -0.393  -0.387   2.533  0.00  0.00    -0.301 N 
ATOM      4  C   UNL     1      -1.624   0.185   3.096  0.00  0.00    +0.108 C 
ATOM      5  C   UNL     1      -1.253   1.379   3.980  0.00  0.00    +0.032 C 
ATOM      6  C   UNL     1      -0.230   0.935   5.028  0.00  0.00    +0.078 C 
ATOM      7  C   UNL     1       1.038   0.441   4.328  0.00  0.00    +0.032 C 
ATOM      8  C   UNL     1       0.691  -0.769   3.448  0.00  0.00    +0.108 C 
ENDROOT
BRANCH   6   9
ATOM      9  C   UNL     1       0.111   2.100   5.922  0.00  0.00    +0.219 C 
ATOM     10  O   UNL     1      -0.179   3.228   5.585  0.00  0.00    -0.275 OA
ATOM     11  N   UNL     1       0.740   1.887   7.095  0.00  0.00    -0.296 N 
ATOM     12  C   UNL     1       1.214   0.545   7.458  0.00  0.00    +0.108 C 
ATOM     13  C   UNL     1       2.702   0.627   7.815  0.00  0.00    +0.019 C 
ATOM     14  C   UNL     1       2.902   1.681   8.907  0.00  0.00    +0.003 C 
ATOM     15  C   UNL     1       2.454   3.049   8.386  0.00  0.00    +0.025 C 
ATOM     16  C   UNL     1       0.969   2.995   8.033  0.00  0.00    +0.101 C 
BRANCH  16  17
ATOM     17  C   UNL     1       0.551   4.314   7.380  0.00  0.00    +0.178 C 
BRANCH  17  18
ATOM     18  O   UNL     1       1.403   4.586   6.267  0.00  0.00    -0.393 OA
ATOM     19  H   UNL     1       1.196   5.409   5.804  0.00  0.00    +0.209 HD
ENDBRANCH  17  18
ENDBRANCH  16  17
ENDBRANCH   6   9
BRANCH   1  21
ATOM     20  C   UNL     1      -1.122   1.432   0.004  0.00  0.00    +0.017 C 
ATOM     21  C   UNL     1      -1.334  -0.060   0.269  0.00  0.00    +0.069 C 
ATOM     22  C   UNL     1      -1.258  -0.829  -1.052  0.00  0.00    +0.017 C 
ENDBRANCH   1  21
TORSDOF 4
