REMARK  Name = ZINC20920084
REMARK  15 active torsions:
REMARK  status: ('A' for Active; 'I' for Inactive)
REMARK    1  A    between atoms: C_1  and  O_2
REMARK    2  A    between atoms: O_2  and  C_3
REMARK    3  A    between atoms: C_5  and  C_13
REMARK    4  A    between atoms: C_7  and  O_11
REMARK    5  A    between atoms: C_8  and  O_9
REMARK    6  A    between atoms: O_9  and  C_10
REMARK    7  A    between atoms: O_11  and  C_12
REMARK    8  A    between atoms: N_14  and  N_15
REMARK    9  A    between atoms: C_19  and  S_22
REMARK   10  A    between atoms: N_20  and  N_21
REMARK   11  A    between atoms: S_22  and  C_23
REMARK   12  A    between atoms: C_23  and  C_24
REMARK   13  A    between atoms: C_24  and  C_25
REMARK   14  A    between atoms: N_27  and  C_28
REMARK   15  A    between atoms: C_33  and  N_34
REMARK                            x       y       z     vdW  Elec       q    Type
REMARK                         _______ _______ _______ _____ _____    ______ ____
ROOT
ATOM      1  N   UNL     1       1.709  -1.732  -0.107  0.00  0.00    -0.204 N 
ATOM      2  C   UNL     1       1.268  -0.417  -0.085  0.00  0.00    +0.254 A 
ATOM      3  N   UNL     1       2.028   0.651  -0.066  0.00  0.00    -0.109 NA
ATOM      4  N   UNL     1       1.194   1.776  -0.047  0.00  0.00    -0.119 NA
ATOM      5  C   UNL     1      -0.050   1.359  -0.056  0.00  0.00    +0.210 A 
ATOM      6  N   UNL     1      -0.036  -0.007  -0.079  0.00  0.00    -0.211 N 
ATOM      7  H   UNL     1       0.981  -2.556  -0.122  0.00  0.00    +0.177 HD
ENDROOT
BRANCH   6   8
ATOM      8  N   UNL     1      -1.134  -0.820  -0.093  0.00  0.00    -0.294 N 
ATOM      9  H   UNL     1      -2.143  -0.383  -0.087  0.00  0.00    +0.163 HD
ATOM     10  H   UNL     1      -1.008  -1.913  -0.111  0.00  0.00    +0.163 HD
ENDBRANCH   6   8
BRANCH   1  12
ATOM     11  C   UNL     1       3.496  -3.241  -0.132  0.00  0.00    +0.138 C 
ATOM     12  N   UNL     1       3.083  -2.010  -0.111  0.00  0.00    -0.188 NA
BRANCH  11  15
ATOM     13  C   UNL     1       6.743  -5.128  -0.162  0.00  0.00    +0.166 A 
ATOM     14  C   UNL     1       5.387  -4.857  -0.158  0.00  0.00    +0.059 A 
ATOM     15  C   UNL     1       4.941  -3.533  -0.136  0.00  0.00    +0.002 A 
ATOM     16  C   UNL     1       5.867  -2.487  -0.122  0.00  0.00    +0.059 A 
ATOM     17  C   UNL     1       7.222  -2.765  -0.121  0.00  0.00    +0.166 A 
ATOM     18  C   UNL     1       7.663  -4.085  -0.143  0.00  0.00    +0.204 A 
BRANCH  13  20
ATOM     19  C   UNL     1       6.179  -7.439  -0.203  0.00  0.00    +0.277 C 
ATOM     20  O   UNL     1       7.178  -6.417  -0.184  0.00  0.00    -0.491 OA
ENDBRANCH  13  20
BRANCH  18  21
ATOM     21  O   UNL     1       8.996  -4.355  -0.147  0.00  0.00    -0.488 OA
ATOM     22  C   UNL     1       9.633  -4.461  -1.422  0.00  0.00    +0.277 C 
ENDBRANCH  18  21
BRANCH  17  23
ATOM     23  O   UNL     1       8.124  -1.748  -0.104  0.00  0.00    -0.491 OA
ATOM     24  C   UNL     1       7.601  -0.418  -0.082  0.00  0.00    +0.277 C 
ENDBRANCH  17  23
ENDBRANCH  11  15
ENDBRANCH   1  12
BRANCH   5  25
ATOM     25  S   UNL     1      -1.485   2.381  -0.046  0.00  0.00    -0.084 S 
BRANCH  25  26
ATOM     26  C   UNL     1      -0.822   4.069  -0.013  0.00  0.00    +0.086 C 
BRANCH  26  27
ATOM     27  C   UNL     1      -1.978   5.071  -0.003  0.00  0.00    +0.107 C 
BRANCH  27  28
ATOM     28  C   UNL     1      -1.427   6.473   0.024  0.00  0.00    +0.218 C 
ATOM     29  O   UNL     1      -0.228   6.654   0.034  0.00  0.00    -0.275 OA
ATOM     30  N   UNL     1      -2.268   7.527   0.038  0.00  0.00    -0.284 N 
ATOM     31  H   UNL     1      -3.353   7.367  -0.044  0.00  0.00    +0.155 HD
BRANCH  30  32
ATOM     32  C   UNL     1      -1.759   8.825   0.156  0.00  0.00    +0.064 A 
ATOM     33  C   UNL     1      -0.549   9.156  -0.439  0.00  0.00    +0.025 A 
ATOM     34  C   UNL     1      -0.053  10.440  -0.325  0.00  0.00    +0.002 A 
ATOM     35  C   UNL     1      -0.754  11.393   0.390  0.00  0.00    +0.002 A 
ATOM     36  C   UNL     1      -1.957  11.065   0.989  0.00  0.00    +0.034 A 
ATOM     37  C   UNL     1      -2.461   9.784   0.874  0.00  0.00    +0.147 A 
BRANCH  37  38
ATOM     38  N   UNL     1      -3.748   9.435   1.516  0.00  0.00    +0.058 N 
ATOM     39  O   UNL     1      -4.412  10.299   2.060  0.00  0.00    -0.126 OA
ATOM     40  O   UNL     1      -4.144   8.283   1.500  0.00  0.00    -0.126 OA
ENDBRANCH  37  38
ENDBRANCH  30  32
ENDBRANCH  27  28
ENDBRANCH  26  27
ENDBRANCH  25  26
ENDBRANCH   5  25
TORSDOF 12
