REMARK  Name = ZINC39167694
REMARK  8 active torsions:
REMARK  status: ('A' for Active; 'I' for Inactive)
REMARK    1  A    between atoms: C_1  and  C_2
REMARK    2  A    between atoms: C_2  and  C_3
REMARK    3  A    between atoms: C_3  and  C_4
REMARK    4  A    between atoms: C_6  and  C_24
REMARK    5  A    between atoms: C_8  and  C_22
REMARK    6  A    between atoms: C_9  and  N_21
REMARK    7  A    between atoms: N_10  and  C_15
REMARK    8  A    between atoms: C_25  and  C_30
REMARK                            x       y       z     vdW  Elec       q    Type
REMARK                         _______ _______ _______ _____ _____    ______ ____
ROOT
ATOM      1  C   UNL     1      -1.570  -2.167  -0.181  0.00  0.00    +0.067 C 
ATOM      2  C   UNL     1      -1.564  -2.838   0.945  0.00  0.00    +0.010 C 
ATOM      3  C   UNL     1      -1.729  -2.445   2.386  0.00  0.00    +0.100 C 
ATOM      4  C   UNL     1      -2.682  -3.453   2.996  0.00  0.00    +0.075 C 
ATOM      5  C   UNL     1      -3.053  -4.569   2.360  0.00  0.00    +0.089 C 
ATOM      6  N   UNL     1      -2.654  -4.939   1.101  0.00  0.00    -0.261 N 
ATOM      7  C   UNL     1      -1.457  -4.307   0.529  0.00  0.00    +0.249 C 
ATOM      8  N   UNL     1      -1.520  -4.217  -0.932  0.00  0.00    -0.159 NA
ATOM      9  N   UNL     1      -1.558  -3.018  -1.239  0.00  0.00    -0.157 NA
ENDROOT
BRANCH   3  10
ATOM     10  C   UNL     1      -2.310  -1.058   2.481  0.00  0.00    +0.045 A 
ATOM     11  C   UNL     1      -1.728   0.004   3.070  0.00  0.00    +0.140 A 
ATOM     12  O   UNL     1      -2.555   1.053   2.945  0.00  0.00    -0.358 OA
ATOM     13  N   UNL     1      -3.706   0.619   2.244  0.00  0.00    -0.066 NA
ATOM     14  C   UNL     1      -3.552  -0.645   1.964  0.00  0.00    +0.176 A 
ATOM     15 CL   UNL     1      -4.683  -1.645   1.107  0.00  0.00    -0.058 Cl
ATOM     16  C   UNL     1      -0.383   0.013   3.750  0.00  0.00    +0.089 C 
ENDBRANCH   3  10
BRANCH   6  17
ATOM     17  C   UNL     1      -3.371  -5.896   0.378  0.00  0.00    +0.037 A 
ATOM     18  C   UNL     1      -2.788  -7.120   0.075  0.00  0.00    +0.023 A 
ATOM     19  C   UNL     1      -3.499  -8.064  -0.640  0.00  0.00    +0.002 A 
ATOM     20  C   UNL     1      -4.789  -7.791  -1.055  0.00  0.00    +0.000 A 
ATOM     21  C   UNL     1      -5.373  -6.574  -0.756  0.00  0.00    +0.002 A 
ATOM     22  C   UNL     1      -4.670  -5.628  -0.035  0.00  0.00    +0.023 A 
ENDBRANCH   6  17
BRANCH   5  23
ATOM     23  N   UNL     1      -3.920  -5.433   3.036  0.00  0.00    -0.404 NA
ATOM     24  H   UNL     1      -4.064  -5.096   3.976  0.00  0.00    +0.122 HD
ATOM     25  H   UNL     1      -4.804  -5.469   2.552  0.00  0.00    +0.122 HD
ATOM     26  H   UNL     1      -3.516  -6.357   3.069  0.00  0.00    +0.122 HD
ENDBRANCH   5  23
BRANCH   4  27
ATOM     27  C   UNL     1      -3.205  -3.201   4.305  0.00  0.00    +0.099 C 
ATOM     28  N   UNL     1      -3.620  -3.001   5.343  0.00  0.00    -0.191 NA
ENDBRANCH   4  27
BRANCH   1  29
ATOM     29  C   UNL     1      -1.591  -0.663  -0.287  0.00  0.00    +0.057 C 
BRANCH  29  31
ATOM     30  C   UNL     1      -0.184   1.383  -0.556  0.00  0.00    +0.004 C 
ATOM     31  C   UNL     1      -0.162  -0.143  -0.449  0.00  0.00    +0.003 C 
ENDBRANCH  29  31
ENDBRANCH   1  29
TORSDOF 6
