REMARK  Name = ZINC64651097
REMARK  6 active torsions:
REMARK  status: ('A' for Active; 'I' for Inactive)
REMARK    1  A    between atoms: C_1  and  C_2
REMARK    2  A    between atoms: C_4  and  C_19
REMARK    3  A    between atoms: C_7  and  C_13
REMARK    4  A    between atoms: C_9  and  C_12
REMARK    5  A    between atoms: C_19  and  N_20
REMARK    6  A    between atoms: C_21  and  C_23
REMARK                            x       y       z     vdW  Elec       q    Type
REMARK                         _______ _______ _______ _____ _____    ______ ____
ROOT
ATOM      1  C   UNL     1      -0.025   1.531  -0.011  0.00  0.00    +0.044 C 
ATOM      2  C   UNL     1      -0.002   0.024  -0.014  0.00  0.00    -0.049 A 
ATOM      3  C   UNL     1       0.002  -0.656  -1.240  0.00  0.00    +0.010 A 
ATOM      4  C   UNL     1       0.023  -2.003  -1.326  0.00  0.00    -0.007 A 
ATOM      5  C   UNL     1       0.041  -2.798  -0.147  0.00  0.00    +0.048 A 
ATOM      6  N   UNL     1       0.061  -4.097   0.029  0.00  0.00    -0.373 N 
ATOM      7  C   UNL     1       0.073  -4.374   1.470  0.00  0.00    +0.136 C 
ATOM      8  C   UNL     1       0.056  -3.024   2.152  0.00  0.00    -0.037 C 
ATOM      9  C   UNL     1       0.037  -2.104   1.160  0.00  0.00    -0.000 A 
ATOM     10  C   UNL     1       0.021  -0.636   1.166  0.00  0.00    +0.013 A 
ATOM     11  C   UNL     1       0.059  -2.757   3.635  0.00  0.00    +0.042 C 
ATOM     12  H   UNL     1       0.068  -4.764  -0.675  0.00  0.00    +0.161 HD
ENDROOT
BRANCH   7  13
ATOM     13  C   UNL     1      -1.148  -5.167   1.857  0.00  0.00    -0.021 A 
ATOM     14  C   UNL     1      -2.366  -4.894   1.263  0.00  0.00    +0.006 A 
ATOM     15  C   UNL     1      -3.487  -5.622   1.617  0.00  0.00    +0.000 A 
ATOM     16  C   UNL     1      -3.389  -6.624   2.565  0.00  0.00    +0.000 A 
ATOM     17  C   UNL     1      -2.171  -6.897   3.158  0.00  0.00    +0.000 A 
ATOM     18  C   UNL     1      -1.049  -6.172   2.801  0.00  0.00    +0.006 A 
ENDBRANCH   7  13
BRANCH   4  19
ATOM     19  C   UNL     1       0.026  -2.667  -2.678  0.00  0.00    +0.141 C 
BRANCH  19  20
ATOM     20  N   UNL     1      -1.329  -3.119  -3.003  0.00  0.00    -0.311 N 
ATOM     21  C   UNL     1      -1.569  -3.745  -4.173  0.00  0.00    +0.218 C 
ATOM     22  O   UNL     1      -0.662  -3.935  -4.956  0.00  0.00    -0.275 OA
ATOM     23  H   UNL     1      -2.055  -2.967  -2.377  0.00  0.00    +0.149 HD
BRANCH  21  24
ATOM     24  C   UNL     1      -2.963  -4.210  -4.507  0.00  0.00    +0.092 C 
ATOM     25  C   UNL     1      -2.961  -4.883  -5.881  0.00  0.00    +0.016 C 
ATOM     26  C   UNL     1      -4.369  -5.385  -6.208  0.00  0.00    +0.020 C 
ATOM     27  C   UNL     1      -5.333  -4.195  -6.254  0.00  0.00    +0.109 C 
ATOM     28  N   UNL     1      -5.233  -3.456  -4.987  0.00  0.00    -0.285 N 
ATOM     29  C   UNL     1      -3.910  -3.007  -4.533  0.00  0.00    +0.122 C 
ATOM     30  C   UNL     1      -6.335  -3.196  -4.256  0.00  0.00    +0.300 C 
ATOM     31  O   UNL     1      -6.230  -2.669  -3.165  0.00  0.00    -0.253 OA
ATOM     32  N   UNL     1      -7.553  -3.521  -4.733  0.00  0.00    -0.313 N 
ATOM     33  H   UNL     1      -7.633  -4.006  -5.569  0.00  0.00    +0.146 HD
ATOM     34  H   UNL     1      -8.350  -3.269  -4.240  0.00  0.00    +0.146 HD
ENDBRANCH  21  24
ENDBRANCH  19  20
ENDBRANCH   4  19
TORSDOF 4
