REMARK  Name = ZINC28914792
REMARK  9 active torsions:
REMARK  status: ('A' for Active; 'I' for Inactive)
REMARK    1  A    between atoms: C_1  and  C_2
REMARK    2  A    between atoms: C_2  and  C_4
REMARK    3  A    between atoms: C_2  and  O_27
REMARK    4  A    between atoms: C_4  and  N_5
REMARK    5  A    between atoms: N_14  and  C_15
REMARK    6  A    between atoms: C_15  and  C_16
REMARK    7  A    between atoms: N_18  and  C_19
REMARK    8  A    between atoms: C_24  and  O_25
REMARK    9  A    between atoms: O_25  and  C_26
REMARK                            x       y       z     vdW  Elec       q    Type
REMARK                         _______ _______ _______ _____ _____    ______ ____
ROOT
ATOM      1  N   UNL     1       1.630  -1.770  -0.041  0.00  0.00    -0.314 N 
ATOM      2  C   UNL     1       1.243  -0.447  -0.020  0.00  0.00    +0.175 A 
ATOM      3  N   UNL     1       0.003  -0.025  -0.003  0.00  0.00    -0.327 N 
ATOM      4  C   UNL     1      -0.018   1.333   0.016  0.00  0.00    +0.065 A 
ATOM      5  C   UNL     1      -1.047   2.278   0.043  0.00  0.00    +0.028 A 
ATOM      6  C   UNL     1      -0.743   3.620   0.053  0.00  0.00    +0.002 A 
ATOM      7  C   UNL     1       0.578   4.043   0.046  0.00  0.00    +0.002 A 
ATOM      8  C   UNL     1       1.606   3.123   0.024  0.00  0.00    +0.028 A 
ATOM      9  C   UNL     1       1.318   1.767   0.009  0.00  0.00    +0.068 A 
ATOM     10  N   UNL     1       2.095   0.620  -0.014  0.00  0.00    -0.305 N 
ATOM     11  H   UNL     1       2.699  -2.030  -0.054  0.00  0.00    +0.149 HD
ATOM     12  H   UNL     1      -0.824  -0.751  -0.004  0.00  0.00    +0.169 HD
ENDROOT
BRANCH   1  13
ATOM     13  C   UNL     1       0.618  -2.829  -0.045  0.00  0.00    +0.135 C 
BRANCH  13  15
ATOM     14  C   UNL     1       0.255  -5.296  -0.200  0.00  0.00    +0.039 C 
ATOM     15  C   UNL     1       1.308  -4.194  -0.070  0.00  0.00    +0.128 C 
BRANCH  15  16
ATOM     16  O   UNL     1       2.043  -4.378   1.142  0.00  0.00    -0.391 OA
ATOM     17  H   UNL     1       2.848  -3.678   1.409  0.00  0.00    +0.210 HD
ENDBRANCH  15  16
ENDBRANCH  13  15
ENDBRANCH   1  13
BRANCH  10  18
ATOM     18  C   UNL     1       3.559   0.563  -0.028  0.00  0.00    +0.221 C 
BRANCH  18  19
ATOM     19  C   UNL     1       4.048   0.562  -1.454  0.00  0.00    +0.237 C 
ATOM     20  O   UNL     1       3.252   0.606  -2.368  0.00  0.00    -0.274 OA
ATOM     21  N   UNL     1       5.370   0.513  -1.713  0.00  0.00    -0.281 N 
ATOM     22  H   UNL     1       6.094   0.566  -0.887  0.00  0.00    +0.155 HD
BRANCH  21  23
ATOM     23  C   UNL     1       5.821   0.396  -3.034  0.00  0.00    +0.076 A 
ATOM     24  C   UNL     1       5.003  -0.171  -4.000  0.00  0.00    +0.027 A 
ATOM     25  C   UNL     1       5.448  -0.281  -5.304  0.00  0.00    +0.002 A 
ATOM     26  C   UNL     1       6.712   0.164  -5.647  0.00  0.00    +0.004 A 
ATOM     27  C   UNL     1       7.534   0.725  -4.688  0.00  0.00    +0.047 A 
ATOM     28  C   UNL     1       7.094   0.843  -3.380  0.00  0.00    +0.141 A 
BRANCH  28  29
ATOM     29  O   UNL     1       7.902   1.395  -2.436  0.00  0.00    -0.493 OA
ATOM     30  C   UNL     1       9.194   1.831  -2.863  0.00  0.00    +0.277 C 
ENDBRANCH  28  29
ENDBRANCH  21  23
ENDBRANCH  18  19
ENDBRANCH  10  18
TORSDOF 7
