REMARK  Name = ZINC63557781
REMARK  7 active torsions:
REMARK  status: ('A' for Active; 'I' for Inactive)
REMARK    1  A    between atoms: C_1  and  O_2
REMARK    2  A    between atoms: O_2  and  C_3
REMARK    3  A    between atoms: C_10  and  N_13
REMARK    4  A    between atoms: C_14  and  C_16
REMARK    5  A    between atoms: N_21  and  C_23
REMARK    6  A    between atoms: C_23  and  C_24
REMARK    7  A    between atoms: C_24  and  C_25
REMARK                            x       y       z     vdW  Elec       q    Type
REMARK                         _______ _______ _______ _____ _____    ______ ____
ROOT
ATOM      1  C   UNL     1       0.926  -6.492  -6.746  0.00  0.00    +0.101 C 
ATOM      2  C   UNL     1       1.517  -6.011  -8.092  0.00  0.00    +0.110 C 
ATOM      3  C   UNL     1       1.395  -7.214  -9.002  0.00  0.00    +0.216 C 
ATOM      4  O   UNL     1       1.483  -7.182 -10.211  0.00  0.00    -0.276 OA
ATOM      5  N   UNL     1       1.176  -8.323  -8.275  0.00  0.00    -0.300 N 
ATOM      6  C   UNL     1       1.134  -8.020  -6.839  0.00  0.00    +0.121 C 
ENDROOT
BRANCH   1   8
ATOM      7  N   UNL     1       1.688  -4.582  -5.371  0.00  0.00    -0.288 N 
ATOM      8  C   UNL     1       1.691  -5.913  -5.584  0.00  0.00    +0.220 C 
ATOM      9  O   UNL     1       2.309  -6.645  -4.840  0.00  0.00    -0.275 OA
ATOM     10  H   UNL     1       1.194  -3.997  -5.967  0.00  0.00    +0.151 HD
BRANCH   7  18
ATOM     11  C   UNL     1       0.606  -0.608  -1.056  0.00  0.00    +0.121 A 
ATOM     12  C   UNL     1       1.177   0.150  -2.069  0.00  0.00    +0.047 A 
ATOM     13  C   UNL     1       1.790  -0.451  -3.144  0.00  0.00    +0.027 A 
ATOM     14  C   UNL     1       1.861  -1.850  -3.255  0.00  0.00    +0.043 A 
ATOM     15  C   UNL     1       1.278  -2.588  -2.220  0.00  0.00    +0.035 A 
ATOM     16  C   UNL     1       0.667  -1.993  -1.139  0.00  0.00    +0.062 A 
ATOM     17  S   UNL     1       1.536  -4.292  -2.660  0.00  0.00    -0.082 S 
ATOM     18  C   UNL     1       2.432  -4.020  -4.242  0.00  0.00    +0.224 C 
ATOM     19  N   UNL     1       2.460  -2.552  -4.304  0.00  0.00    -0.316 N 
ATOM     20  H   UNL     1       2.878  -2.088  -5.046  0.00  0.00    +0.149 HD
BRANCH  11  22
ATOM     21  C   UNL     1      -0.017   1.425   0.010  0.00  0.00    +0.277 C 
ATOM     22  O   UNL     1       0.002  -0.004   0.002  0.00  0.00    -0.495 OA
ENDBRANCH  11  22
ENDBRANCH   7  18
ENDBRANCH   1   8
BRANCH   5  23
ATOM     23  C   UNL     1       1.002  -9.662  -8.842  0.00  0.00    +0.112 C 
BRANCH  23  24
ATOM     24  C   UNL     1       2.364 -10.351  -8.951  0.00  0.00    +0.052 C 
BRANCH  24  25
ATOM     25  C   UNL     1       2.184 -11.729  -9.535  0.00  0.00    -0.040 C 
ATOM     26  C   UNL     1       2.311 -12.084 -10.834  0.00  0.00    +0.002 A 
ATOM     27  C   UNL     1       2.640 -11.323 -12.045  0.00  0.00    +0.048 A 
ATOM     28  C   UNL     1       2.693 -11.971 -13.233  0.00  0.00    +0.124 A 
ATOM     29  C   UNL     1       2.441 -13.348 -13.334  0.00  0.00    +0.040 A 
ATOM     30  C   UNL     1       2.132 -14.112 -12.266  0.00  0.00    +0.029 A 
ATOM     31  C   UNL     1       2.049 -13.535 -10.968  0.00  0.00    +0.043 A 
ATOM     32  N   UNL     1       1.772 -14.056  -9.797  0.00  0.00    -0.380 N 
ATOM     33  C   UNL     1       1.833 -12.995  -8.787  0.00  0.00    +0.144 C 
ATOM     34  F   UNL     1       2.995 -11.273 -14.350  0.00  0.00    -0.205 F 
ATOM     35  H   UNL     1       1.565 -14.989  -9.628  0.00  0.00    +0.160 HD
ENDBRANCH  24  25
ENDBRANCH  23  24
ENDBRANCH   5  23
TORSDOF 6
