REMARK  Name = ZINC41534196
REMARK  11 active torsions:
REMARK  status: ('A' for Active; 'I' for Inactive)
REMARK    1  A    between atoms: C_1  and  C_2
REMARK    2  A    between atoms: C_5  and  C_22
REMARK    3  A    between atoms: C_6  and  O_9
REMARK    4  A    between atoms: C_7  and  C_8
REMARK    5  A    between atoms: O_9  and  C_10
REMARK    6  A    between atoms: C_10  and  C_11
REMARK    7  A    between atoms: C_10  and  C_12
REMARK    8  A    between atoms: C_10  and  C_13
REMARK    9  A    between atoms: C_13  and  N_14
REMARK   10  A    between atoms: C_17  and  C_20
REMARK   11  A    between atoms: C_20  and  O_21
REMARK                            x       y       z     vdW  Elec       q    Type
REMARK                         _______ _______ _______ _____ _____    ______ ____
ROOT
ATOM      1  C   UNL     1       0.958  -3.125   3.263  0.00  0.00    +0.091 C 
ATOM      2  C   UNL     1       2.101  -4.064   2.874  0.00  0.00    +0.053 C 
ATOM      3  C   UNL     1       1.523  -1.740   3.588  0.00  0.00    +0.053 C 
ENDROOT
BRANCH   1   4
ATOM      4  O   UNL     1       0.036  -3.020   2.176  0.00  0.00    -0.488 OA
BRANCH   4  10
ATOM      5  C   UNL     1       2.308  -3.404  -2.127  0.00  0.00    +0.044 C 
ATOM      6  C   UNL     1       1.600  -2.583  -1.080  0.00  0.00    -0.044 A 
ATOM      7  C   UNL     1       1.410  -1.228  -1.277  0.00  0.00    +0.004 A 
ATOM      8  C   UNL     1       0.760  -0.472  -0.319  0.00  0.00    +0.007 A 
ATOM      9  C   UNL     1       0.299  -1.070   0.839  0.00  0.00    -0.008 A 
ATOM     10  C   UNL     1       0.489  -2.429   1.038  0.00  0.00    +0.127 A 
ATOM     11  C   UNL     1       1.135  -3.187   0.072  0.00  0.00    -0.006 A 
ATOM     12  C   UNL     1       1.337  -4.665   0.283  0.00  0.00    +0.048 C 
ATOM     13  C   UNL     1      -0.408  -0.245   1.883  0.00  0.00    +0.047 C 
ENDBRANCH   4  10
ENDBRANCH   1   4
BRANCH   1  14
ATOM     14  C   UNL     1       0.235  -3.682   4.492  0.00  0.00    -0.031 C 
BRANCH  14  15
ATOM     15  N   UNL     1      -0.182  -5.065   4.229  0.00  0.00    +0.382 N 
ATOM     16  C   UNL     1      -0.680  -5.669   5.471  0.00  0.00    -0.078 C 
ATOM     17  C   UNL     1      -1.040  -7.135   5.221  0.00  0.00    -0.013 C 
ATOM     18  C   UNL     1      -2.126  -7.212   4.143  0.00  0.00    +0.011 C 
ATOM     19  C   UNL     1      -1.624  -6.513   2.876  0.00  0.00    -0.013 C 
ATOM     20  C   UNL     1      -1.242  -5.070   3.213  0.00  0.00    -0.078 C 
ATOM     21  H   UNL     1       0.608  -5.596   3.892  0.00  0.00    -0.082 HD
BRANCH  18  22
ATOM     22  C   UNL     1      -2.435  -8.677   3.831  0.00  0.00    +0.159 C 
BRANCH  22  23
ATOM     23  O   UNL     1      -3.527  -8.749   2.913  0.00  0.00    -0.395 OA
ATOM     24  H   UNL     1      -3.778  -9.651   2.670  0.00  0.00    +0.209 HD
ENDBRANCH  22  23
ENDBRANCH  18  22
ENDBRANCH  14  15
ENDBRANCH   1  14
TORSDOF 6
