REMARK  Name = ZINC04577749
REMARK  10 active torsions:
REMARK  status: ('A' for Active; 'I' for Inactive)
REMARK    1  A    between atoms: C_1  and  C_2
REMARK    2  A    between atoms: C_2  and  C_26
REMARK    3  A    between atoms: C_6  and  C_7
REMARK    4  A    between atoms: C_6  and  C_8
REMARK    5  A    between atoms: C_9  and  C_24
REMARK    6  A    between atoms: C_9  and  O_25
REMARK    7  A    between atoms: N_10  and  C_14
REMARK    8  A    between atoms: C_14  and  C_15
REMARK    9  A    between atoms: C_15  and  C_17
REMARK   10  A    between atoms: C_15  and  O_23
REMARK                            x       y       z     vdW  Elec       q    Type
REMARK                         _______ _______ _______ _____ _____    ______ ____
ROOT
ATOM      1  C   UNL     1      -6.580  -1.653   0.992  0.00  0.00    -0.010 C 
ATOM      2  C   UNL     1      -6.185  -0.348   0.260  0.00  0.00    -0.070 C 
ATOM      3  C   UNL     1      -4.718  -0.476  -0.135  0.00  0.00    +0.040 C 
ATOM      4  C   UNL     1      -4.314   0.576  -1.162  0.00  0.00    +0.158 C 
ATOM      5  C   UNL     1      -5.218   0.490  -2.379  0.00  0.00    +0.040 C 
ATOM      6  C   UNL     1      -6.691   0.641  -1.993  0.00  0.00    -0.070 C 
ATOM      7  C   UNL     1      -7.529   0.203  -3.218  0.00  0.00    -0.010 C 
ATOM      8  C   UNL     1      -7.017   2.115  -1.733  0.00  0.00    -0.010 C 
ATOM      9  C   UNL     1      -2.835   0.377  -1.534  0.00  0.00    +0.175 C 
ATOM     10  N   UNL     1      -2.189   1.628  -1.096  0.00  0.00    -0.233 N 
ATOM     11  C   UNL     1      -3.121   2.434  -0.570  0.00  0.00    +0.406 C 
ATOM     12  O   UNL     1      -2.873   3.539  -0.131  0.00  0.00    -0.226 OA
ATOM     13  O   UNL     1      -4.349   1.906  -0.576  0.00  0.00    -0.439 OA
ATOM     14  C   UNL     1      -2.626   0.177  -3.034  0.00  0.00    +0.068 C 
ATOM     15  C   UNL     1      -6.361   0.796   1.265  0.00  0.00    -0.010 C 
ATOM     16  N   UNL     1      -7.141  -0.227  -0.873  0.00  0.00    +0.386 N 
ATOM     17  H   UNL     1      -8.020   0.158  -0.507  0.00  0.00    -0.084 HD
ATOM     18  H   UNL     1      -7.309  -1.168  -1.248  0.00  0.00    -0.084 HD
ENDROOT
BRANCH   9  19
ATOM     19  O   UNL     1      -2.284  -0.730  -0.810  0.00  0.00    -0.368 OA
ATOM     20  H   UNL     1      -1.325  -0.816  -0.893  0.00  0.00    +0.212 HD
ENDBRANCH   9  19
BRANCH  10  21
ATOM     21  C   UNL     1      -0.762   1.936  -1.218  0.00  0.00    +0.150 C 
BRANCH  21  22
ATOM     22  C   UNL     1      -0.514   2.691  -2.526  0.00  0.00    +0.162 C 
BRANCH  22  23
ATOM     23  C   UNL     1       0.967   2.888  -2.719  0.00  0.00    -0.018 A 
ATOM     24  C   UNL     1       1.621   3.907  -2.053  0.00  0.00    +0.006 A 
ATOM     25  C   UNL     1       2.981   4.085  -2.227  0.00  0.00    +0.000 A 
ATOM     26  C   UNL     1       3.685   3.249  -3.073  0.00  0.00    +0.000 A 
ATOM     27  C   UNL     1       3.030   2.233  -3.743  0.00  0.00    +0.000 A 
ATOM     28  C   UNL     1       1.671   2.052  -3.566  0.00  0.00    +0.006 A 
ENDBRANCH  22  23
BRANCH  22  29
ATOM     29  O   UNL     1      -1.161   3.964  -2.472  0.00  0.00    -0.386 OA
ATOM     30  H   UNL     1      -0.852   4.531  -1.752  0.00  0.00    +0.210 HD
ENDBRANCH  22  29
ENDBRANCH  21  22
ENDBRANCH  10  21
TORSDOF 5
