REMARK  Name = ZINC62844433
REMARK  5 active torsions:
REMARK  status: ('A' for Active; 'I' for Inactive)
REMARK    1  A    between atoms: C_1  and  C_2
REMARK    2  A    between atoms: C_2  and  C_18
REMARK    3  A    between atoms: N_5  and  C_8
REMARK    4  A    between atoms: C_8  and  C_9
REMARK    5  A    between atoms: N_14  and  C_17
REMARK                            x       y       z     vdW  Elec       q    Type
REMARK                         _______ _______ _______ _____ _____    ______ ____
ROOT
ATOM      1  C   UNL     1      -0.019   1.526   0.010  0.00  0.00    +0.023 C 
ATOM      2  C   UNL     1       0.002  -0.004   0.002  0.00  0.00    +0.066 C 
ATOM      3  C   UNL     1       0.727  -0.499  -1.252  0.00  0.00    -0.001 C 
ATOM      4  C   UNL     1       2.183  -0.029  -1.213  0.00  0.00    -0.077 C 
ATOM      5  N   UNL     1       2.843  -0.570  -0.018  0.00  0.00    +0.385 N 
ATOM      6  C   UNL     1       2.198  -0.043   1.190  0.00  0.00    -0.077 C 
ATOM      7  C   UNL     1       0.743  -0.513   1.242  0.00  0.00    -0.001 C 
ATOM      8  H   UNL     1       2.773  -1.577  -0.023  0.00  0.00    -0.081 HD
ENDROOT
BRANCH   2   9
ATOM      9  C   UNL     1      -1.411  -0.527   0.009  0.00  0.00    +0.362 C 
ATOM     10  O   UNL     1      -2.172  -0.239  -0.899  0.00  0.00    -0.246 OA
ATOM     11  O   UNL     1      -1.793  -1.239   0.922  0.00  0.00    -0.246 OA
ENDBRANCH   2   9
BRANCH   5  12
ATOM     12  C   UNL     1       4.260  -0.181  -0.025  0.00  0.00    +0.019 C 
BRANCH  12  13
ATOM     13  C   UNL     1       4.966  -0.837   1.134  0.00  0.00    +0.199 C 
ATOM     14  O   UNL     1       4.350  -1.557   1.891  0.00  0.00    -0.278 OA
ATOM     15  N   UNL     1       6.282  -0.622   1.329  0.00  0.00    -0.307 N 
ATOM     16  C   UNL     1       7.048   0.253   0.428  0.00  0.00    +0.089 C 
ATOM     17  C   UNL     1       7.826   1.263   1.277  0.00  0.00    -0.060 C 
ATOM     18  N   UNL     1       8.643   0.546   2.264  0.00  0.00    +0.380 N 
ATOM     19  C   UNL     1       7.774  -0.174   3.204  0.00  0.00    -0.060 C 
ATOM     20  C   UNL     1       6.992  -1.251   2.453  0.00  0.00    +0.089 C 
ATOM     21  C   UNL     1       9.471   1.508   3.004  0.00  0.00    -0.096 C 
ATOM     22  H   UNL     1       9.241  -0.113   1.788  0.00  0.00    -0.082 HD
ENDBRANCH  12  13
ENDBRANCH   5  12
TORSDOF 3
