REMARK  Name = ZINC62767955
REMARK  6 active torsions:
REMARK  status: ('A' for Active; 'I' for Inactive)
REMARK    1  A    between atoms: C_1  and  C_2
REMARK    2  A    between atoms: C_3  and  C_21
REMARK    3  A    between atoms: N_9  and  C_12
REMARK    4  A    between atoms: C_12  and  C_13
REMARK    5  A    between atoms: C_13  and  N_14
REMARK    6  A    between atoms: N_14  and  C_15
REMARK                            x       y       z     vdW  Elec       q    Type
REMARK                         _______ _______ _______ _____ _____    ______ ____
ROOT
ATOM      1  C   UNL     1      -0.018   1.503   0.010  0.00  0.00    +0.045 C 
ATOM      2  C   UNL     1       0.002  -0.004   0.002  0.00  0.00    -0.026 A 
ATOM      3  C   UNL     1       0.006  -0.677  -1.160  0.00  0.00    -0.008 A 
ATOM      4  S   UNL     1       0.032  -2.385  -0.648  0.00  0.00    -0.073 S 
ATOM      5  C   UNL     1       0.037  -2.144   1.110  0.00  0.00    +0.116 A 
ATOM      6  C   UNL     1       0.024  -0.745   1.250  0.00  0.00    +0.075 A 
ATOM      7  C   UNL     1       0.029  -0.257   2.597  0.00  0.00    +0.262 A 
ATOM      8  O   UNL     1       0.014   0.942   2.821  0.00  0.00    -0.267 OA
ATOM      9  N   UNL     1       0.051  -1.142   3.611  0.00  0.00    -0.301 N 
ATOM     10  C   UNL     1       0.068  -2.480   3.380  0.00  0.00    +0.203 A 
ATOM     11  N   UNL     1       0.053  -2.956   2.163  0.00  0.00    -0.230 NA
ATOM     12  C   UNL     1      -0.009  -0.122  -2.561  0.00  0.00    +0.052 C 
ENDROOT
BRANCH   9  13
ATOM     13  C   UNL     1       0.056  -0.652   4.991  0.00  0.00    +0.107 C 
BRANCH  13  14
ATOM     14  C   UNL     1      -1.384  -0.501   5.485  0.00  0.00    -0.060 C 
BRANCH  14  15
ATOM     15  N   UNL     1      -1.379  -0.010   6.869  0.00  0.00    +0.382 N 
ATOM     16  H   UNL     1      -0.889  -0.667   7.457  0.00  0.00    -0.085 HD
ATOM     17  H   UNL     1      -0.915   0.886   6.906  0.00  0.00    -0.085 HD
BRANCH  15  18
ATOM     18  C   UNL     1      -2.762   0.135   7.343  0.00  0.00    -0.067 C 
ATOM     19  C   UNL     1      -3.467   1.230   6.538  0.00  0.00    +0.012 C 
ATOM     20  C   UNL     1      -4.881   1.428   7.090  0.00  0.00    +0.158 C 
ATOM     21  O   UNL     1      -4.807   1.760   8.478  0.00  0.00    -0.380 OA
ATOM     22  C   UNL     1      -4.199   0.752   9.288  0.00  0.00    +0.158 C 
ATOM     23  C   UNL     1      -2.758   0.527   8.824  0.00  0.00    +0.012 C 
ENDBRANCH  15  18
ENDBRANCH  14  15
ENDBRANCH  13  14
ENDBRANCH   9  13
TORSDOF 4
