REMARK  Name = ZINC64058542
REMARK  11 active torsions:
REMARK  status: ('A' for Active; 'I' for Inactive)
REMARK    1  A    between atoms: C_1  and  C_2
REMARK    2  A    between atoms: C_2  and  C_3
REMARK    3  A    between atoms: C_3  and  C_5
REMARK    4  A    between atoms: C_3  and  N_8
REMARK    5  A    between atoms: C_5  and  O_6
REMARK    6  A    between atoms: O_6  and  C_7
REMARK    7  A    between atoms: C_9  and  C_11
REMARK    8  A    between atoms: C_13  and  C_34
REMARK    9  A    between atoms: N_22  and  C_23
REMARK   10  A    between atoms: C_23  and  C_24
REMARK   11  A    between atoms: C_24  and  C_25
REMARK                            x       y       z     vdW  Elec       q    Type
REMARK                         _______ _______ _______ _____ _____    ______ ____
ROOT
ATOM      1  C   UNL     1       3.934   1.552  -1.591  0.00  0.00    +0.146 C 
ATOM      2  C   UNL     1       4.245   2.632  -2.653  0.00  0.00    +0.044 C 
ATOM      3  C   UNL     1       4.069   4.022  -2.101  0.00  0.00    +0.028 A 
ATOM      4  C   UNL     1       3.875   5.213  -2.821  0.00  0.00    +0.126 A 
ATOM      5  N   UNL     1       3.752   6.363  -2.170  0.00  0.00    -0.221 NA
ATOM      6  C   UNL     1       3.809   6.423  -0.855  0.00  0.00    +0.224 A 
ATOM      7  N   UNL     1       3.983   5.332  -0.133  0.00  0.00    -0.229 NA
ATOM      8  C   UNL     1       4.104   4.150  -0.714  0.00  0.00    +0.106 A 
ATOM      9  S   UNL     1       4.306   2.507  -0.061  0.00  0.00    -0.092 S 
ATOM     10  N   UNL     1       3.811   5.186  -4.206  0.00  0.00    -0.328 N 
ATOM     11  C   UNL     1       5.690   2.465  -3.127  0.00  0.00    +0.014 C 
ATOM     12  H   UNL     1       3.902   4.345  -4.680  0.00  0.00    +0.147 HD
ENDROOT
BRANCH   1  14
ATOM     13  N   UNL     1       2.125  -0.091  -1.209  0.00  0.00    -0.309 N 
ATOM     14  C   UNL     1       2.487   1.134  -1.640  0.00  0.00    +0.227 C 
ATOM     15  O   UNL     1       1.649   1.899  -2.066  0.00  0.00    -0.275 OA
ATOM     16  H   UNL     1       2.795  -0.703  -0.868  0.00  0.00    +0.149 HD
BRANCH  13  17
ATOM     17  C   UNL     1       0.718  -0.497  -1.257  0.00  0.00    +0.098 C 
BRANCH  17  19
ATOM     18  C   UNL     1      -0.019   1.526   0.010  0.00  0.00    +0.006 C 
ATOM     19  C   UNL     1       0.002  -0.004   0.002  0.00  0.00    +0.021 C 
ENDBRANCH  17  19
BRANCH  17  20
ATOM     20  C   UNL     1       0.630  -2.023  -1.329  0.00  0.00    +0.181 C 
BRANCH  20  21
ATOM     21  O   UNL     1       1.146  -2.587  -0.121  0.00  0.00    -0.381 OA
ATOM     22  C   UNL     1       1.110  -4.016  -0.085  0.00  0.00    +0.194 C 
ENDBRANCH  20  21
ENDBRANCH  17  20
ENDBRANCH  13  17
ENDBRANCH   1  14
BRANCH  10  23
ATOM     23  C   UNL     1       3.608   6.430  -4.954  0.00  0.00    +0.107 C 
BRANCH  23  24
ATOM     24  C   UNL     1       3.577   6.124  -6.453  0.00  0.00    +0.052 C 
BRANCH  24  25
ATOM     25  C   UNL     1       3.368   7.403  -7.222  0.00  0.00    -0.040 C 
ATOM     26  C   UNL     1       4.324   8.186  -7.774  0.00  0.00    -0.001 A 
ATOM     27  C   UNL     1       5.787   8.084  -7.820  0.00  0.00    +0.010 A 
ATOM     28  C   UNL     1       6.491   9.045  -8.462  0.00  0.00    +0.001 A 
ATOM     29  C   UNL     1       5.859  10.132  -9.081  0.00  0.00    +0.002 A 
ATOM     30  C   UNL     1       4.519  10.294  -9.081  0.00  0.00    +0.026 A 
ATOM     31  C   UNL     1       3.681   9.343  -8.436  0.00  0.00    +0.043 A 
ATOM     32  N   UNL     1       2.379   9.279  -8.299  0.00  0.00    -0.380 N 
ATOM     33  C   UNL     1       2.047   8.069  -7.538  0.00  0.00    +0.144 C 
ATOM     34  H   UNL     1       1.740   9.922  -8.646  0.00  0.00    +0.160 HD
ENDBRANCH  24  25
ENDBRANCH  23  24
ENDBRANCH  10  23
TORSDOF 8
