REMARK  Name = ZINC22607069
REMARK  5 active torsions:
REMARK  status: ('A' for Active; 'I' for Inactive)
REMARK    1  A    between atoms: C_1  and  O_2
REMARK    2  A    between atoms: O_2  and  C_3
REMARK    3  A    between atoms: C_6  and  O_32
REMARK    4  A    between atoms: C_7  and  C_9
REMARK    5  A    between atoms: O_32  and  C_33
REMARK                            x       y       z     vdW  Elec       q    Type
REMARK                         _______ _______ _______ _____ _____    ______ ____
ROOT
ATOM      1  C   UNL     1       1.387  -4.132   2.207  0.00  0.00    +0.096 C 
ATOM      2  C   UNL     1      -0.007  -4.684   2.259  0.00  0.00    +0.069 A 
ATOM      3  C   UNL     1      -0.581  -5.239   1.157  0.00  0.00    +0.112 A 
ATOM      4  N   UNL     1      -1.859  -5.726   1.240  0.00  0.00    -0.315 N 
ATOM      5  C   UNL     1      -2.542  -5.654   2.416  0.00  0.00    +0.200 A 
ATOM      6  N   UNL     1      -1.997  -5.123   3.489  0.00  0.00    -0.177 NA
ATOM      7  C   UNL     1      -0.748  -4.632   3.459  0.00  0.00    +0.280 A 
ATOM      8  O   UNL     1      -0.255  -4.144   4.465  0.00  0.00    -0.265 OA
ATOM      9  N   UNL     1      -3.820  -6.144   2.482  0.00  0.00    -0.301 N 
ATOM     10  C   UNL     1      -4.539  -6.186   3.763  0.00  0.00    +0.108 C 
ATOM     11  C   UNL     1      -5.884  -5.473   3.596  0.00  0.00    +0.019 C 
ATOM     12  C   UNL     1      -6.647  -6.097   2.426  0.00  0.00    +0.003 C 
ATOM     13  C   UNL     1      -5.842  -5.917   1.137  0.00  0.00    +0.019 C 
ATOM     14  C   UNL     1      -4.499  -6.630   1.274  0.00  0.00    +0.108 C 
ATOM     15  N   UNL     1       0.117  -5.312  -0.025  0.00  0.00    -0.304 N 
ATOM     16  C   UNL     1       1.481  -5.201  -0.038  0.00  0.00    +0.017 C 
ATOM     17  C   UNL     1       2.135  -4.651   1.006  0.00  0.00    +0.024 C 
ATOM     18  C   UNL     1       3.537  -4.546   1.005  0.00  0.00    +0.162 C 
ATOM     19  O   UNL     1       4.098  -4.041   1.958  0.00  0.00    -0.292 OA
ATOM     20  C   UNL     1       4.357  -5.047  -0.152  0.00  0.00    +0.080 C 
ATOM     21  C   UNL     1       3.610  -6.201  -0.830  0.00  0.00    +0.014 C 
ATOM     22  C   UNL     1       2.229  -5.702  -1.249  0.00  0.00    +0.051 C 
ATOM     23  H   UNL     1      -0.362  -5.444  -0.858  0.00  0.00    +0.153 HD
ATOM     24  H   UNL     1      -2.278  -6.122   0.460  0.00  0.00    +0.170 HD
ENDROOT
BRANCH   1  29
ATOM     25  C   UNL     1       0.629  -0.631   1.004  0.00  0.00    +0.121 A 
ATOM     26  C   UNL     1       1.201   0.137   2.008  0.00  0.00    +0.049 A 
ATOM     27  C   UNL     1       1.831  -0.476   3.073  0.00  0.00    +0.049 A 
ATOM     28  C   UNL     1       1.892  -1.861   3.139  0.00  0.00    +0.124 A 
ATOM     29  C   UNL     1       1.320  -2.628   2.135  0.00  0.00    +0.010 A 
ATOM     30  C   UNL     1       0.685  -2.015   1.073  0.00  0.00    +0.053 A 
BRANCH  25  32
ATOM     31  C   UNL     1      -0.012   1.402  -0.050  0.00  0.00    +0.277 C 
ATOM     32  O   UNL     1       0.008  -0.027  -0.044  0.00  0.00    -0.495 OA
ENDBRANCH  25  32
BRANCH  28  33
ATOM     33  O   UNL     1       2.514  -2.465   4.187  0.00  0.00    -0.495 OA
ATOM     34  C   UNL     1       3.081  -1.612   5.183  0.00  0.00    +0.277 C 
ENDBRANCH  28  33
ENDBRANCH   1  29
TORSDOF 3
