REMARK  Name = ZINC39461164
REMARK  7 active torsions:
REMARK  status: ('A' for Active; 'I' for Inactive)
REMARK    1  A    between atoms: C_1  and  C_2
REMARK    2  A    between atoms: C_5  and  C_7
REMARK    3  A    between atoms: C_10  and  C_13
REMARK    4  A    between atoms: C_13  and  N_14
REMARK    5  A    between atoms: C_17  and  N_23
REMARK    6  A    between atoms: C_19  and  O_22
REMARK    7  A    between atoms: C_26  and  O_29
REMARK                            x       y       z     vdW  Elec       q    Type
REMARK                         _______ _______ _______ _____ _____    ______ ____
ROOT
ATOM      1  N   UNL     1       4.654  -6.942  -1.438  0.00  0.00    -0.296 NA
ATOM      2  C   UNL     1       3.451  -7.424  -2.127  0.00  0.00    +0.083 C 
ATOM      3  C   UNL     1       3.769  -7.662  -3.605  0.00  0.00    +0.003 C 
ATOM      4  C   UNL     1       4.894  -8.694  -3.720  0.00  0.00    -0.037 C 
ATOM      5  C   UNL     1       6.120  -8.189  -2.953  0.00  0.00    +0.115 C 
ATOM      6  C   UNL     1       5.733  -7.936  -1.494  0.00  0.00    +0.114 C 
ENDROOT
BRANCH   4   7
ATOM      7  N   UNL     1       5.244  -8.884  -5.135  0.00  0.00    +0.383 N 
ATOM      8  C   UNL     1       4.110  -9.496  -5.838  0.00  0.00    -0.076 C 
ATOM      9  C   UNL     1       4.497  -9.771  -7.293  0.00  0.00    +0.013 C 
ATOM     10  C   UNL     1       4.870  -8.451  -7.974  0.00  0.00    +0.111 C 
ATOM     11  C   UNL     1       6.004  -7.785  -7.189  0.00  0.00    +0.013 C 
ATOM     12  C   UNL     1       5.561  -7.584  -5.738  0.00  0.00    -0.076 C 
ATOM     13  H   UNL     1       6.047  -9.491  -5.203  0.00  0.00    -0.081 HD
BRANCH  10  14
ATOM     14  O   UNL     1       5.304  -8.710  -9.312  0.00  0.00    -0.392 OA
ATOM     15  H   UNL     1       5.556  -7.916  -9.803  0.00  0.00    +0.210 HD
ENDBRANCH  10  14
ENDBRANCH   4   7
BRANCH   5  16
ATOM     16  O   UNL     1       7.156  -9.172  -3.009  0.00  0.00    -0.392 OA
ATOM     17  H   UNL     1       7.964  -8.918  -2.543  0.00  0.00    +0.210 HD
ENDBRANCH   5  16
BRANCH   1  18
ATOM     18  C   UNL     1       4.352  -6.571  -0.049  0.00  0.00    +0.119 C 
BRANCH  18  22
ATOM     19  C   UNL     1       1.721  -3.200  -0.013  0.00  0.00    +0.017 A 
ATOM     20  C   UNL     1       1.201  -4.495  -0.028  0.00  0.00    +0.012 A 
ATOM     21  C   UNL     1       2.055  -5.579  -0.039  0.00  0.00    +0.005 A 
ATOM     22  C   UNL     1       3.425  -5.383  -0.036  0.00  0.00    -0.033 A 
ATOM     23  C   UNL     1       3.947  -4.102  -0.021  0.00  0.00    +0.005 A 
ATOM     24  C   UNL     1       3.104  -3.010  -0.016  0.00  0.00    +0.012 A 
BRANCH  19  29
ATOM     25  C   UNL     1       0.088   1.546   0.031  0.00  0.00    +0.086 C 
ATOM     26  C   UNL     1       0.092   0.039   0.018  0.00  0.00    +0.103 A 
ATOM     27  C   UNL     1      -1.001  -0.750   0.015  0.00  0.00    +0.045 A 
ATOM     28  C   UNL     1      -0.547  -2.084   0.003  0.00  0.00    +0.050 A 
ATOM     29  C   UNL     1       0.812  -2.035  -0.001  0.00  0.00    +0.135 A 
ATOM     30  O   UNL     1       1.185  -0.741   0.003  0.00  0.00    -0.460 OA
ENDBRANCH  19  29
ENDBRANCH  18  22
ENDBRANCH   1  18
TORSDOF 6
