REMARK  Name = ZINC37352049
REMARK  9 active torsions:
REMARK  status: ('A' for Active; 'I' for Inactive)
REMARK    1  A    between atoms: C_1  and  C_2
REMARK    2  A    between atoms: C_2  and  C_3
REMARK    3  A    between atoms: C_2  and  C_4
REMARK    4  A    between atoms: C_4  and  C_5
REMARK    5  A    between atoms: C_6  and  C_12
REMARK    6  A    between atoms: C_7  and  N_11
REMARK    7  A    between atoms: N_8  and  C_10
REMARK    8  A    between atoms: C_17  and  O_18
REMARK    9  A    between atoms: O_18  and  C_19
REMARK                            x       y       z     vdW  Elec       q    Type
REMARK                         _______ _______ _______ _____ _____    ______ ____
ROOT
ATOM      1  C   UNL     1      -1.048  -1.683  -0.496  0.00  0.00    +0.044 A 
ATOM      2  C   UNL     1      -1.067  -2.799   0.363  0.00  0.00    +0.045 A 
ATOM      3  C   UNL     1      -1.125  -3.929  -0.433  0.00  0.00    +0.120 A 
ATOM      4  N   UNL     1      -1.141  -3.513  -1.719  0.00  0.00    -0.276 N 
ATOM      5  N   UNL     1      -1.097  -2.114  -1.728  0.00  0.00    -0.300 N 
ATOM      6  C   UNL     1      -1.198  -4.378  -2.900  0.00  0.00    +0.172 C 
ATOM      7  H   UNL     1      -1.101  -1.555  -2.521  0.00  0.00    +0.187 HD
ENDROOT
BRANCH   2   8
ATOM      8  C   UNL     1      -1.030  -2.768   1.845  0.00  0.00    +0.030 A 
ATOM      9  C   UNL     1      -2.216  -2.806   2.575  0.00  0.00    +0.032 A 
ATOM     10  C   UNL     1      -2.176  -2.777   3.956  0.00  0.00    +0.042 A 
ATOM     11  C   UNL     1      -0.961  -2.711   4.617  0.00  0.00    +0.023 A 
ATOM     12  C   UNL     1       0.221  -2.672   3.900  0.00  0.00    +0.047 A 
ATOM     13  C   UNL     1       0.195  -2.706   2.516  0.00  0.00    +0.128 A 
ATOM     14 CL   UNL     1      -3.654  -2.824   4.865  0.00  0.00    -0.084 Cl
BRANCH  13  15
ATOM     15  O   UNL     1       1.357  -2.674   1.812  0.00  0.00    -0.494 OA
ATOM     16  C   UNL     1       2.571  -2.611   2.564  0.00  0.00    +0.277 C 
ENDBRANCH  13  15
ENDBRANCH   2   8
BRANCH   3  17
ATOM     17  N   UNL     1      -1.161  -5.246   0.008  0.00  0.00    -0.343 N 
ATOM     18  H   UNL     1      -1.145  -5.440   0.958  0.00  0.00    +0.144 HD
ATOM     19  H   UNL     1      -1.201  -5.971  -0.635  0.00  0.00    +0.144 HD
ENDBRANCH   3  17
BRANCH   1  20
ATOM     20  C   UNL     1      -0.987  -0.240  -0.068  0.00  0.00    +0.058 C 
BRANCH  20  22
ATOM     21  C   UNL     1      -2.311   1.665   0.861  0.00  0.00    +0.007 C 
ATOM     22  C   UNL     1      -2.390   0.239   0.313  0.00  0.00    -0.011 C 
ATOM     23  C   UNL     1      -3.289   0.217  -0.925  0.00  0.00    +0.007 C 
ENDBRANCH  20  22
ENDBRANCH   1  20
TORSDOF 5
