REMARK  Name = ZINC12244944
REMARK  9 active torsions:
REMARK  status: ('A' for Active; 'I' for Inactive)
REMARK    1  A    between atoms: C_1  and  C_2
REMARK    2  A    between atoms: C_2  and  C_3
REMARK    3  A    between atoms: C_3  and  C_4
REMARK    4  A    between atoms: C_4  and  C_5
REMARK    5  A    between atoms: C_16  and  C_17
REMARK    6  A    between atoms: C_16  and  N_62
REMARK    7  A    between atoms: C_17  and  C_18
REMARK    8  A    between atoms: N_20  and  C_21
REMARK    9  A    between atoms: C_21  and  C_22
REMARK                            x       y       z     vdW  Elec       q    Type
REMARK                         _______ _______ _______ _____ _____    ______ ____
ROOT
ATOM      1  C   UNL     1      -2.097  -4.355  -0.001  0.00  0.00    +0.077 C 
ENDROOT
BRANCH   1   2
ATOM      2  C   UNL     1      -0.655  -3.915  -0.013  0.00  0.00    +0.212 C 
ATOM      3  O   UNL     1       0.231  -4.743  -0.026  0.00  0.00    -0.276 OA
ATOM      4  N   UNL     1      -0.351  -2.602  -0.009  0.00  0.00    -0.308 N 
ATOM      5  H   UNL     1      -1.060  -1.940   0.002  0.00  0.00    +0.149 HD
BRANCH   4   6
ATOM      6  C   UNL     1       1.050  -2.175  -0.020  0.00  0.00    +0.178 C 
BRANCH   6   7
ATOM      7  C   UNL     1       1.117  -0.670  -0.012  0.00  0.00    +0.128 A 
ATOM      8  N   UNL     1       2.340  -0.078  -0.020  0.00  0.00    -0.309 N 
ATOM      9  H   UNL     1       3.139  -0.628  -0.031  0.00  0.00    +0.170 HD
ATOM     10  C   UNL     1       2.453   1.270  -0.014  0.00  0.00    +0.259 A 
ATOM     11  O   UNL     1       3.543   1.813  -0.021  0.00  0.00    -0.267 OA
ATOM     12  C   UNL     1       1.209   2.054   0.002  0.00  0.00    +0.065 A 
ATOM     13  C   UNL     1       1.216   3.447   0.009  0.00  0.00    +0.015 A 
ATOM     14  C   UNL     1       0.021   4.132   0.025  0.00  0.00    +0.001 A 
ATOM     15  C   UNL     1      -1.187   3.445   0.032  0.00  0.00    +0.002 A 
ATOM     16  C   UNL     1      -1.215   2.069   0.030  0.00  0.00    +0.028 A 
ATOM     17  C   UNL     1      -0.016   1.352   0.009  0.00  0.00    +0.078 A 
ATOM     18  N   UNL     1       0.002  -0.004   0.002  0.00  0.00    -0.232 NA
ENDBRANCH   6   7
ENDBRANCH   4   6
ENDBRANCH   1   2
BRANCH   1  19
ATOM     19  C   UNL     1      -2.164  -5.883  -0.009  0.00  0.00    -0.069 C 
BRANCH  19  30
ATOM     20  C   UNL     1      -5.594  -6.484   1.440  0.00  0.00    +0.157 C 
ATOM     21  C   UNL     1      -4.257  -5.817   1.192  0.00  0.00    -0.033 C 
ATOM     22  C   UNL     1      -4.246  -5.926  -1.241  0.00  0.00    -0.039 C 
ATOM     23  C   UNL     1      -5.346  -6.929  -1.529  0.00  0.00    -0.022 A 
ATOM     24  C   UNL     1      -5.242  -7.782  -2.609  0.00  0.00    +0.005 A 
ATOM     25  C   UNL     1      -6.260  -8.681  -2.873  0.00  0.00    +0.000 A 
ATOM     26  C   UNL     1      -7.377  -8.722  -2.059  0.00  0.00    +0.004 A 
ATOM     27  C   UNL     1      -7.478  -7.872  -0.974  0.00  0.00    +0.046 A 
ATOM     28  C   UNL     1      -6.452  -6.978  -0.703  0.00  0.00    +0.122 A 
ATOM     29  O   UNL     1      -6.519  -6.171   0.391  0.00  0.00    -0.490 OA
ATOM     30  N   UNL     1      -3.560  -6.351   0.002  0.00  0.00    +0.385 N 
ATOM     31  H   UNL     1      -3.566  -7.376   0.048  0.00  0.00    -0.081 HD
BRANCH  20  32
ATOM     32  C   UNL     1      -6.160  -5.994   2.774  0.00  0.00    +0.042 C 
BRANCH  32  33
ATOM     33  C   UNL     1      -7.432  -6.776   3.106  0.00  0.00    +0.003 C 
BRANCH  33  35
ATOM     34  C   UNL     1      -9.270  -7.069   4.773  0.00  0.00    +0.004 C 
ATOM     35  C   UNL     1      -7.998  -6.286   4.441  0.00  0.00    -0.003 C 
ENDBRANCH  33  35
ENDBRANCH  32  33
ENDBRANCH  20  32
ENDBRANCH  19  30
ENDBRANCH   1  19
TORSDOF 8
