REMARK  Name = ZINC63375803
REMARK  10 active torsions:
REMARK  status: ('A' for Active; 'I' for Inactive)
REMARK    1  A    between atoms: C_1  and  C_2
REMARK    2  A    between atoms: C_2  and  C_3
REMARK    3  A    between atoms: C_2  and  C_4
REMARK    4  A    between atoms: C_4  and  N_5
REMARK    5  A    between atoms: C_6  and  O_34
REMARK    6  A    between atoms: C_8  and  C_19
REMARK    7  A    between atoms: N_12  and  C_15
REMARK    8  A    between atoms: C_15  and  C_16
REMARK    9  A    between atoms: C_16  and  C_17
REMARK   10  A    between atoms: C_16  and  C_18
REMARK                            x       y       z     vdW  Elec       q    Type
REMARK                         _______ _______ _______ _____ _____    ______ ____
ROOT
ATOM      1  N   UNL     1      -1.598  -1.686  -0.457  0.00  0.00    -0.258 N 
ATOM      2  C   UNL     1      -1.480  -2.241  -1.807  0.00  0.00    +0.219 C 
ATOM      3  C   UNL     1      -0.659  -3.532  -1.758  0.00  0.00    +0.142 C 
ATOM      4  C   UNL     1      -1.159  -4.395  -0.628  0.00  0.00    +0.232 C 
ATOM      5  O   UNL     1      -1.151  -5.603  -0.737  0.00  0.00    -0.275 OA
ATOM      6  N   UNL     1      -1.614  -3.825   0.503  0.00  0.00    -0.225 N 
ATOM      7  C   UNL     1      -1.709  -2.490   0.613  0.00  0.00    +0.313 C 
ATOM      8  O   UNL     1      -1.905  -1.998   1.707  0.00  0.00    -0.252 OA
ENDROOT
BRANCH   3   9
ATOM      9  C   UNL     1       0.816  -3.192  -1.530  0.00  0.00    +0.096 C 
ATOM     10  C   UNL     1       1.656  -4.469  -1.601  0.00  0.00    +0.124 C 
ATOM     11  C   UNL     1       3.071  -4.070  -1.196  0.00  0.00    -0.036 C 
ATOM     12  C   UNL     1       3.869  -4.476  -2.174  0.00  0.00    -0.001 A 
ATOM     13  C   UNL     1       5.334  -4.454  -2.319  0.00  0.00    +0.010 A 
ATOM     14  C   UNL     1       5.829  -4.948  -3.484  0.00  0.00    +0.001 A 
ATOM     15  C   UNL     1       5.023  -5.457  -4.508  0.00  0.00    +0.002 A 
ATOM     16  C   UNL     1       3.669  -5.521  -4.458  0.00  0.00    +0.026 A 
ATOM     17  C   UNL     1       3.032  -5.036  -3.279  0.00  0.00    +0.043 A 
ATOM     18  N   UNL     1       1.753  -5.004  -2.958  0.00  0.00    -0.376 N 
ATOM     19  C   UNL     1       3.342  -3.278   0.060  0.00  0.00    +0.048 C 
ATOM     20  C   UNL     1       2.344  -2.105   0.051  0.00  0.00    +0.085 C 
ATOM     21  N   UNL     1       0.986  -2.598  -0.194  0.00  0.00    -0.310 NA
ATOM     22  H   UNL     1       0.303  -1.874  -0.030  0.00  0.00    +0.122 HD
ATOM     23  H   UNL     1       1.007  -5.278  -3.514  0.00  0.00    +0.160 HD
ENDBRANCH   3   9
BRANCH   2  24
ATOM     24  O   UNL     1      -0.828  -1.294  -2.656  0.00  0.00    -0.373 OA
ATOM     25  H   UNL     1      -1.294  -0.450  -2.734  0.00  0.00    +0.212 HD
ENDBRANCH   2  24
BRANCH   1  26
ATOM     26  C   UNL     1      -1.589  -0.233  -0.271  0.00  0.00    +0.115 C 
BRANCH  26  28
ATOM     27  C   UNL     1      -3.018   1.768   0.172  0.00  0.00    +0.009 C 
ATOM     28  C   UNL     1      -3.028   0.279  -0.178  0.00  0.00    +0.000 C 
ATOM     29  C   UNL     1      -3.729   0.075  -1.523  0.00  0.00    +0.009 C 
ENDBRANCH  26  28
ENDBRANCH   1  26
BRANCH   6  30
ATOM     30  C   UNL     1      -2.006  -4.673   1.631  0.00  0.00    +0.121 C 
BRANCH  30  31
ATOM     31  C   UNL     1      -0.796  -4.909   2.537  0.00  0.00    +0.001 C 
ATOM     32  C   UNL     1      -0.359  -3.582   3.160  0.00  0.00    +0.009 C 
ATOM     33  C   UNL     1      -1.172  -5.894   3.646  0.00  0.00    +0.009 C 
ENDBRANCH  30  31
ENDBRANCH   6  30
TORSDOF 6
