REMARK  Name = ZINC20542397
REMARK  8 active torsions:
REMARK  status: ('A' for Active; 'I' for Inactive)
REMARK    1  A    between atoms: C_1  and  C_2
REMARK    2  A    between atoms: C_2  and  O_3
REMARK    3  A    between atoms: O_3  and  C_4
REMARK    4  A    between atoms: C_7  and  C_10
REMARK    5  A    between atoms: C_10  and  N_11
REMARK    6  A    between atoms: C_17  and  C_19
REMARK    7  A    between atoms: C_19  and  C_20
REMARK    8  A    between atoms: N_25  and  C_28
REMARK                            x       y       z     vdW  Elec       q    Type
REMARK                         _______ _______ _______ _____ _____    ______ ____
ROOT
ATOM      1  N   UNL     1       0.033   1.399   0.009  0.00  0.00    +0.391 N 
ATOM      2  C   UNL     1      -0.736   1.848  -1.163  0.00  0.00    -0.058 C 
ATOM      3  C   UNL     1      -1.091   3.325  -0.981  0.00  0.00    +0.085 C 
ATOM      4  N   UNL     1       0.104   4.088  -0.632  0.00  0.00    -0.318 N 
ATOM      5  C   UNL     1       1.218   3.518  -0.161  0.00  0.00    +0.200 C 
ATOM      6  O   UNL     1       2.155   4.230   0.133  0.00  0.00    -0.278 OA
ATOM      7  C   UNL     1       1.358   2.033   0.019  0.00  0.00    +0.028 C 
ATOM      8  H   UNL     1       0.113   5.181  -0.753  0.00  0.00    +0.149 HD
ATOM      9  H   UNL     1      -0.505   1.703   0.919  0.00  0.00    -0.080 HD
ENDROOT
BRANCH   1  10
ATOM     10  C   UNL     1       0.150  -0.065   0.032  0.00  0.00    -0.042 C 
BRANCH  10  14
ATOM     11  C   UNL     1      -3.615  -1.777   1.107  0.00  0.00    +0.121 A 
ATOM     12  C   UNL     1      -3.314  -1.542  -0.226  0.00  0.00    +0.046 A 
ATOM     13  C   UNL     1      -2.096  -0.989  -0.571  0.00  0.00    +0.005 A 
ATOM     14  C   UNL     1      -1.178  -0.669   0.411  0.00  0.00    -0.064 A 
ATOM     15  C   UNL     1      -1.473  -0.908   1.741  0.00  0.00    +0.005 A 
ATOM     16  C   UNL     1      -2.692  -1.456   2.091  0.00  0.00    +0.046 A 
BRANCH  11  17
ATOM     17  O   UNL     1      -4.813  -2.322   1.449  0.00  0.00    -0.492 OA
BRANCH  17  19
ATOM     18  C   UNL     1      -6.443  -3.151   3.029  0.00  0.00    +0.048 C 
ATOM     19  C   UNL     1      -5.054  -2.536   2.841  0.00  0.00    +0.225 C 
ENDBRANCH  17  19
ENDBRANCH  11  17
ENDBRANCH  10  14
ENDBRANCH   1  10
BRANCH   7  20
ATOM     20  C   UNL     1       2.048   1.746   1.354  0.00  0.00    +0.090 C 
BRANCH  20  21
ATOM     21  C   UNL     1       1.190   2.255   2.483  0.00  0.00    +0.215 C 
ATOM     22  O   UNL     1       0.092   2.715   2.250  0.00  0.00    -0.276 OA
ATOM     23  N   UNL     1       1.642   2.198   3.751  0.00  0.00    -0.299 N 
ATOM     24  C   UNL     1       2.967   1.639   4.056  0.00  0.00    +0.123 C 
ATOM     25  C   UNL     1       3.730   2.651   4.926  0.00  0.00    +0.103 C 
ATOM     26  N   UNL     1       2.915   2.992   6.099  0.00  0.00    -0.296 NA
ATOM     27  C   UNL     1       1.665   3.655   5.706  0.00  0.00    +0.103 C 
ATOM     28  C   UNL     1       0.820   2.689   4.868  0.00  0.00    +0.123 C 
BRANCH  26  29
ATOM     29  C   UNL     1       3.675   3.820   7.045  0.00  0.00    +0.057 C 
ATOM     30  C   UNL     1       4.178   5.098   6.342  0.00  0.00    +0.019 C 
ATOM     31  C   UNL     1       5.582   5.339   6.953  0.00  0.00    +0.002 C 
ATOM     32  C   UNL     1       6.144   3.903   7.097  0.00  0.00    +0.002 C 
ATOM     33  C   UNL     1       4.925   3.061   7.525  0.00  0.00    +0.019 C 
ENDBRANCH  26  29
ENDBRANCH  20  21
ENDBRANCH   7  20
TORSDOF 7
