REMARK  Name = ZINC02452646
REMARK  5 active torsions:
REMARK  status: ('A' for Active; 'I' for Inactive)
REMARK    1  A    between atoms: C_2  and  C_3
REMARK    2  A    between atoms: C_3  and  N_4
REMARK    3  A    between atoms: N_4  and  C_5
REMARK    4  A    between atoms: C_5  and  N_7
REMARK    5  A    between atoms: N_7  and  N_8
REMARK                            x       y       z     vdW  Elec       q    Type
REMARK                         _______ _______ _______ _____ _____    ______ ____
ROOT
ATOM      1  N   UNL     1      -1.322  -3.403  -3.250  0.00  0.00    -0.233 N 
ATOM      2  C   UNL     1      -1.346  -4.274  -4.321  0.00  0.00    +0.238 A 
ATOM      3  N   UNL     1      -2.402  -5.057  -4.517  0.00  0.00    -0.181 NA
ATOM      4  C   UNL     1      -2.425  -5.896  -5.548  0.00  0.00    +0.201 A 
ATOM      5  N   UNL     1      -1.391  -5.951  -6.383  0.00  0.00    -0.300 N 
ATOM      6  C   UNL     1      -0.336  -5.167  -6.187  0.00  0.00    +0.201 A 
ATOM      7  N   UNL     1      -0.315  -4.325  -5.158  0.00  0.00    -0.181 NA
ATOM      8  N   UNL     1       0.737  -5.225  -7.053  0.00  0.00    -0.301 N 
ATOM      9  C   UNL     1       0.841  -6.098  -8.232  0.00  0.00    +0.108 C 
ATOM     10  C   UNL     1       2.219  -5.836  -8.876  0.00  0.00    +0.020 C 
ATOM     11  C   UNL     1       3.043  -5.244  -7.703  0.00  0.00    +0.020 C 
ATOM     12  C   UNL     1       1.966  -4.416  -6.954  0.00  0.00    +0.108 C 
ATOM     13  N   UNL     1      -3.520  -6.709  -5.752  0.00  0.00    -0.301 N 
ATOM     14  C   UNL     1      -3.674  -7.683  -6.843  0.00  0.00    +0.108 C 
ATOM     15  C   UNL     1      -5.062  -8.337  -6.681  0.00  0.00    +0.020 C 
ATOM     16  C   UNL     1      -5.843  -7.292  -5.840  0.00  0.00    +0.020 C 
ATOM     17  C   UNL     1      -4.728  -6.751  -4.907  0.00  0.00    +0.108 C 
ATOM     18  H   UNL     1      -0.554  -2.828  -3.109  0.00  0.00    +0.173 HD
ATOM     19  H   UNL     1      -1.408  -6.563  -7.135  0.00  0.00    +0.171 HD
ENDROOT
BRANCH   1  20
ATOM     20  N   UNL     1      -2.409  -3.349  -2.367  0.00  0.00    -0.246 N 
ATOM     21  H   UNL     1      -3.177  -3.923  -2.508  0.00  0.00    +0.172 HD
BRANCH  20  22
ATOM     22  C   UNL     1      -2.386  -2.498  -1.322  0.00  0.00    +0.147 C 
ATOM     23  S   UNL     1      -3.713  -2.432  -0.243  0.00  0.00    -0.017 S 
BRANCH  22  24
ATOM     24  N   UNL     1      -1.318  -1.700  -1.126  0.00  0.00    -0.322 N 
ATOM     25  H   UNL     1      -0.566  -1.737  -1.737  0.00  0.00    +0.148 HD
BRANCH  24  26
ATOM     26  C   UNL     1      -1.293  -0.775   0.010  0.00  0.00    +0.130 C 
BRANCH  26  28
ATOM     27  C   UNL     1      -0.016   1.306   0.009  0.00  0.00    +0.005 C 
ATOM     28  C   UNL     1       0.002  -0.004   0.002  0.00  0.00    -0.016 C 
ENDBRANCH  26  28
ENDBRANCH  24  26
ENDBRANCH  22  24
ENDBRANCH  20  22
ENDBRANCH   1  20
TORSDOF 5
