REMARK  Name = ZINC67101861
REMARK  4 active torsions:
REMARK  status: ('A' for Active; 'I' for Inactive)
REMARK    1  A    between atoms: N_15  and  N_16
REMARK    2  A    between atoms: C_17  and  C_19
REMARK    3  A    between atoms: C_19  and  C_20
REMARK    4  A    between atoms: C_20  and  C_21
REMARK                            x       y       z     vdW  Elec       q    Type
REMARK                         _______ _______ _______ _____ _____    ______ ____
ROOT
ATOM      1  C   UNL     1       8.315  -8.318   2.265  0.00  0.00    +0.005 A 
ATOM      2  C   UNL     1       8.298  -9.707   2.252  0.00  0.00    +0.018 A 
ATOM      3  C   UNL     1       7.086 -10.367   2.256  0.00  0.00    +0.084 A 
ATOM      4  N   UNL     1       5.949  -9.697   2.272  0.00  0.00    -0.350 N 
ATOM      5  C   UNL     1       5.924  -8.373   2.284  0.00  0.00    +0.099 A 
ATOM      6  C   UNL     1       7.108  -7.643   2.282  0.00  0.00    +0.042 A 
ATOM      7  N   UNL     1       4.704  -7.708   2.300  0.00  0.00    -0.314 N 
ATOM      8  C   UNL     1       4.652  -6.245   2.434  0.00  0.00    +0.125 C 
ATOM      9  C   UNL     1       3.852  -5.673   1.257  0.00  0.00    +0.128 C 
ATOM     10  N   UNL     1       2.591  -6.420   1.139  0.00  0.00    -0.281 N 
ATOM     11  C   UNL     1       2.644  -7.882   1.005  0.00  0.00    +0.128 C 
ATOM     12  C   UNL     1       3.444  -8.454   2.176  0.00  0.00    +0.125 C 
ATOM     13  C   UNL     1       1.408  -5.774   1.155  0.00  0.00    +0.319 C 
ATOM     14  O   UNL     1       1.379  -4.559   1.167  0.00  0.00    -0.251 OA
ATOM     15  N   UNL     1       0.258  -6.476   1.157  0.00  0.00    -0.218 N 
ATOM     16  H   UNL     1       0.280  -7.444   1.224  0.00  0.00    +0.174 HD
ATOM     17  H   UNL     1       5.112 -10.186   2.274  0.00  0.00    +0.166 HD
ENDROOT
BRANCH  15  18
ATOM     18  N   UNL     1      -0.971  -5.809   1.061  0.00  0.00    -0.233 N 
ATOM     19  C   UNL     1      -2.115  -6.514   0.961  0.00  0.00    +0.229 C 
ATOM     20  O   UNL     1      -2.081  -7.726   0.954  0.00  0.00    -0.274 OA
ATOM     21  H   UNL     1      -0.997  -4.839   1.066  0.00  0.00    +0.173 HD
BRANCH  19  22
ATOM     22  C   UNL     1      -3.436  -5.796   0.857  0.00  0.00    +0.097 C 
BRANCH  22  23
ATOM     23  C   UNL     1      -4.567  -6.821   0.756  0.00  0.00    +0.013 C 
BRANCH  23  24
ATOM     24  C   UNL     1      -5.908  -6.092   0.651  0.00  0.00    -0.011 C 
ATOM     25  C   UNL     1      -6.173  -5.323   1.947  0.00  0.00    +0.003 C 
ATOM     26  C   UNL     1      -7.514  -4.594   1.843  0.00  0.00    +0.000 C 
ATOM     27  C   UNL     1      -8.633  -5.614   1.616  0.00  0.00    +0.000 C 
ATOM     28  C   UNL     1      -8.367  -6.382   0.320  0.00  0.00    +0.000 C 
ATOM     29  C   UNL     1      -7.026  -7.111   0.425  0.00  0.00    +0.003 C 
ENDBRANCH  23  24
ENDBRANCH  22  23
ENDBRANCH  19  22
ENDBRANCH  15  18
TORSDOF 4
