REMARK  Name = ZINC39709376
REMARK  10 active torsions:
REMARK  status: ('A' for Active; 'I' for Inactive)
REMARK    1  A    between atoms: C_1  and  C_2
REMARK    2  A    between atoms: C_5  and  C_8
REMARK    3  A    between atoms: C_11  and  S_17
REMARK    4  A    between atoms: N_12  and  C_13
REMARK    5  A    between atoms: C_13  and  C_14
REMARK    6  A    between atoms: S_17  and  C_18
REMARK    7  A    between atoms: C_18  and  C_19
REMARK    8  A    between atoms: N_24  and  C_25
REMARK    9  A    between atoms: C_30  and  C_35
REMARK   10  A    between atoms: C_32  and  C_34
REMARK                            x       y       z     vdW  Elec       q    Type
REMARK                         _______ _______ _______ _____ _____    ______ ____
ROOT
ATOM      1  S   UNL     1       0.781  -7.822   1.388  0.00  0.00    -0.077 S 
ENDROOT
BRANCH   1   5
ATOM      2  C   UNL     1       0.005  -4.253  -0.001  0.00  0.00    +0.165 A 
ATOM      3  N   UNL     1      -0.324  -5.032  -1.006  0.00  0.00    -0.128 NA
ATOM      4  N   UNL     1      -0.120  -6.261  -0.694  0.00  0.00    -0.122 NA
ATOM      5  C   UNL     1       0.352  -6.344   0.530  0.00  0.00    +0.193 A 
ATOM      6  N   UNL     1       0.453  -5.070   1.012  0.00  0.00    -0.291 N 
BRANCH   2  11
ATOM      7  C   UNL     1      -0.342   1.489   0.133  0.00  0.00    +0.044 C 
ATOM      8  C   UNL     1      -0.251  -0.015   0.098  0.00  0.00    -0.050 A 
ATOM      9  C   UNL     1      -0.233  -0.675  -1.118  0.00  0.00    +0.004 A 
ATOM     10  C   UNL     1      -0.150  -2.052  -1.157  0.00  0.00    +0.012 A 
ATOM     11  C   UNL     1      -0.084  -2.778   0.033  0.00  0.00    +0.019 A 
ATOM     12  C   UNL     1      -0.102  -2.105   1.256  0.00  0.00    +0.012 A 
ATOM     13  C   UNL     1      -0.180  -0.728   1.281  0.00  0.00    +0.004 A 
ENDBRANCH   2  11
BRANCH   6  14
ATOM     14  C   UNL     1       0.934  -4.658   2.333  0.00  0.00    +0.250 C 
BRANCH  14  15
ATOM     15  C   UNL     1      -0.214  -4.656   3.308  0.00  0.00    +0.375 C 
ATOM     16  O   UNL     1      -1.332  -4.969   2.935  0.00  0.00    -0.244 OA
ATOM     17  O   UNL     1      -0.026  -4.341   4.471  0.00  0.00    -0.244 OA
ENDBRANCH  14  15
ENDBRANCH   6  14
ENDBRANCH   1   5
BRANCH   1  18
ATOM     18  C   UNL     1       0.419  -9.141   0.197  0.00  0.00    +0.173 C 
BRANCH  18  19
ATOM     19  C   UNL     1       0.745 -10.477   0.812  0.00  0.00    +0.231 C 
ATOM     20  O   UNL     1       1.179 -10.534   1.943  0.00  0.00    -0.274 OA
ATOM     21  N   UNL     1       0.555 -11.609   0.106  0.00  0.00    -0.239 N 
ATOM     22  C   UNL     1       0.847 -12.804   0.656  0.00  0.00    +0.306 C 
ATOM     23  O   UNL     1       1.282 -12.861   1.790  0.00  0.00    -0.252 OA
ATOM     24  N   UNL     1       0.657 -13.936  -0.050  0.00  0.00    -0.296 N 
ATOM     25  H   UNL     1       0.208 -11.564  -0.799  0.00  0.00    +0.159 HD
ATOM     26  H   UNL     1       0.309 -13.891  -0.955  0.00  0.00    +0.151 HD
BRANCH  24  27
ATOM     27  C   UNL     1       0.974 -15.235   0.548  0.00  0.00    +0.078 C 
ATOM     28  C   UNL     1       2.461 -15.537   0.353  0.00  0.00    +0.022 C 
ATOM     29  C   UNL     1       2.793 -16.894   0.978  0.00  0.00    +0.002 C 
ATOM     30  C   UNL     1       1.958 -17.984   0.303  0.00  0.00    +0.003 C 
ATOM     31  C   UNL     1       0.471 -17.682   0.498  0.00  0.00    -0.009 C 
ATOM     32  C   UNL     1       0.139 -16.325  -0.126  0.00  0.00    +0.009 C 
ATOM     33  C   UNL     1       0.460 -16.361  -1.622  0.00  0.00    +0.009 C 
ATOM     34  C   UNL     1      -0.364 -18.772  -0.176  0.00  0.00    +0.008 C 
ENDBRANCH  24  27
ENDBRANCH  18  19
ENDBRANCH   1  18
TORSDOF 7
