REMARK  Name = ZINC62364783
REMARK  1 active torsions:
REMARK  status: ('A' for Active; 'I' for Inactive)
REMARK    1  A    between atoms: C_7  and  N_13
REMARK                            x       y       z     vdW  Elec       q    Type
REMARK                         _______ _______ _______ _____ _____    ______ ____
ROOT
ATOM      1  C   UNL     1      -0.016   1.304   0.009  0.00  0.00    +0.154 A 
ATOM      2  C   UNL     1       1.307   1.764  -0.001  0.00  0.00    +0.079 A 
ATOM      3  C   UNL     1       2.124   0.684  -0.015  0.00  0.00    +0.136 A 
ATOM      4  N   UNL     1       1.338  -0.425  -0.013  0.00  0.00    -0.218 N 
ATOM      5  N   UNL     1       0.002  -0.004   0.002  0.00  0.00    -0.172 NA
ATOM      6  C   UNL     1       1.784  -1.749  -0.025  0.00  0.00    +0.179 A 
ATOM      7  C   UNL     1       0.979  -2.775   0.481  0.00  0.00    +0.107 A 
ATOM      8  C   UNL     1       1.471  -4.075   0.445  0.00  0.00    +0.155 A 
ATOM      9  N   UNL     1       2.675  -4.294  -0.064  0.00  0.00    -0.222 NA
ATOM     10  C   UNL     1       3.405  -3.301  -0.532  0.00  0.00    +0.225 A 
ATOM     11  N   UNL     1       2.976  -2.055  -0.522  0.00  0.00    -0.215 NA
ATOM     12 CL   UNL     1       0.521  -5.393   1.057  0.00  0.00    -0.060 Cl
ATOM     13 CL   UNL     1       1.811   3.425   0.003  0.00  0.00    -0.080 Cl
ENDROOT
BRANCH   7  14
ATOM     14  N   UNL     1      -0.287  -2.500   1.010  0.00  0.00    -0.353 N 
ATOM     15  H   UNL     1      -0.618  -1.588   1.029  0.00  0.00    +0.143 HD
ATOM     16  H   UNL     1      -0.835  -3.222   1.357  0.00  0.00    +0.143 HD
ENDBRANCH   7  14
TORSDOF 1
