REMARK  Name = ZINC36300780
REMARK  5 active torsions:
REMARK  status: ('A' for Active; 'I' for Inactive)
REMARK    1  A    between atoms: C_1  and  N_2
REMARK    2  A    between atoms: N_2  and  C_3
REMARK    3  A    between atoms: N_2  and  C_15
REMARK    4  A    between atoms: C_3  and  C_4
REMARK    5  A    between atoms: C_7  and  C_9
REMARK                            x       y       z     vdW  Elec       q    Type
REMARK                         _______ _______ _______ _____ _____    ______ ____
ROOT
ATOM      1  C   UNL     1       0.690  -0.478  -1.207  0.00  0.00    +0.021 C 
ENDROOT
BRANCH   1   2
ATOM      2  C   UNL     1      -0.106  -0.083  -2.424  0.00  0.00    +0.202 A 
ATOM      3  N   UNL     1       0.024   1.022  -3.102  0.00  0.00    -0.114 NA
ATOM      4  N   UNL     1      -0.813   1.030  -4.079  0.00  0.00    -0.104 NA
ATOM      5  C   UNL     1      -1.513  -0.084  -4.058  0.00  0.00    +0.284 A 
ATOM      6  O   UNL     1      -1.073  -0.811  -3.011  0.00  0.00    -0.420 OA
BRANCH   5   7
ATOM      7  C   UNL     1      -2.573  -0.466  -5.002  0.00  0.00    +0.192 A 
ATOM      8  C   UNL     1      -3.003   0.272  -6.065  0.00  0.00    +0.056 A 
ATOM      9  C   UNL     1      -4.023  -0.471  -6.688  0.00  0.00    +0.058 A 
ATOM     10  C   UNL     1      -4.166  -1.615  -5.985  0.00  0.00    +0.171 A 
ATOM     11  O   UNL     1      -3.285  -1.611  -4.972  0.00  0.00    -0.443 OA
ATOM     12 BR   UNL     1      -5.398  -2.997  -6.369  0.00  0.00    -0.008 Br
ENDBRANCH   5   7
ENDBRANCH   1   2
BRANCH   1  14
ATOM     13  C   UNL     1      -0.018   1.465   0.010  0.00  0.00    -0.095 C 
ATOM     14  N   UNL     1       0.002  -0.004   0.002  0.00  0.00    +0.386 N 
ATOM     15  H   UNL     1      -0.945  -0.353   0.009  0.00  0.00    -0.081 HD
BRANCH  14  16
ATOM     16  C   UNL     1       0.713  -0.491   1.192  0.00  0.00    -0.066 C 
ATOM     17  C   UNL     1      -0.008  -0.004   2.453  0.00  0.00    -0.000 C 
ATOM     18  C   UNL     1       0.701  -0.564   3.688  0.00  0.00    +0.079 C 
ATOM     19  N   UNL     1       0.695  -2.032   3.634  0.00  0.00    -0.316 NA
ATOM     20  C   UNL     1       1.422  -2.523   2.457  0.00  0.00    +0.079 C 
ATOM     21  C   UNL     1       0.734  -2.022   1.185  0.00  0.00    -0.000 C 
ATOM     22  H   UNL     1       1.072  -2.426   4.483  0.00  0.00    +0.122 HD
ENDBRANCH  14  16
ENDBRANCH   1  14
TORSDOF 4
