REMARK  Name = ZINC48290122
REMARK  6 active torsions:
REMARK  status: ('A' for Active; 'I' for Inactive)
REMARK    1  A    between atoms: C_1  and  N_2
REMARK    2  A    between atoms: N_2  and  C_3
REMARK    3  A    between atoms: N_13  and  C_14
REMARK    4  A    between atoms: C_14  and  C_15
REMARK    5  A    between atoms: C_15  and  C_16
REMARK    6  A    between atoms: C_16  and  N_17
REMARK                            x       y       z     vdW  Elec       q    Type
REMARK                         _______ _______ _______ _____ _____    ______ ____
ROOT
ATOM      1  C   UNL     1      -0.018   1.461   0.010  0.00  0.00    +0.134 C 
ATOM      2  N   UNL     1       0.002  -0.004   0.002  0.00  0.00    -0.284 N 
ATOM      3  C   UNL     1       0.000  -0.672  -1.169  0.00  0.00    +0.302 C 
ATOM      4  O   UNL     1       0.017  -1.887  -1.175  0.00  0.00    -0.253 OA
ATOM      5  N   UNL     1      -0.020   0.009  -2.332  0.00  0.00    -0.299 N 
ATOM      6  H   UNL     1      -0.033   0.978  -2.327  0.00  0.00    +0.150 HD
ENDROOT
BRANCH   2   7
ATOM      7  C   UNL     1       0.024  -0.743   1.267  0.00  0.00    +0.100 C 
ATOM      8  C   UNL     1      -1.209  -0.372   2.107  0.00  0.00    +0.047 C 
ATOM      9  C   UNL     1      -1.036  -0.889   3.555  0.00  0.00    +0.168 C 
ATOM     10  S   UNL     1       0.791  -0.893   3.767  0.00  0.00    -0.029 S 
ATOM     11  O   UNL     1       1.229  -2.228   3.981  0.00  0.00    -0.174 OA
ATOM     12  O   UNL     1       1.151   0.119   4.698  0.00  0.00    -0.174 OA
ATOM     13  C   UNL     1       1.295  -0.360   2.077  0.00  0.00    +0.188 C 
ENDBRANCH   2   7
BRANCH   5  14
ATOM     14  C   UNL     1      -0.022  -0.717  -3.605  0.00  0.00    +0.107 C 
BRANCH  14  15
ATOM     15  C   UNL     1      -0.047   0.283  -4.762  0.00  0.00    +0.038 C 
BRANCH  15  16
ATOM     16  C   UNL     1      -0.049  -0.475  -6.091  0.00  0.00    +0.109 C 
BRANCH  16  17
ATOM     17  N   UNL     1      -0.073   0.483  -7.200  0.00  0.00    -0.301 N 
ATOM     18  C   UNL     1      -1.362   0.949  -7.737  0.00  0.00    +0.108 C 
ATOM     19  C   UNL     1      -1.573   2.403  -7.311  0.00  0.00    +0.019 C 
ATOM     20  C   UNL     1      -0.922   3.355  -8.298  0.00  0.00    +0.002 C 
ATOM     21  C   UNL     1       0.594   3.277  -8.315  0.00  0.00    +0.009 C 
ATOM     22  C   UNL     1       1.061   1.923  -8.857  0.00  0.00    +0.096 C 
ATOM     23  C   UNL     1       1.074   0.932  -7.712  0.00  0.00    +0.216 C 
ATOM     24  O   UNL     1       2.131   0.542  -7.262  0.00  0.00    -0.276 OA
ENDBRANCH  16  17
ENDBRANCH  15  16
ENDBRANCH  14  15
ENDBRANCH   5  14
TORSDOF 5
