REMARK  Name = ZINC63302896
REMARK  8 active torsions:
REMARK  status: ('A' for Active; 'I' for Inactive)
REMARK    1  A    between atoms: C_9  and  S_14
REMARK    2  A    between atoms: C_11  and  O_13
REMARK    3  A    between atoms: S_14  and  C_15
REMARK    4  A    between atoms: C_15  and  C_16
REMARK    5  A    between atoms: C_16  and  C_17
REMARK    6  A    between atoms: N_19  and  C_20
REMARK    7  A    between atoms: C_20  and  C_21
REMARK    8  A    between atoms: C_21  and  C_22
REMARK                            x       y       z     vdW  Elec       q    Type
REMARK                         _______ _______ _______ _____ _____    ______ ____
ROOT
ATOM      1  C   UNL     1       8.173  -5.406  -0.677  0.00  0.00    +0.214 C 
ATOM      2  O   UNL     1       8.251  -4.671  -1.639  0.00  0.00    -0.276 OA
ATOM      3  N   UNL     1       9.179  -6.258  -0.397  0.00  0.00    -0.315 N 
ATOM      4  H   UNL     1       9.116  -6.846   0.373  0.00  0.00    +0.149 HD
ENDROOT
BRANCH   1   5
ATOM      5  C   UNL     1       6.951  -5.367   0.204  0.00  0.00    +0.106 C 
BRANCH   5   6
ATOM      6  C   UNL     1       5.969  -4.323  -0.332  0.00  0.00    +0.079 C 
BRANCH   6   7
ATOM      7  S   UNL     1       4.498  -4.275   0.728  0.00  0.00    -0.147 S 
BRANCH   7  16
ATOM      8  C   UNL     1      -0.017   1.373   0.010  0.00  0.00    +0.000 A 
ATOM      9  C   UNL     1       1.178   2.071   0.002  0.00  0.00    +0.002 A 
ATOM     10  C   UNL     1       2.366   1.387  -0.008  0.00  0.00    +0.028 A 
ATOM     11  C   UNL     1       2.401  -0.025  -0.013  0.00  0.00    +0.071 A 
ATOM     12  C   UNL     1       1.200  -0.715  -0.015  0.00  0.00    -0.022 A 
ATOM     13  C   UNL     1       0.002  -0.004   0.002  0.00  0.00    +0.006 A 
ATOM     14  C   UNL     1       1.070  -2.205  -0.048  0.00  0.00    +0.039 C 
ATOM     15  C   UNL     1       2.129  -2.960   0.696  0.00  0.00    +0.028 C 
ATOM     16  C   UNL     1       3.450  -3.006  -0.033  0.00  0.00    +0.132 C 
ATOM     17  C   UNL     1       4.161  -1.702   0.015  0.00  0.00    +0.201 C 
ATOM     18  N   UNL     1       3.636  -0.563  -0.009  0.00  0.00    -0.216 NA
BRANCH  17  19
ATOM     19  O   UNL     1       5.507  -1.747   0.093  0.00  0.00    -0.495 OA
ATOM     20  H   UNL     1       5.929  -0.878   0.122  0.00  0.00    +0.293 HD
ENDBRANCH  17  19
ENDBRANCH   7  16
ENDBRANCH   6   7
ENDBRANCH   5   6
ENDBRANCH   1   5
BRANCH   3  21
ATOM     21  C   UNL     1      10.367  -6.296  -1.253  0.00  0.00    +0.108 C 
BRANCH  21  22
ATOM     22  C   UNL     1      11.348  -7.340  -0.717  0.00  0.00    +0.052 C 
BRANCH  22  23
ATOM     23  C   UNL     1      12.570  -7.380  -1.598  0.00  0.00    -0.040 C 
ATOM     24  C   UNL     1      13.735  -6.720  -1.403  0.00  0.00    +0.000 A 
ATOM     25  C   UNL     1      14.194  -5.803  -0.353  0.00  0.00    +0.030 A 
ATOM     26  C   UNL     1      15.443  -5.288  -0.432  0.00  0.00    +0.042 A 
ATOM     27  C   UNL     1      16.308  -5.609  -1.489  0.00  0.00    +0.022 A 
ATOM     28  C   UNL     1      15.956  -6.443  -2.490  0.00  0.00    +0.027 A 
ATOM     29  C   UNL     1      14.666  -7.042  -2.508  0.00  0.00    +0.043 A 
ATOM     30  N   UNL     1      14.100  -7.869  -3.353  0.00  0.00    -0.380 N 
ATOM     31  C   UNL     1      12.745  -8.170  -2.876  0.00  0.00    +0.144 C 
ATOM     32 CL   UNL     1      15.990  -4.203   0.808  0.00  0.00    -0.084 Cl
ATOM     33  H   UNL     1      14.509  -8.225  -4.157  0.00  0.00    +0.160 HD
ENDBRANCH  22  23
ENDBRANCH  21  22
ENDBRANCH   3  21
TORSDOF 8
