REMARK  Name = ZINC67602969
REMARK  9 active torsions:
REMARK  status: ('A' for Active; 'I' for Inactive)
REMARK    1  A    between atoms: C_1  and  C_2
REMARK    2  A    between atoms: C_6  and  C_30
REMARK    3  A    between atoms: C_7  and  O_8
REMARK    4  A    between atoms: O_8  and  C_9
REMARK    5  A    between atoms: C_9  and  C_10
REMARK    6  A    between atoms: C_10  and  C_12
REMARK    7  A    between atoms: C_10  and  O_29
REMARK    8  A    between atoms: C_12  and  N_13
REMARK    9  A    between atoms: N_16  and  C_17
REMARK                            x       y       z     vdW  Elec       q    Type
REMARK                         _______ _______ _______ _____ _____    ______ ____
ROOT
ATOM      1  N   UNL     1      -2.171   2.019   6.214  0.00  0.00    -0.297 N 
ATOM      2  C   UNL     1      -3.238   2.300   6.988  0.00  0.00    +0.300 C 
ATOM      3  O   UNL     1      -4.350   1.951   6.642  0.00  0.00    -0.253 OA
ATOM      4  N   UNL     1      -3.072   2.969   8.147  0.00  0.00    -0.296 N 
ATOM      5  H   UNL     1      -1.284   2.298   6.491  0.00  0.00    +0.150 HD
ATOM      6  H   UNL     1      -2.186   3.248   8.423  0.00  0.00    +0.151 HD
ENDROOT
BRANCH   4   7
ATOM      7  C   UNL     1      -4.232   3.275   8.988  0.00  0.00    +0.077 C 
ATOM      8  C   UNL     1      -4.537   2.078   9.891  0.00  0.00    +0.041 C 
ATOM      9  C   UNL     1      -5.770   2.388  10.745  0.00  0.00    +0.108 C 
ATOM     10  N   UNL     1      -5.541   3.646  11.468  0.00  0.00    -0.317 N 
ATOM     11  C   UNL     1      -5.154   4.840  10.704  0.00  0.00    +0.108 C 
ATOM     12  C   UNL     1      -3.927   4.502   9.850  0.00  0.00    +0.041 C 
ATOM     13  C   UNL     1      -5.688   3.706  12.849  0.00  0.00    +0.099 A 
ATOM     14  C   UNL     1      -6.176   2.601  13.539  0.00  0.00    +0.042 A 
ATOM     15  C   UNL     1      -6.317   2.675  14.913  0.00  0.00    +0.005 A 
ATOM     16  C   UNL     1      -5.965   3.856  15.553  0.00  0.00    +0.018 A 
ATOM     17  C   UNL     1      -5.487   4.914  14.806  0.00  0.00    +0.084 A 
ATOM     18  N   UNL     1      -5.358   4.813  13.496  0.00  0.00    -0.350 N 
ATOM     19  H   UNL     1      -5.016   5.570  12.995  0.00  0.00    +0.166 HD
ENDBRANCH   4   7
BRANCH   1  20
ATOM     20  C   UNL     1      -2.351   1.292   4.955  0.00  0.00    +0.140 C 
BRANCH  20  21
ATOM     21  C   UNL     1      -0.993   1.105   4.276  0.00  0.00    +0.169 C 
BRANCH  21  22
ATOM     22  O   UNL     1      -0.414   2.383   4.009  0.00  0.00    -0.387 OA
ATOM     23  H   UNL     1      -0.948   2.944   3.429  0.00  0.00    +0.210 HD
ENDBRANCH  21  22
BRANCH  21  24
ATOM     24  C   UNL     1      -1.181   0.345   2.961  0.00  0.00    +0.261 C 
BRANCH  24  25
ATOM     25  O   UNL     1       0.096   0.068   2.384  0.00  0.00    -0.489 OA
BRANCH  25  32
ATOM     26  C   UNL     1       0.017   1.597   0.010  0.00  0.00    +0.047 C 
ATOM     27  C   UNL     1       0.070   0.091   0.005  0.00  0.00    -0.009 A 
ATOM     28  C   UNL     1       0.088  -0.596  -1.193  0.00  0.00    +0.007 A 
ATOM     29  C   UNL     1       0.137  -1.978  -1.198  0.00  0.00    +0.001 A 
ATOM     30  C   UNL     1       0.168  -2.675  -0.005  0.00  0.00    +0.007 A 
ATOM     31  C   UNL     1       0.151  -1.992   1.196  0.00  0.00    -0.009 A 
ATOM     32  C   UNL     1       0.107  -0.606   1.204  0.00  0.00    +0.126 A 
ATOM     33  C   UNL     1       0.185  -2.753   2.497  0.00  0.00    +0.047 C 
ENDBRANCH  25  32
ENDBRANCH  24  25
ENDBRANCH  21  24
ENDBRANCH  20  21
ENDBRANCH   1  20
TORSDOF 7
