REMARK  Name = ZINC15479490
REMARK  10 active torsions:
REMARK  status: ('A' for Active; 'I' for Inactive)
REMARK    1  A    between atoms: C_1  and  C_2
REMARK    2  A    between atoms: C_2  and  C_3
REMARK    3  A    between atoms: C_5  and  C_22
REMARK    4  A    between atoms: C_6  and  N_8
REMARK    5  A    between atoms: C_9  and  C_11
REMARK    6  A    between atoms: C_11  and  N_12
REMARK    7  A    between atoms: C_17  and  C_19
REMARK    8  A    between atoms: C_22  and  O_24
REMARK    9  A    between atoms: O_24  and  C_25
REMARK   10  A    between atoms: C_25  and  C_26
REMARK                            x       y       z     vdW  Elec       q    Type
REMARK                         _______ _______ _______ _____ _____    ______ ____
ROOT
ATOM      1  N   UNL     1      -5.662  -2.793   0.795  0.00  0.00    -0.281 N 
ATOM      2  C   UNL     1      -5.565  -2.621   2.128  0.00  0.00    +0.201 C 
ATOM      3  O   UNL     1      -4.502  -2.318   2.625  0.00  0.00    -0.278 OA
ATOM      4  H   UNL     1      -6.513  -3.035   0.397  0.00  0.00    +0.155 HD
ENDROOT
BRANCH   1   8
ATOM      5  C   UNL     1      -2.175  -2.191  -1.120  0.00  0.00    -0.008 A 
ATOM      6  C   UNL     1      -3.159  -2.517  -1.978  0.00  0.00    +0.028 A 
ATOM      7  C   UNL     1      -4.457  -2.755  -1.388  0.00  0.00    +0.088 A 
ATOM      8  C   UNL     1      -4.545  -2.622  -0.009  0.00  0.00    +0.086 A 
ATOM      9  S   UNL     1      -2.988  -2.212   0.463  0.00  0.00    -0.078 S 
BRANCH   5  11
ATOM     10  C   UNL     1      -0.568  -0.388  -1.677  0.00  0.00    +0.009 C 
ATOM     11  C   UNL     1      -0.731  -1.888  -1.425  0.00  0.00    +0.039 C 
ENDBRANCH   5  11
BRANCH   7  12
ATOM     12  C   UNL     1      -5.619  -3.117  -2.202  0.00  0.00    +0.342 C 
ATOM     13  O   UNL     1      -6.697  -3.310  -1.672  0.00  0.00    -0.245 OA
BRANCH  12  14
ATOM     14  O   UNL     1      -5.494  -3.237  -3.540  0.00  0.00    -0.461 OA
BRANCH  14  15
ATOM     15  C   UNL     1      -6.668  -3.593  -4.272  0.00  0.00    +0.229 C 
ATOM     16  C   UNL     1      -6.333  -3.682  -5.762  0.00  0.00    +0.048 C 
ENDBRANCH  14  15
ENDBRANCH  12  14
ENDBRANCH   7  12
ENDBRANCH   1   8
BRANCH   2  17
ATOM     17  C   UNL     1      -6.779  -2.807   3.001  0.00  0.00    +0.020 C 
BRANCH  17  18
ATOM     18  N   UNL     1      -6.415  -2.566   4.404  0.00  0.00    +0.393 N 
ATOM     19  C   UNL     1      -5.490  -3.612   4.855  0.00  0.00    -0.077 C 
ATOM     20  C   UNL     1      -5.044  -3.321   6.289  0.00  0.00    -0.019 C 
ATOM     21  C   UNL     1      -6.272  -3.294   7.204  0.00  0.00    -0.003 C 
ATOM     22  C   UNL     1      -7.263  -2.250   6.681  0.00  0.00    -0.006 C 
ATOM     23  C   UNL     1      -7.627  -2.581   5.232  0.00  0.00    +0.020 C 
ATOM     24  H   UNL     1      -5.966  -1.666   4.484  0.00  0.00    -0.080 HD
BRANCH  23  25
ATOM     25  C   UNL     1      -8.603  -1.557   4.713  0.00  0.00    +0.197 C 
ATOM     26  O   UNL     1      -8.196  -0.565   4.145  0.00  0.00    -0.278 OA
ATOM     27  N   UNL     1      -9.927  -1.742   4.880  0.00  0.00    -0.331 N 
ATOM     28  H   UNL     1     -10.252  -2.535   5.334  0.00  0.00    +0.145 HD
ATOM     29  H   UNL     1     -10.555  -1.083   4.545  0.00  0.00    +0.145 HD
ENDBRANCH  23  25
ENDBRANCH  17  18
ENDBRANCH   2  17
TORSDOF 8
