REMARK  Name = ZINC36749643
REMARK  5 active torsions:
REMARK  status: ('A' for Active; 'I' for Inactive)
REMARK    1  A    between atoms: C_1  and  C_2
REMARK    2  A    between atoms: C_3  and  N_14
REMARK    3  A    between atoms: C_4  and  S_8
REMARK    4  A    between atoms: N_5  and  C_7
REMARK    5  A    between atoms: S_8  and  C_9
REMARK                            x       y       z     vdW  Elec       q    Type
REMARK                         _______ _______ _______ _____ _____    ______ ____
ROOT
ATOM      1  C   UNL     1      -0.018   1.503   0.010  0.00  0.00    +0.069 C 
ATOM      2  C   UNL     1       0.002  -0.004   0.002  0.00  0.00    +0.082 A 
ATOM      3  C   UNL     1       0.008  -0.816  -1.138  0.00  0.00    +0.080 A 
ATOM      4  C   UNL     1       0.028  -2.116  -0.725  0.00  0.00    +0.122 A 
ATOM      5  N   UNL     1       0.035  -2.110   0.637  0.00  0.00    -0.259 N 
ATOM      6  N   UNL     1       0.023  -0.775   1.061  0.00  0.00    -0.174 NA
ATOM      7  C   UNL     1       0.056  -3.290   1.505  0.00  0.00    +0.173 C 
ENDROOT
BRANCH   3   8
ATOM      8  N   UNL     1      -0.005  -0.368  -2.478  0.00  0.00    -0.354 N 
ATOM      9  H   UNL     1      -0.019   0.582  -2.672  0.00  0.00    +0.142 HD
ATOM     10  H   UNL     1       0.000  -1.012  -3.204  0.00  0.00    +0.142 HD
ENDBRANCH   3   8
BRANCH   4  11
ATOM     11  S   UNL     1       0.043  -3.540  -1.762  0.00  0.00    -0.040 S 
BRANCH  11  12
ATOM     12  C   UNL     1       1.537  -4.367  -1.330  0.00  0.00    +0.164 A 
ATOM     13  N   UNL     1       2.465  -4.044  -0.438  0.00  0.00    -0.135 NA
ATOM     14  N   UNL     1       3.488  -4.759  -0.254  0.00  0.00    -0.149 NA
ATOM     15  C   UNL     1       3.700  -5.869  -0.932  0.00  0.00    +0.182 A 
ATOM     16  S   UNL     1       2.236  -5.890  -1.963  0.00  0.00    -0.047 S 
ENDBRANCH  11  12
ENDBRANCH   4  11
TORSDOF 3
