REMARK  Name = ZINC19906261
REMARK  5 active torsions:
REMARK  status: ('A' for Active; 'I' for Inactive)
REMARK    1  A    between atoms: C_1  and  N_2
REMARK    2  A    between atoms: C_8  and  N_13
REMARK    3  A    between atoms: N_13  and  C_14
REMARK    4  A    between atoms: C_14  and  C_15
REMARK    5  A    between atoms: C_20  and  O_21
REMARK                            x       y       z     vdW  Elec       q    Type
REMARK                         _______ _______ _______ _____ _____    ______ ____
ROOT
ATOM      1  C   UNL     1      -4.877   2.416   0.061  0.00  0.00    +0.142 C 
ATOM      2  N   UNL     1      -3.412   2.435   0.047  0.00  0.00    -0.237 N 
ATOM      3  C   UNL     1      -2.637   1.336   0.034  0.00  0.00    +0.254 C 
ATOM      4  O   UNL     1      -3.036   0.188   0.031  0.00  0.00    -0.270 OA
ATOM      5  C   UNL     1      -1.223   1.755   0.017  0.00  0.00    +0.050 A 
ATOM      6  C   UNL     1      -0.013   1.076   0.008  0.00  0.00    +0.015 A 
ATOM      7  C   UNL     1       1.174   1.785   0.000  0.00  0.00    +0.024 A 
ATOM      8  C   UNL     1       1.163   3.175   0.009  0.00  0.00    +0.028 A 
ATOM      9  C   UNL     1      -0.048   3.869   0.024  0.00  0.00    +0.036 A 
ATOM     10  C   UNL     1      -1.239   3.167   0.031  0.00  0.00    +0.051 A 
ATOM     11  C   UNL     1      -2.666   3.554   0.047  0.00  0.00    +0.254 C 
ATOM     12  O   UNL     1      -3.092   4.692   0.058  0.00  0.00    -0.270 OA
ENDROOT
BRANCH   8  13
ATOM     13  N   UNL     1       2.363   3.877   0.002  0.00  0.00    -0.340 N 
ATOM     14  H   UNL     1       2.357   4.977   0.008  0.00  0.00    +0.146 HD
BRANCH  13  15
ATOM     15  C   UNL     1       3.636   3.152  -0.014  0.00  0.00    +0.140 C 
BRANCH  15  16
ATOM     16  C   UNL     1       4.776   4.137  -0.018  0.00  0.00    +0.011 A 
ATOM     17  C   UNL     1       5.428   4.435  -1.200  0.00  0.00    +0.009 A 
ATOM     18  C   UNL     1       6.470   5.343  -1.205  0.00  0.00    +0.001 A 
ATOM     19  C   UNL     1       6.870   5.947  -0.028  0.00  0.00    +0.004 A 
ATOM     20  C   UNL     1       6.225   5.649   1.157  0.00  0.00    +0.046 A 
ATOM     21  C   UNL     1       5.175   4.742   1.164  0.00  0.00    +0.122 A 
BRANCH  21  22
ATOM     22  O   UNL     1       4.539   4.447   2.328  0.00  0.00    -0.506 OA
ATOM     23  H   UNL     1       4.856   4.928   3.266  0.00  0.00    +0.292 HD
ENDBRANCH  21  22
ENDBRANCH  15  16
ENDBRANCH  13  15
ENDBRANCH   8  13
TORSDOF 4
