REMARK  Name = ZINC00876803
REMARK  8 active torsions:
REMARK  status: ('A' for Active; 'I' for Inactive)
REMARK    1  A    between atoms: C_1  and  C_2
REMARK    2  A    between atoms: C_2  and  O_3
REMARK    3  A    between atoms: O_3  and  C_4
REMARK    4  A    between atoms: C_9  and  N_10
REMARK    5  A    between atoms: C_12  and  C_22
REMARK    6  A    between atoms: C_17  and  O_21
REMARK    7  A    between atoms: N_24  and  C_25
REMARK    8  A    between atoms: C_25  and  C_26
REMARK                            x       y       z     vdW  Elec       q    Type
REMARK                         _______ _______ _______ _____ _____    ______ ____
ROOT
ATOM      1  N   UNL     1       2.042  -1.462   3.255  0.00  0.00    -0.322 N 
ATOM      2  C   UNL     1       2.614  -2.046   4.285  0.00  0.00    +0.212 A 
ATOM      3  C   UNL     1       3.081  -1.262   5.445  0.00  0.00    +0.097 A 
ATOM      4  C   UNL     1       3.164  -1.917   6.665  0.00  0.00    +0.030 A 
ATOM      5  C   UNL     1       2.829  -3.294   6.711  0.00  0.00    +0.018 A 
ATOM      6  C   UNL     1       2.702  -3.953   7.943  0.00  0.00    +0.015 A 
ATOM      7  C   UNL     1       2.338  -5.267   7.977  0.00  0.00    +0.046 A 
ATOM      8  C   UNL     1       2.099  -5.965   6.794  0.00  0.00    +0.120 A 
ATOM      9  C   UNL     1       2.239  -5.336   5.566  0.00  0.00    +0.092 A 
ATOM     10  C   UNL     1       2.615  -4.005   5.514  0.00  0.00    +0.141 A 
ATOM     11  O   UNL     1       2.792  -3.392   4.320  0.00  0.00    -0.438 OA
ATOM     12  H   UNL     1       1.943  -0.497   3.237  0.00  0.00    +0.169 HD
ENDROOT
BRANCH   1  18
ATOM     13  C   UNL     1       0.273  -2.055   1.744  0.00  0.00    +0.144 A 
ATOM     14  C   UNL     1      -0.178  -2.817   0.681  0.00  0.00    +0.048 A 
ATOM     15  C   UNL     1       0.662  -3.739   0.083  0.00  0.00    +0.004 A 
ATOM     16  C   UNL     1       1.957  -3.906   0.541  0.00  0.00    +0.002 A 
ATOM     17  C   UNL     1       2.422  -3.153   1.600  0.00  0.00    +0.029 A 
ATOM     18  C   UNL     1       1.585  -2.216   2.208  0.00  0.00    +0.084 A 
BRANCH  13  19
ATOM     19  O   UNL     1      -0.553  -1.149   2.333  0.00  0.00    -0.490 OA
BRANCH  19  21
ATOM     20  C   UNL     1      -2.648   0.031   2.573  0.00  0.00    +0.048 C 
ATOM     21  C   UNL     1      -1.904  -1.107   1.871  0.00  0.00    +0.226 C 
ENDBRANCH  19  21
ENDBRANCH  13  19
ENDBRANCH   1  18
BRANCH   3  22
ATOM     22  C   UNL     1       3.443   0.158   5.313  0.00  0.00    +0.250 C 
ATOM     23  O   UNL     1       3.292   0.728   4.249  0.00  0.00    -0.270 OA
ATOM     24  N   UNL     1       3.943   0.828   6.371  0.00  0.00    -0.304 N 
ATOM     25  H   UNL     1       4.130   0.357   7.198  0.00  0.00    +0.149 HD
BRANCH  24  26
ATOM     26  C   UNL     1       4.205   2.265   6.271  0.00  0.00    +0.179 C 
BRANCH  26  27
ATOM     27  C   UNL     1       4.868   2.745   7.536  0.00  0.00    +0.122 A 
ATOM     28  C   UNL     1       6.192   2.876   7.729  0.00  0.00    +0.046 A 
ATOM     29  C   UNL     1       6.369   3.351   9.049  0.00  0.00    +0.041 A 
ATOM     30  C   UNL     1       5.142   3.482   9.584  0.00  0.00    +0.195 A 
ATOM     31  O   UNL     1       4.236   3.119   8.661  0.00  0.00    -0.466 OA
ENDBRANCH  26  27
ENDBRANCH  24  26
ENDBRANCH   3  22
BRANCH   8  32
ATOM     32  O   UNL     1       1.727  -7.269   6.845  0.00  0.00    -0.507 OA
ATOM     33  H   UNL     1       0.771  -7.404   6.888  0.00  0.00    +0.292 HD
ENDBRANCH   8  32
TORSDOF 7
