REMARK  Name = ZINC37813939
REMARK  7 active torsions:
REMARK  status: ('A' for Active; 'I' for Inactive)
REMARK    1  A    between atoms: C_1  and  C_2
REMARK    2  A    between atoms: C_2  and  C_3
REMARK    3  A    between atoms: C_2  and  C_6
REMARK    4  A    between atoms: C_2  and  N_18
REMARK    5  A    between atoms: N_8  and  C_9
REMARK    6  A    between atoms: N_8  and  C_13
REMARK    7  A    between atoms: C_9  and  C_10
REMARK                            x       y       z     vdW  Elec       q    Type
REMARK                         _______ _______ _______ _____ _____    ______ ____
ROOT
ATOM      1  C   UNL     1       0.652  -0.316  -1.105  0.00  0.00    +0.205 C 
ATOM      2  O   UNL     1       0.143   0.200  -0.133  0.00  0.00    -0.277 OA
ATOM      3  N   UNL     1      -0.083  -0.533  -2.214  0.00  0.00    -0.291 N 
ENDROOT
BRANCH   3   4
ATOM      4  C   UNL     1       0.554  -1.058  -3.424  0.00  0.00    +0.077 C 
ATOM      5  C   UNL     1      -0.217  -2.293  -3.934  0.00  0.00    +0.022 C 
ATOM      6  C   UNL     1      -1.174  -1.726  -5.011  0.00  0.00    +0.002 C 
ATOM      7  C   UNL     1      -0.308  -0.643  -5.702  0.00  0.00    +0.002 C 
ATOM      8  C   UNL     1       0.496  -0.009  -4.549  0.00  0.00    +0.022 C 
ENDBRANCH   3   4
BRANCH   1  10
ATOM      9  C   UNL     1       2.887   0.131  -2.082  0.00  0.00    -0.001 C 
ATOM     10  C   UNL     1       2.105  -0.715  -1.075  0.00  0.00    +0.007 C 
BRANCH  10  11
ATOM     11  N   UNL     1       2.645  -0.493   0.274  0.00  0.00    +0.388 N 
ATOM     12  H   UNL     1       2.487   0.465   0.546  0.00  0.00    -0.089 HD
ATOM     13  H   UNL     1       2.182  -1.109   0.926  0.00  0.00    -0.089 HD
ATOM     14  H   UNL     1       3.635  -0.684   0.275  0.00  0.00    -0.089 HD
ENDBRANCH  10  11
BRANCH  10  15
ATOM     15  C   UNL     1       2.236  -2.195  -1.440  0.00  0.00    -0.014 C 
ATOM     16  C   UNL     1       2.676  -3.158  -0.336  0.00  0.00    +0.003 C 
ATOM     17  C   UNL     1       3.643  -2.794  -1.464  0.00  0.00    +0.003 C 
ENDBRANCH  10  15
ENDBRANCH   1  10
BRANCH   3  18
ATOM     18  C   UNL     1      -1.519  -0.243  -2.210  0.00  0.00    +0.203 C 
BRANCH  18  19
ATOM     19  C   UNL     1      -2.268  -1.423  -1.645  0.00  0.00    +0.228 C 
ATOM     20  O   UNL     1      -1.657  -2.370  -1.196  0.00  0.00    -0.274 OA
ATOM     21  N   UNL     1      -3.616  -1.426  -1.641  0.00  0.00    -0.328 N 
ATOM     22  H   UNL     1      -4.104  -0.669  -2.000  0.00  0.00    +0.145 HD
ATOM     23  H   UNL     1      -4.098  -2.186  -1.277  0.00  0.00    +0.145 HD
ENDBRANCH  18  19
ENDBRANCH   3  18
TORSDOF 6
