REMARK  Name = ZINC61641118
REMARK  5 active torsions:
REMARK  status: ('A' for Active; 'I' for Inactive)
REMARK    1  A    between atoms: C_1  and  C_2
REMARK    2  A    between atoms: C_2  and  N_8
REMARK    3  A    between atoms: N_8  and  C_9
REMARK    4  A    between atoms: C_9  and  C_10
REMARK    5  A    between atoms: N_13  and  C_15
REMARK                            x       y       z     vdW  Elec       q    Type
REMARK                         _______ _______ _______ _____ _____    ______ ____
ROOT
ATOM      1  C   UNL     1      -2.087  -0.026  -1.178  0.00  0.00    -0.024 C 
ENDROOT
BRANCH   1   2
ATOM      2  C   UNL     1      -3.500  -0.547  -1.167  0.00  0.00    +0.047 A 
ATOM      3  C   UNL     1      -4.622   0.132  -0.679  0.00  0.00    +0.043 A 
ATOM      4  C   UNL     1      -5.700  -0.667  -0.848  0.00  0.00    +0.114 A 
ATOM      5  N   UNL     1      -5.275  -1.815  -1.424  0.00  0.00    -0.240 N 
ATOM      6  N   UNL     1      -3.892  -1.712  -1.618  0.00  0.00    -0.173 NA
BRANCH   5   7
ATOM      7  C   UNL     1      -6.078  -2.911  -1.769  0.00  0.00    +0.065 A 
ATOM      8  C   UNL     1      -7.445  -2.876  -1.528  0.00  0.00    +0.028 A 
ATOM      9  C   UNL     1      -8.233  -3.957  -1.869  0.00  0.00    +0.002 A 
ATOM     10  C   UNL     1      -7.662  -5.074  -2.450  0.00  0.00    +0.000 A 
ATOM     11  C   UNL     1      -6.301  -5.113  -2.692  0.00  0.00    +0.002 A 
ATOM     12  C   UNL     1      -5.508  -4.032  -2.358  0.00  0.00    +0.028 A 
ENDBRANCH   5   7
ENDBRANCH   1   2
BRANCH   1  13
ATOM     13  N   UNL     1      -1.376  -0.512   0.012  0.00  0.00    +0.386 N 
ATOM     14  H   UNL     1      -1.362  -1.521   0.007  0.00  0.00    -0.085 HD
ATOM     15  H   UNL     1      -1.848  -0.187   0.843  0.00  0.00    -0.085 HD
BRANCH  13  17
ATOM     16  C   UNL     1      -0.019   1.526   0.010  0.00  0.00    -0.010 C 
ATOM     17  C   UNL     1       0.002  -0.004   0.002  0.00  0.00    -0.071 C 
ATOM     18  C   UNL     1       0.718  -0.497  -1.257  0.00  0.00    -0.013 C 
ATOM     19  C   UNL     1       2.154   0.032  -1.268  0.00  0.00    -0.001 C 
ATOM     20  C   UNL     1       2.894  -0.475  -0.028  0.00  0.00    -0.000 C 
ATOM     21  C   UNL     1       2.178   0.019   1.231  0.00  0.00    -0.001 C 
ATOM     22  C   UNL     1       0.742  -0.511   1.242  0.00  0.00    -0.013 C 
ENDBRANCH  13  17
ENDBRANCH   1  13
TORSDOF 4
