REMARK  Name = ZINC63258928
REMARK  9 active torsions:
REMARK  status: ('A' for Active; 'I' for Inactive)
REMARK    1  A    between atoms: C_1  and  C_2
REMARK    2  A    between atoms: C_6  and  N_8
REMARK    3  A    between atoms: C_9  and  C_29
REMARK    4  A    between atoms: C_12  and  S_13
REMARK    5  A    between atoms: S_13  and  C_14
REMARK    6  A    between atoms: C_14  and  C_15
REMARK    7  A    between atoms: N_17  and  C_18
REMARK    8  A    between atoms: C_21  and  N_26
REMARK    9  A    between atoms: C_23  and  C_24
REMARK                            x       y       z     vdW  Elec       q    Type
REMARK                         _______ _______ _______ _____ _____    ______ ____
ROOT
ATOM      1  N   UNL     1       0.066  -2.827   2.378  0.00  0.00    -0.270 N 
ATOM      2  C   UNL     1      -0.913  -3.679   2.861  0.00  0.00    +0.168 A 
ATOM      3  N   UNL     1      -0.486  -4.135   4.031  0.00  0.00    -0.128 NA
ATOM      4  N   UNL     1       0.666  -3.633   4.299  0.00  0.00    -0.122 NA
ATOM      5  C   UNL     1       1.054  -2.830   3.319  0.00  0.00    +0.197 A 
ENDROOT
BRANCH   2   6
ATOM      6  C   UNL     1      -2.126  -3.999   2.232  0.00  0.00    +0.025 C 
ATOM      7  C   UNL     1      -3.124  -4.850   2.708  0.00  0.00    +0.006 A 
ATOM      8  C   UNL     1      -3.241  -5.617   3.888  0.00  0.00    +0.010 A 
ATOM      9  C   UNL     1      -4.351  -6.371   4.093  0.00  0.00    +0.001 A 
ATOM     10  C   UNL     1      -5.390  -6.412   3.161  0.00  0.00    +0.002 A 
ATOM     11  C   UNL     1      -5.345  -5.703   2.007  0.00  0.00    +0.026 A 
ATOM     12  C   UNL     1      -4.217  -4.890   1.723  0.00  0.00    +0.043 A 
ATOM     13  N   UNL     1      -3.936  -4.118   0.691  0.00  0.00    -0.380 N 
ATOM     14  C   UNL     1      -2.629  -3.488   0.900  0.00  0.00    +0.152 C 
ATOM     15  H   UNL     1      -4.506  -3.985  -0.082  0.00  0.00    +0.160 HD
ENDBRANCH   2   6
BRANCH   1  21
ATOM     16  C   UNL     1      -0.029   1.481   0.008  0.00  0.00    +0.044 C 
ATOM     17  C   UNL     1       0.003  -0.026  -0.005  0.00  0.00    -0.048 A 
ATOM     18  C   UNL     1       0.014  -0.706  -1.209  0.00  0.00    +0.003 A 
ATOM     19  C   UNL     1       0.043  -2.089  -1.225  0.00  0.00    +0.002 A 
ATOM     20  C   UNL     1       0.060  -2.794  -0.038  0.00  0.00    +0.026 A 
ATOM     21  C   UNL     1       0.049  -2.114   1.173  0.00  0.00    +0.051 A 
ATOM     22  C   UNL     1       0.026  -0.726   1.185  0.00  0.00    +0.029 A 
ENDBRANCH   1  21
BRANCH   5  23
ATOM     23  S   UNL     1       2.566  -1.929   3.246  0.00  0.00    -0.076 S 
BRANCH  23  24
ATOM     24  C   UNL     1       3.415  -2.372   4.787  0.00  0.00    +0.173 C 
BRANCH  24  25
ATOM     25  C   UNL     1       4.742  -1.659   4.852  0.00  0.00    +0.228 C 
ATOM     26  O   UNL     1       5.081  -0.925   3.948  0.00  0.00    -0.275 OA
ATOM     27  N   UNL     1       5.551  -1.837   5.915  0.00  0.00    -0.284 N 
ATOM     28  H   UNL     1       5.247  -2.359   6.673  0.00  0.00    +0.155 HD
BRANCH  27  29
ATOM     29  C   UNL     1       6.825  -1.271   5.923  0.00  0.00    +0.051 A 
ATOM     30  C   UNL     1       7.469  -0.984   4.728  0.00  0.00    +0.027 A 
ATOM     31  C   UNL     1       8.730  -0.422   4.739  0.00  0.00    +0.034 A 
ATOM     32  C   UNL     1       9.363  -0.143   5.939  0.00  0.00    +0.128 A 
ATOM     33  C   UNL     1       8.739  -0.421   7.136  0.00  0.00    +0.053 A 
ATOM     34  C   UNL     1       7.460  -0.984   7.141  0.00  0.00    +0.075 A 
BRANCH  32  35
ATOM     35  N   UNL     1      10.716   0.458   5.936  0.00  0.00    +0.056 N 
ATOM     36  O   UNL     1      11.266   0.703   4.887  0.00  0.00    -0.126 OA
ATOM     37  O   UNL     1      11.270   0.704   6.981  0.00  0.00    -0.126 OA
ENDBRANCH  32  35
BRANCH  34  38
ATOM     38  C   UNL     1       6.804  -1.270   8.381  0.00  0.00    +0.101 C 
ATOM     39  N   UNL     1       6.283  -1.497   9.365  0.00  0.00    -0.191 NA
ENDBRANCH  34  38
ENDBRANCH  27  29
ENDBRANCH  24  25
ENDBRANCH  23  24
ENDBRANCH   5  23
TORSDOF 8
