REMARK  Name = ZINC51145163
REMARK  6 active torsions:
REMARK  status: ('A' for Active; 'I' for Inactive)
REMARK    1  A    between atoms: C_1  and  N_2
REMARK    2  A    between atoms: N_2  and  C_3
REMARK    3  A    between atoms: N_2  and  C_12
REMARK    4  A    between atoms: C_3  and  C_4
REMARK    5  A    between atoms: N_10  and  N_11
REMARK    6  A    between atoms: C_12  and  C_13
REMARK                            x       y       z     vdW  Elec       q    Type
REMARK                         _______ _______ _______ _____ _____    ______ ____
ROOT
ATOM      1  C   UNL     1      -1.376  -0.512   0.012  0.00  0.00    -0.041 C 
ENDROOT
BRANCH   1   2
ATOM      2  C   UNL     1      -2.067  -0.116  -1.267  0.00  0.00    -0.046 A 
ATOM      3  C   UNL     1      -2.756   1.087  -1.348  0.00  0.00    +0.006 A 
ATOM      4  C   UNL     1      -3.376   1.413  -2.540  0.00  0.00    +0.045 A 
ATOM      5  C   UNL     1      -3.291   0.530  -3.611  0.00  0.00    +0.132 A 
ATOM      6  N   UNL     1      -2.625  -0.609  -3.494  0.00  0.00    -0.239 NA
ATOM      7  C   UNL     1      -2.018  -0.943  -2.371  0.00  0.00    +0.114 A 
ATOM      8  N   UNL     1      -3.910   0.844  -4.815  0.00  0.00    -0.268 N 
ATOM      9  H   UNL     1      -4.399   1.677  -4.906  0.00  0.00    +0.167 HD
BRANCH   8  10
ATOM     10  N   UNL     1      -3.830  -0.019  -5.871  0.00  0.00    -0.255 NA
ATOM     11  H   UNL     1      -4.326   0.343  -6.672  0.00  0.00    +0.140 HD
ATOM     12  H   UNL     1      -2.869  -0.221  -6.101  0.00  0.00    +0.140 HD
ENDBRANCH   8  10
ENDBRANCH   1   2
BRANCH   1  14
ATOM     13  C   UNL     1      -0.018   1.465   0.010  0.00  0.00    -0.095 C 
ATOM     14  N   UNL     1       0.002  -0.004   0.002  0.00  0.00    +0.384 N 
ATOM     15  H   UNL     1       0.474  -0.330  -0.828  0.00  0.00    -0.081 HD
BRANCH  14  16
ATOM     16  C   UNL     1       0.713  -0.491   1.192  0.00  0.00    -0.036 C 
BRANCH  16  17
ATOM     17  C   UNL     1       2.158  -0.072   1.120  0.00  0.00    -0.026 A 
ATOM     18  C   UNL     1       2.744   1.057   1.589  0.00  0.00    +0.024 A 
ATOM     19  C   UNL     1       4.104   1.231   1.408  0.00  0.00    +0.025 A 
ATOM     20  C   UNL     1       4.810   0.268   0.766  0.00  0.00    +0.060 A 
ATOM     21  S   UNL     1       3.545  -0.937   0.402  0.00  0.00    -0.102 S 
ATOM     22 BR   UNL     1       4.965   2.790   2.045  0.00  0.00    -0.050 Br
ENDBRANCH  16  17
ENDBRANCH  14  16
ENDBRANCH   1  14
TORSDOF 5
