REMARK  Name = ZINC35571484
REMARK  8 active torsions:
REMARK  status: ('A' for Active; 'I' for Inactive)
REMARK    1  A    between atoms: C_1  and  C_2
REMARK    2  A    between atoms: C_2  and  N_3
REMARK    3  A    between atoms: N_3  and  C_4
REMARK    4  A    between atoms: C_4  and  C_6
REMARK    5  A    between atoms: C_4  and  C_15
REMARK    6  A    between atoms: C_9  and  O_13
REMARK    7  A    between atoms: C_10  and  C_12
REMARK    8  A    between atoms: O_13  and  C_14
REMARK                            x       y       z     vdW  Elec       q    Type
REMARK                         _______ _______ _______ _____ _____    ______ ____
ROOT
ATOM      1  C   UNL     1      -1.356  -1.981   0.004  0.00  0.00    -0.007 C 
ENDROOT
BRANCH   1   2
ATOM      2  C   UNL     1      -2.766  -2.502  -0.109  0.00  0.00    -0.022 A 
ATOM      3  C   UNL     1      -3.832  -1.687   0.219  0.00  0.00    +0.006 A 
ATOM      4  C   UNL     1      -5.125  -2.163   0.115  0.00  0.00    +0.015 A 
ATOM      5  C   UNL     1      -5.354  -3.458  -0.317  0.00  0.00    +0.021 A 
ATOM      6  C   UNL     1      -4.288  -4.276  -0.644  0.00  0.00    +0.053 A 
ATOM      7  C   UNL     1      -2.993  -3.796  -0.546  0.00  0.00    +0.126 A 
ATOM      8  F   UNL     1      -1.951  -4.592  -0.871  0.00  0.00    -0.205 F 
ATOM      9 BR   UNL     1      -7.123  -4.109  -0.458  0.00  0.00    -0.050 Br
ENDBRANCH   1   2
BRANCH   1  10
ATOM     10  C   UNL     1      -0.737  -2.482   1.284  0.00  0.00    -0.057 A 
ATOM     11  C   UNL     1      -1.032  -1.861   2.483  0.00  0.00    +0.006 A 
ATOM     12  C   UNL     1      -0.465  -2.318   3.657  0.00  0.00    +0.046 A 
ATOM     13  C   UNL     1       0.401  -3.402   3.632  0.00  0.00    +0.123 A 
ATOM     14  C   UNL     1       0.695  -4.024   2.427  0.00  0.00    -0.009 A 
ATOM     15  C   UNL     1       0.121  -3.566   1.256  0.00  0.00    +0.009 A 
ATOM     16  C   UNL     1       1.635  -5.201   2.396  0.00  0.00    +0.047 C 
BRANCH  13  17
ATOM     17  O   UNL     1       0.960  -3.853   4.785  0.00  0.00    -0.495 OA
ATOM     18  C   UNL     1       0.612  -3.164   5.988  0.00  0.00    +0.277 C 
ENDBRANCH  13  17
ENDBRANCH   1  10
BRANCH   1  19
ATOM     19  N   UNL     1      -1.376  -0.512   0.012  0.00  0.00    +0.386 N 
ATOM     20  H   UNL     1      -1.848  -0.187   0.843  0.00  0.00    -0.085 HD
ATOM     21  H   UNL     1      -1.864  -0.178  -0.805  0.00  0.00    -0.085 HD
BRANCH  19  23
ATOM     22  C   UNL     1      -0.019   1.526   0.010  0.00  0.00    -0.017 C 
ATOM     23  C   UNL     1       0.002  -0.004   0.002  0.00  0.00    -0.085 C 
ENDBRANCH  19  23
ENDBRANCH   1  19
TORSDOF 5
