REMARK  Name = ZINC57712573
REMARK  7 active torsions:
REMARK  status: ('A' for Active; 'I' for Inactive)
REMARK    1  A    between atoms: C_1  and  C_2
REMARK    2  A    between atoms: C_2  and  O_3
REMARK    3  A    between atoms: O_3  and  C_4
REMARK    4  A    between atoms: C_9  and  C_16
REMARK    5  A    between atoms: C_16  and  N_17
REMARK    6  A    between atoms: N_17  and  C_18
REMARK    7  A    between atoms: C_21  and  N_24
REMARK                            x       y       z     vdW  Elec       q    Type
REMARK                         _______ _______ _______ _____ _____    ______ ____
ROOT
ATOM      1  C   UNL     1       3.565  -9.771   2.608  0.00  0.00    +0.027 A 
ATOM      2  C   UNL     1       2.700 -10.692   3.186  0.00  0.00    +0.025 A 
ATOM      3  C   UNL     1       3.059 -12.024   3.260  0.00  0.00    +0.025 A 
ATOM      4  C   UNL     1       4.285 -12.442   2.757  0.00  0.00    +0.030 A 
ATOM      5  C   UNL     1       5.149 -11.521   2.179  0.00  0.00    +0.025 A 
ATOM      6  C   UNL     1       4.787 -10.190   2.100  0.00  0.00    +0.025 A 
ENDROOT
BRANCH   4   7
ATOM      7  N   UNL     1       4.649 -13.791   2.833  0.00  0.00    -0.327 N 
ATOM      8  C   UNL     1       5.885 -14.269   2.198  0.00  0.00    +0.124 C 
ATOM      9  C   UNL     1       6.737 -14.978   3.258  0.00  0.00    +0.125 C 
ATOM     10  N   UNL     1       5.890 -15.943   3.974  0.00  0.00    -0.314 N 
ATOM     11  C   UNL     1       4.654 -15.464   4.609  0.00  0.00    +0.125 C 
ATOM     12  C   UNL     1       3.804 -14.755   3.554  0.00  0.00    +0.124 C 
ATOM     13  C   UNL     1       6.252 -17.282   4.049  0.00  0.00    +0.099 A 
ATOM     14  C   UNL     1       7.490 -17.691   3.563  0.00  0.00    +0.042 A 
ATOM     15  C   UNL     1       7.837 -19.027   3.644  0.00  0.00    +0.005 A 
ATOM     16  C   UNL     1       6.930 -19.914   4.211  0.00  0.00    +0.018 A 
ATOM     17  C   UNL     1       5.720 -19.440   4.674  0.00  0.00    +0.084 A 
ATOM     18  N   UNL     1       5.417 -18.158   4.588  0.00  0.00    -0.350 N 
ATOM     19  H   UNL     1       4.561 -17.850   4.924  0.00  0.00    +0.166 HD
ENDBRANCH   4   7
BRANCH   1  20
ATOM     20  N   UNL     1       3.201  -8.422   2.533  0.00  0.00    -0.340 N 
ATOM     21  H   UNL     1       3.803  -7.779   2.127  0.00  0.00    +0.146 HD
BRANCH  20  22
ATOM     22  C   UNL     1       1.911  -7.980   3.069  0.00  0.00    +0.142 C 
BRANCH  22  28
ATOM     23  C   UNL     1       0.772  -1.830   1.326  0.00  0.00    +0.122 A 
ATOM     24  C   UNL     1       0.215  -2.678   0.369  0.00  0.00    +0.046 A 
ATOM     25  C   UNL     1       0.316  -4.032   0.501  0.00  0.00    +0.013 A 
ATOM     26  C   UNL     1       0.983  -4.575   1.605  0.00  0.00    -0.001 A 
ATOM     27  C   UNL     1       1.108  -6.023   1.775  0.00  0.00    +0.020 A 
ATOM     28  C   UNL     1       1.765  -6.494   2.865  0.00  0.00    +0.034 A 
ATOM     29  C   UNL     1       2.311  -5.599   3.807  0.00  0.00    +0.254 A 
ATOM     30  O   UNL     1       2.897  -6.043   4.779  0.00  0.00    -0.268 OA
ATOM     31  N   UNL     1       2.202  -4.266   3.661  0.00  0.00    -0.322 N 
ATOM     32  H   UNL     1       2.590  -3.679   4.328  0.00  0.00    +0.169 HD
ATOM     33  C   UNL     1       1.547  -3.724   2.576  0.00  0.00    +0.053 A 
ATOM     34  C   UNL     1       1.439  -2.348   2.422  0.00  0.00    +0.072 A 
BRANCH  23  35
ATOM     35  O   UNL     1       0.662  -0.485   1.178  0.00  0.00    -0.492 OA
BRANCH  35  37
ATOM     36  C   UNL     1      -0.058   1.516   0.030  0.00  0.00    +0.048 C 
ATOM     37  C   UNL     1      -0.038  -0.014   0.025  0.00  0.00    +0.225 C 
ENDBRANCH  35  37
ENDBRANCH  23  35
ENDBRANCH  22  28
ENDBRANCH  20  22
ENDBRANCH   1  20
TORSDOF 6
