REMARK  Name = ZINC39988295
REMARK  7 active torsions:
REMARK  status: ('A' for Active; 'I' for Inactive)
REMARK    1  A    between atoms: C_4  and  C_10
REMARK    2  A    between atoms: N_11  and  N_12
REMARK    3  A    between atoms: C_13  and  C_15
REMARK    4  A    between atoms: C_15  and  C_16
REMARK    5  A    between atoms: C_16  and  C_17
REMARK    6  A    between atoms: N_19  and  N_20
REMARK    7  A    between atoms: C_21  and  C_22
REMARK                            x       y       z     vdW  Elec       q    Type
REMARK                         _______ _______ _______ _____ _____    ______ ____
ROOT
ATOM      1  C   UNL     1       7.586   6.608  -0.036  0.00  0.00    +0.107 C 
ENDROOT
BRANCH   1   3
ATOM      2  N   UNL     1       5.815   4.882  -0.028  0.00  0.00    -0.207 N 
ATOM      3  C   UNL     1       7.131   5.171  -0.039  0.00  0.00    +0.233 C 
ATOM      4  O   UNL     1       7.949   4.276  -0.051  0.00  0.00    -0.274 OA
ATOM      5  H   UNL     1       5.161   5.598  -0.018  0.00  0.00    +0.177 HD
BRANCH   2   7
ATOM      6  C   UNL     1       4.113   3.265  -0.020  0.00  0.00    +0.136 C 
ATOM      7  N   UNL     1       5.391   3.546  -0.031  0.00  0.00    -0.188 NA
BRANCH   6  11
ATOM      8  C   UNL     1      -0.017   1.394   0.010  0.00  0.00    +0.001 A 
ATOM      9  C   UNL     1       1.129   2.121   0.003  0.00  0.00    +0.010 A 
ATOM     10  C   UNL     1       2.377   1.460  -0.013  0.00  0.00    +0.004 A 
ATOM     11  C   UNL     1       3.689   1.928  -0.023  0.00  0.00    +0.000 C 
ATOM     12  C   UNL     1       4.561   0.692  -0.038  0.00  0.00    +0.150 C 
ATOM     13  N   UNL     1       3.644  -0.451  -0.035  0.00  0.00    -0.380 N 
ATOM     14  C   UNL     1       2.403  -0.013  -0.021  0.00  0.00    +0.043 A 
ATOM     15  C   UNL     1       1.162  -0.704  -0.012  0.00  0.00    +0.026 A 
ATOM     16  C   UNL     1       0.002  -0.004   0.002  0.00  0.00    +0.002 A 
ATOM     17  H   UNL     1       3.909  -1.384  -0.043  0.00  0.00    +0.160 HD
ENDBRANCH   6  11
ENDBRANCH   2   7
ENDBRANCH   1   3
BRANCH   1  18
ATOM     18  C   UNL     1       9.116   6.658  -0.050  0.00  0.00    +0.107 C 
BRANCH  18  19
ATOM     19  C   UNL     1       9.571   8.095  -0.047  0.00  0.00    +0.233 C 
ATOM     20  O   UNL     1       8.753   8.990  -0.035  0.00  0.00    -0.274 OA
ATOM     21  N   UNL     1      10.887   8.384  -0.058  0.00  0.00    -0.207 N 
ATOM     22  H   UNL     1      11.541   7.668  -0.068  0.00  0.00    +0.177 HD
BRANCH  21  23
ATOM     23  N   UNL     1      11.310   9.720  -0.056  0.00  0.00    -0.188 NA
ATOM     24  C   UNL     1      12.589  10.002  -0.066  0.00  0.00    +0.136 C 
BRANCH  24  25
ATOM     25  C   UNL     1      13.013  11.338  -0.063  0.00  0.00    +0.000 C 
ATOM     26  C   UNL     1      14.325  11.806  -0.079  0.00  0.00    +0.004 A 
ATOM     27  C   UNL     1      14.299  13.279  -0.070  0.00  0.00    +0.043 A 
ATOM     28  N   UNL     1      13.058  13.718  -0.049  0.00  0.00    -0.380 N 
ATOM     29  C   UNL     1      12.140  12.574  -0.050  0.00  0.00    +0.150 C 
ATOM     30  C   UNL     1      15.540  13.970  -0.083  0.00  0.00    +0.026 A 
ATOM     31  C   UNL     1      16.700  13.270  -0.104  0.00  0.00    +0.002 A 
ATOM     32  C   UNL     1      16.719  11.872  -0.114  0.00  0.00    +0.001 A 
ATOM     33  C   UNL     1      15.573  11.145  -0.101  0.00  0.00    +0.010 A 
ATOM     34  H   UNL     1      12.792  14.650  -0.039  0.00  0.00    +0.160 HD
ENDBRANCH  24  25
ENDBRANCH  21  23
ENDBRANCH  18  19
ENDBRANCH   1  18
TORSDOF 7
