REMARK  Name = ZINC13466674
REMARK  15 active torsions:
REMARK  status: ('A' for Active; 'I' for Inactive)
REMARK    1  A    between atoms: C_1  and  C_2
REMARK    2  A    between atoms: N_4  and  C_5
REMARK    3  A    between atoms: C_7  and  N_28
REMARK    4  A    between atoms: C_8  and  O_26
REMARK    5  A    between atoms: C_10  and  N_11
REMARK    6  A    between atoms: N_12  and  C_13
REMARK    7  A    between atoms: C_14  and  N_23
REMARK    8  A    between atoms: C_16  and  N_20
REMARK    9  A    between atoms: O_26  and  C_27
REMARK   10  A    between atoms: N_28  and  C_29
REMARK   11  A    between atoms: N_28  and  C_33
REMARK   12  A    between atoms: C_29  and  C_30
REMARK   13  A    between atoms: C_30  and  C_31
REMARK   14  A    between atoms: C_33  and  C_34
REMARK   15  A    between atoms: C_34  and  O_35
REMARK                            x       y       z     vdW  Elec       q    Type
REMARK                         _______ _______ _______ _____ _____    ______ ____
ROOT
ATOM      1  C   UNL     1      -1.087  -2.084  -0.091  0.00  0.00    +0.063 A 
ATOM      2  C   UNL     1       0.144  -2.720  -0.093  0.00  0.00    +0.052 A 
ATOM      3  C   UNL     1       0.212  -4.103  -0.192  0.00  0.00    +0.074 A 
ATOM      4  C   UNL     1      -0.958  -4.860  -0.291  0.00  0.00    +0.143 A 
ATOM      5  C   UNL     1      -2.188  -4.237  -0.290  0.00  0.00    +0.079 A 
ATOM      6  C   UNL     1      -2.265  -2.843  -0.185  0.00  0.00    +0.111 A 
ENDROOT
BRANCH   1  10
ATOM      7  C   UNL     1      -0.165   1.498   0.588  0.00  0.00    +0.109 C 
ATOM      8  C   UNL     1      -0.150  -0.009   0.590  0.00  0.00    +0.214 C 
ATOM      9  O   UNL     1       0.766  -0.606   1.114  0.00  0.00    -0.276 OA
ATOM     10  N   UNL     1      -1.156  -0.694   0.009  0.00  0.00    -0.284 N 
ATOM     11  H   UNL     1      -1.927  -0.220  -0.339  0.00  0.00    +0.155 HD
ENDBRANCH   1  10
BRANCH   6  12
ATOM     12  N   UNL     1      -3.479  -2.225  -0.178  0.00  0.00    -0.147 NA
ATOM     13  N   UNL     1      -4.559  -2.924  -0.265  0.00  0.00    -0.145 NA
BRANCH  13  14
ATOM     14  C   UNL     1      -5.777  -2.303  -0.258  0.00  0.00    +0.135 A 
ATOM     15  C   UNL     1      -6.950  -3.057  -0.345  0.00  0.00    +0.157 A 
ATOM     16  C   UNL     1      -8.175  -2.424  -0.338  0.00  0.00    +0.067 A 
ATOM     17  C   UNL     1      -8.245  -1.045  -0.244  0.00  0.00    +0.130 A 
ATOM     18  C   UNL     1      -7.089  -0.290  -0.158  0.00  0.00    +0.055 A 
ATOM     19  C   UNL     1      -5.855  -0.910  -0.159  0.00  0.00    +0.072 A 
ATOM     20 CL   UNL     1      -4.405   0.037  -0.043  0.00  0.00    -0.081 Cl
BRANCH  17  21
ATOM     21  N   UNL     1      -9.565  -0.373  -0.237  0.00  0.00    +0.057 N 
ATOM     22  O   UNL     1     -10.577  -1.030  -0.313  0.00  0.00    -0.126 OA
ATOM     23  O   UNL     1      -9.630   0.831  -0.156  0.00  0.00    -0.126 OA
ENDBRANCH  17  21
BRANCH  15  24
ATOM     24  N   UNL     1      -6.878  -4.532  -0.446  0.00  0.00    +0.059 N 
ATOM     25  O   UNL     1      -7.894  -5.183  -0.522  0.00  0.00    -0.126 OA
ATOM     26  O   UNL     1      -5.804  -5.086  -0.453  0.00  0.00    -0.126 OA
ENDBRANCH  15  24
ENDBRANCH  13  14
ENDBRANCH   6  12
BRANCH   4  27
ATOM     27  O   UNL     1      -0.883  -6.215  -0.389  0.00  0.00    -0.493 OA
ATOM     28  C   UNL     1      -2.118  -6.928  -0.487  0.00  0.00    +0.277 C 
ENDBRANCH   4  27
BRANCH   3  29
ATOM     29  N   UNL     1       1.454  -4.739  -0.193  0.00  0.00    -0.324 N 
BRANCH  29  30
ATOM     30  C   UNL     1       2.059  -5.166   1.071  0.00  0.00    +0.120 C 
BRANCH  30  31
ATOM     31  C   UNL     1       1.615  -6.594   1.393  0.00  0.00    +0.137 C 
BRANCH  31  32
ATOM     32  C   UNL     1       2.223  -7.023   2.662  0.00  0.00    +0.064 C 
ATOM     33  N   UNL     1       2.693  -7.354   3.642  0.00  0.00    -0.197 NA
ENDBRANCH  31  32
ENDBRANCH  30  31
ENDBRANCH  29  30
BRANCH  29  34
ATOM     34  C   UNL     1       2.152  -4.979  -1.458  0.00  0.00    +0.133 C 
BRANCH  34  35
ATOM     35  C   UNL     1       3.051  -3.784  -1.780  0.00  0.00    +0.174 C 
BRANCH  35  36
ATOM     36  O   UNL     1       4.080  -3.682  -0.794  0.00  0.00    -0.393 OA
ATOM     37  H   UNL     1       4.688  -2.944  -0.935  0.00  0.00    +0.209 HD
ENDBRANCH  35  36
ENDBRANCH  34  35
ENDBRANCH  29  34
ENDBRANCH   3  29
TORSDOF 13
