REMARK  Name = ZINC02330105
REMARK  7 active torsions:
REMARK  status: ('A' for Active; 'I' for Inactive)
REMARK    1  A    between atoms: C_9  and  S_13
REMARK    2  A    between atoms: S_13  and  C_14
REMARK    3  A    between atoms: C_14  and  C_15
REMARK    4  A    between atoms: N_17  and  C_18
REMARK    5  A    between atoms: C_18  and  C_19
REMARK    6  A    between atoms: C_19  and  C_20
REMARK    7  A    between atoms: C_20  and  N_55
REMARK                            x       y       z     vdW  Elec       q    Type
REMARK                         _______ _______ _______ _____ _____    ______ ____
ROOT
ATOM      1  C   UNL     1      -0.139   1.691   1.136  0.00  0.00    +0.005 C 
ATOM      2  C   UNL     1       0.687   1.341  -0.106  0.00  0.00    +0.005 C 
ATOM      3  C   UNL     1      -0.081   1.794  -1.355  0.00  0.00    +0.043 C 
ATOM      4  C   UNL     1      -0.558   3.197  -1.136  0.00  0.00    -0.004 A 
ATOM      5  C   UNL     1      -0.614   3.870   0.035  0.00  0.00    -0.025 A 
ATOM      6  C   UNL     1      -1.120   5.232  -0.018  0.00  0.00    +0.051 A 
ATOM      7  C   UNL     1      -1.273   6.135   1.075  0.00  0.00    +0.129 A 
ATOM      8  N   UNL     1      -1.761   7.335   0.775  0.00  0.00    -0.207 NA
ATOM      9  C   UNL     1      -2.097   7.711  -0.450  0.00  0.00    +0.191 A 
ATOM     10  N   UNL     1      -1.978   6.914  -1.514  0.00  0.00    -0.214 NA
ATOM     11  C   UNL     1      -1.500   5.705  -1.299  0.00  0.00    +0.115 A 
ATOM     12  S   UNL     1      -1.170   4.332  -2.357  0.00  0.00    -0.073 S 
ATOM     13  N   UNL     1      -0.935   5.783   2.369  0.00  0.00    -0.343 N 
ATOM     14  C   UNL     1      -0.161   3.206   1.333  0.00  0.00    +0.037 C 
ATOM     15  H   UNL     1      -1.267   6.305   3.116  0.00  0.00    +0.144 HD
ATOM     16  H   UNL     1      -0.366   5.014   2.530  0.00  0.00    +0.144 HD
ENDROOT
BRANCH   9  17
ATOM     17  S   UNL     1      -2.731   9.338  -0.686  0.00  0.00    -0.077 S 
BRANCH  17  18
ATOM     18  C   UNL     1      -2.677   9.947   1.018  0.00  0.00    +0.173 C 
BRANCH  18  19
ATOM     19  C   UNL     1      -3.189  11.363   1.062  0.00  0.00    +0.223 C 
ATOM     20  O   UNL     1      -3.554  11.908   0.042  0.00  0.00    -0.275 OA
ATOM     21  N   UNL     1      -3.241  12.025   2.236  0.00  0.00    -0.315 N 
ATOM     22  H   UNL     1      -2.949  11.589   3.051  0.00  0.00    +0.149 HD
BRANCH  21  23
ATOM     23  C   UNL     1      -3.738  13.402   2.279  0.00  0.00    +0.102 C 
BRANCH  23  24
ATOM     24  C   UNL     1      -3.692  13.916   3.719  0.00  0.00    +0.000 C 
BRANCH  24  25
ATOM     25  C   UNL     1      -4.212  15.355   3.764  0.00  0.00    -0.077 C 
BRANCH  25  31
ATOM     26  C   UNL     1      -5.115  15.114   5.998  0.00  0.00    -0.050 C 
ATOM     27  C   UNL     1      -4.995  15.618   7.439  0.00  0.00    +0.141 C 
ATOM     28  O   UNL     1      -5.223  17.030   7.466  0.00  0.00    -0.383 OA
ATOM     29  C   UNL     1      -4.318  17.776   6.648  0.00  0.00    +0.141 C 
ATOM     30  C   UNL     1      -4.432  17.293   5.199  0.00  0.00    -0.050 C 
ATOM     31  N   UNL     1      -4.143  15.845   5.157  0.00  0.00    +0.383 N 
ATOM     32  H   UNL     1      -3.197  15.682   5.522  0.00  0.00    -0.082 HD
ENDBRANCH  25  31
ENDBRANCH  24  25
ENDBRANCH  23  24
ENDBRANCH  21  23
ENDBRANCH  18  19
ENDBRANCH  17  18
ENDBRANCH   9  17
TORSDOF 7
