REMARK  Name = ZINC65424744
REMARK  6 active torsions:
REMARK  status: ('A' for Active; 'I' for Inactive)
REMARK    1  A    between atoms: C_1  and  C_2
REMARK    2  A    between atoms: C_2  and  N_3
REMARK    3  A    between atoms: C_4  and  C_21
REMARK    4  A    between atoms: N_7  and  C_10
REMARK    5  A    between atoms: C_10  and  C_11
REMARK    6  A    between atoms: C_11  and  C_12
REMARK                            x       y       z     vdW  Elec       q    Type
REMARK                         _______ _______ _______ _____ _____    ______ ____
ROOT
ATOM      1  N   UNL     1       0.778  -0.338   1.026  0.00  0.00    -0.268 N 
ATOM      2  C   UNL     1       2.134  -0.854   1.272  0.00  0.00    +0.165 C 
ATOM      3  N   UNL     1       2.095  -1.327   2.671  0.00  0.00    -0.216 NA
ATOM      4  N   UNL     1       0.829  -1.080   3.120  0.00  0.00    -0.219 N 
ATOM      5  C   UNL     1       0.084  -0.506   2.167  0.00  0.00    +0.320 C 
ATOM      6  O   UNL     1      -1.079  -0.181   2.312  0.00  0.00    -0.251 OA
ATOM      7  H   UNL     1       2.779  -0.845   3.234  0.00  0.00    +0.147 HD
ENDROOT
BRANCH   2   8
ATOM      8  C   UNL     1       2.446  -2.012   0.322  0.00  0.00    +0.022 C 
ATOM      9  C   UNL     1       1.437  -3.143   0.543  0.00  0.00    -0.013 C 
ATOM     10  C   UNL     1       1.803  -4.327  -0.354  0.00  0.00    -0.082 C 
ATOM     11  N   UNL     1       3.151  -4.801  -0.020  0.00  0.00    +0.379 N 
ATOM     12  C   UNL     1       4.133  -3.745  -0.297  0.00  0.00    -0.082 C 
ATOM     13  C   UNL     1       3.857  -2.538   0.601  0.00  0.00    -0.013 C 
ATOM     14  H   UNL     1       3.188  -5.044   0.959  0.00  0.00    -0.086 HD
ATOM     15  H   UNL     1       3.368  -5.615  -0.576  0.00  0.00    -0.086 HD
ENDBRANCH   2   8
BRANCH   1  17
ATOM     16  C   UNL     1       0.585   1.752  -0.229  0.00  0.00    +0.024 C 
ATOM     17  C   UNL     1       0.281   0.253  -0.219  0.00  0.00    +0.107 C 
ENDBRANCH   1  17
BRANCH   4  18
ATOM     18  C   UNL     1       0.352  -1.397   4.468  0.00  0.00    +0.133 C 
BRANCH  18  19
ATOM     19  C   UNL     1       0.486  -0.161   5.360  0.00  0.00    +0.053 C 
BRANCH  19  20
ATOM     20  C   UNL     1      -0.005  -0.486   6.747  0.00  0.00    -0.040 C 
ATOM     21  C   UNL     1       0.743  -0.877   7.803  0.00  0.00    -0.001 A 
ATOM     22  C   UNL     1       2.182  -1.110   7.971  0.00  0.00    +0.010 A 
ATOM     23  C   UNL     1       2.647  -1.508   9.177  0.00  0.00    +0.001 A 
ATOM     24  C   UNL     1       1.789  -1.703  10.269  0.00  0.00    +0.002 A 
ATOM     25  C   UNL     1       0.456  -1.510  10.193  0.00  0.00    +0.026 A 
ATOM     26  C   UNL     1      -0.141  -1.091   8.972  0.00  0.00    +0.043 A 
ATOM     27  N   UNL     1      -1.387  -0.841   8.650  0.00  0.00    -0.380 N 
ATOM     28  C   UNL     1      -1.434  -0.434   7.241  0.00  0.00    +0.144 C 
ATOM     29  H   UNL     1      -2.150  -0.909   9.245  0.00  0.00    +0.160 HD
ENDBRANCH  19  20
ENDBRANCH  18  19
ENDBRANCH   4  18
TORSDOF 5
