REMARK  Name = ZINC50199220
REMARK  3 active torsions:
REMARK  status: ('A' for Active; 'I' for Inactive)
REMARK    1  A    between atoms: C_11  and  N_13
REMARK    2  A    between atoms: N_13  and  S_14
REMARK    3  A    between atoms: S_14  and  C_17
REMARK                            x       y       z     vdW  Elec       q    Type
REMARK                         _______ _______ _______ _____ _____    ______ ____
ROOT
ATOM      1  C   UNL     1      -0.152   1.835   0.585  0.00  0.00    +0.020 C 
ATOM      2  C   UNL     1       1.200   2.496   0.834  0.00  0.00    +0.003 C 
ATOM      3  C   UNL     1       2.129   2.318  -0.369  0.00  0.00    -0.027 C 
ATOM      4  C   UNL     1       3.566   2.619   0.137  0.00  0.00    -0.079 C 
ATOM      5  N   UNL     1       4.146   1.334   0.573  0.00  0.00    +0.379 N 
ATOM      6  C   UNL     1       3.149   0.262   0.337  0.00  0.00    -0.079 C 
ATOM      7  C   UNL     1       2.227   0.836  -0.775  0.00  0.00    -0.025 C 
ATOM      8  C   UNL     1       0.893   0.141  -0.876  0.00  0.00    +0.022 C 
ATOM      9  C   UNL     1       0.071   0.330   0.400  0.00  0.00    +0.076 C 
ATOM     10  H   UNL     1       4.983   1.141   0.042  0.00  0.00    -0.086 HD
ATOM     11  H   UNL     1       4.371   1.379   1.555  0.00  0.00    -0.086 HD
ENDROOT
BRANCH   9  12
ATOM     12  N   UNL     1      -1.219  -0.347   0.248  0.00  0.00    -0.191 NA
ATOM     13  H   UNL     1      -1.648  -0.384  -0.622  0.00  0.00    +0.148 HD
BRANCH  12  14
ATOM     14  S   UNL     1      -1.946  -1.048   1.560  0.00  0.00    +0.033 S 
ATOM     15  O   UNL     1      -1.943  -0.038   2.559  0.00  0.00    -0.158 OA
ATOM     16  O   UNL     1      -3.171  -1.569   1.061  0.00  0.00    -0.158 OA
BRANCH  14  17
ATOM     17  C   UNL     1      -0.839  -2.403   2.038  0.00  0.00    +0.152 C 
ATOM     18  C   UNL     1      -0.704  -3.389   0.874  0.00  0.00    +0.056 C 
ATOM     19  C   UNL     1       0.168  -4.568   1.312  0.00  0.00    +0.161 C 
ATOM     20  O   UNL     1      -0.414  -5.188   2.462  0.00  0.00    -0.380 OA
ATOM     21  C   UNL     1      -0.522  -4.326   3.597  0.00  0.00    +0.161 C 
ATOM     22  C   UNL     1      -1.421  -3.137   3.250  0.00  0.00    +0.056 C 
ENDBRANCH  14  17
ENDBRANCH  12  14
ENDBRANCH   9  12
TORSDOF 3
