REMARK  Name = ZINC15956614
REMARK  7 active torsions:
REMARK  status: ('A' for Active; 'I' for Inactive)
REMARK    1  A    between atoms: C_1  and  C_2
REMARK    2  A    between atoms: C_7  and  C_8
REMARK    3  A    between atoms: C_17  and  C_20
REMARK    4  A    between atoms: C_20  and  C_21
REMARK    5  A    between atoms: C_21  and  S_22
REMARK    6  A    between atoms: S_22  and  C_23
REMARK    7  A    between atoms: N_26  and  C_29
REMARK                            x       y       z     vdW  Elec       q    Type
REMARK                         _______ _______ _______ _____ _____    ______ ____
ROOT
ATOM      1  C   UNL     1      -0.018   1.503   0.010  0.00  0.00    +0.044 C 
ATOM      2  C   UNL     1       0.002  -0.004   0.002  0.00  0.00    -0.046 A 
ATOM      3  C   UNL     1       0.006  -0.686  -1.201  0.00  0.00    +0.004 A 
ATOM      4  C   UNL     1       0.024  -2.069  -1.209  0.00  0.00    +0.008 A 
ATOM      5  C   UNL     1       0.038  -2.765  -0.021  0.00  0.00    +0.004 A 
ATOM      6  C   UNL     1       0.036  -2.090   1.196  0.00  0.00    +0.042 A 
ATOM      7  C   UNL     1       0.023  -0.697   1.195  0.00  0.00    -0.026 A 
ATOM      8  C   UNL     1       0.025   0.056   2.500  0.00  0.00    +0.046 C 
ATOM      9  N   UNL     1       0.055  -3.001   2.254  0.00  0.00    -0.283 N 
ATOM     10  C   UNL     1       0.067  -4.278   1.825  0.00  0.00    +0.243 C 
ATOM     11  O   UNL     1       0.084  -5.274   2.516  0.00  0.00    -0.273 OA
ATOM     12  C   UNL     1       0.056  -4.228   0.321  0.00  0.00    +0.136 C 
ATOM     13  C   UNL     1       1.283  -4.930  -0.272  0.00  0.00    +0.122 C 
ATOM     14  C   UNL     1       0.758  -5.610  -1.567  0.00  0.00    +0.107 C 
ATOM     15  C   UNL     1      -0.740  -5.241  -1.628  0.00  0.00    +0.068 C 
ATOM     16  N   UNL     1      -1.119  -4.927  -0.231  0.00  0.00    -0.295 NA
ATOM     17  C   UNL     1       1.505  -4.888  -2.666  0.00  0.00    +0.227 C 
ATOM     18  O   UNL     1       1.395  -5.113  -3.853  0.00  0.00    -0.275 OA
ATOM     19  N   UNL     1       2.307  -3.963  -2.126  0.00  0.00    -0.238 N 
ATOM     20  C   UNL     1       2.268  -3.900  -0.775  0.00  0.00    +0.228 C 
ATOM     21  O   UNL     1       2.910  -3.145  -0.077  0.00  0.00    -0.275 OA
ATOM     22  H   UNL     1       0.059  -2.744   3.190  0.00  0.00    +0.155 HD
ATOM     23  H   UNL     1      -1.308  -5.776   0.281  0.00  0.00    +0.123 HD
ENDROOT
BRANCH  19  24
ATOM     24  C   UNL     1       3.165  -3.091  -2.931  0.00  0.00    +0.084 C 
ATOM     25  C   UNL     1       2.312  -2.301  -3.946  0.00  0.00    +0.023 C 
ATOM     26  C   UNL     1       3.197  -2.236  -5.215  0.00  0.00    +0.002 C 
ATOM     27  C   UNL     1       3.868  -3.631  -5.237  0.00  0.00    +0.002 C 
ATOM     28  C   UNL     1       4.154  -3.936  -3.752  0.00  0.00    +0.023 C 
ENDBRANCH  19  24
BRANCH  15  29
ATOM     29  C   UNL     1      -1.557  -6.416  -2.169  0.00  0.00    +0.030 C 
BRANCH  29  30
ATOM     30  C   UNL     1      -3.016  -5.989  -2.338  0.00  0.00    +0.070 C 
BRANCH  30  31
ATOM     31  S   UNL     1      -3.984  -7.383  -2.979  0.00  0.00    -0.164 S 
ATOM     32  C   UNL     1      -5.667  -6.721  -3.120  0.00  0.00    +0.084 C 
ENDBRANCH  30  31
ENDBRANCH  29  30
ENDBRANCH  15  29
TORSDOF 4
