REMARK  Name = ZINC21869399
REMARK  5 active torsions:
REMARK  status: ('A' for Active; 'I' for Inactive)
REMARK    1  A    between atoms: C_1  and  C_2
REMARK    2  A    between atoms: C_3  and  C_7
REMARK    3  A    between atoms: N_9  and  N_10
REMARK    4  A    between atoms: C_11  and  C_13
REMARK    5  A    between atoms: C_13  and  C_18
REMARK                            x       y       z     vdW  Elec       q    Type
REMARK                         _______ _______ _______ _____ _____    ______ ____
ROOT
ATOM      1  C   UNL     1      -1.160  -0.911   0.008  0.00  0.00    +0.263 C 
ATOM      2  O   UNL     1      -2.287  -0.455   0.021  0.00  0.00    -0.269 OA
ATOM      3  N   UNL     1      -0.973  -2.246  -0.001  0.00  0.00    -0.230 N 
ATOM      4  H   UNL     1       0.047  -2.658  -0.013  0.00  0.00    +0.173 HD
ENDROOT
BRANCH   1   7
ATOM      5  C   UNL     1      -1.250   2.225   0.020  0.00  0.00    +0.087 C 
ATOM      6  C   UNL     1      -0.016   1.360   0.009  0.00  0.00    +0.114 A 
ATOM      7  C   UNL     1       0.002  -0.004   0.002  0.00  0.00    +0.079 A 
ATOM      8  C   UNL     1       1.423  -0.381  -0.014  0.00  0.00    +0.054 A 
ATOM      9  C   UNL     1       2.110   0.772  -0.014  0.00  0.00    +0.196 A 
ATOM     10  O   UNL     1       1.246   1.799  -0.000  0.00  0.00    -0.467 OA
ENDBRANCH   1   7
BRANCH   3  11
ATOM     11  N   UNL     1      -2.077  -3.107   0.004  0.00  0.00    -0.234 N 
ATOM     12  C   UNL     1      -1.891  -4.442  -0.004  0.00  0.00    +0.238 C 
ATOM     13  O   UNL     1      -0.766  -4.897  -0.017  0.00  0.00    -0.274 OA
ATOM     14  H   UNL     1      -3.097  -2.695   0.016  0.00  0.00    +0.173 HD
BRANCH  12  15
ATOM     15  C   UNL     1      -3.079  -5.370   0.002  0.00  0.00    +0.081 C 
ATOM     16  C   UNL     1      -3.343  -6.187  -1.264  0.00  0.00    +0.058 C 
ATOM     17  C   UNL     1      -2.800  -6.874  -0.009  0.00  0.00    +0.133 C 
ATOM     18 CL   UNL     1      -1.077  -7.402  -0.028  0.00  0.00    -0.100 Cl
ATOM     19 CL   UNL     1      -3.929  -7.936   0.913  0.00  0.00    -0.100 Cl
ATOM     20  C   UNL     1      -4.293  -4.881   0.794  0.00  0.00    +0.024 C 
ENDBRANCH  12  15
ENDBRANCH   3  11
TORSDOF 3
