REMARK  Name = ZINC66674172
REMARK  10 active torsions:
REMARK  status: ('A' for Active; 'I' for Inactive)
REMARK    1  A    between atoms: C_1  and  C_2
REMARK    2  A    between atoms: C_2  and  C_4
REMARK    3  A    between atoms: C_2  and  N_15
REMARK    4  A    between atoms: C_7  and  S_10
REMARK    5  A    between atoms: S_10  and  N_13
REMARK    6  A    between atoms: N_13  and  C_14
REMARK    7  A    between atoms: C_16  and  C_18
REMARK    8  A    between atoms: C_20  and  N_26
REMARK    9  A    between atoms: C_23  and  N_24
REMARK   10  A    between atoms: N_24  and  C_25
REMARK                            x       y       z     vdW  Elec       q    Type
REMARK                         _______ _______ _______ _____ _____    ______ ____
ROOT
ATOM      1  N   UNL     1       0.706  -0.532   1.175  0.00  0.00    -0.305 N 
ATOM      2  C   UNL     1       2.051  -0.618   1.168  0.00  0.00    +0.246 C 
ATOM      3  O   UNL     1       2.675  -0.299   0.174  0.00  0.00    -0.270 OA
ATOM      4  H   UNL     1       0.208  -0.786   1.968  0.00  0.00    +0.150 HD
ENDROOT
BRANCH   2   5
ATOM      5  C   UNL     1       2.765  -1.097   2.365  0.00  0.00    +0.060 A 
ATOM      6  C   UNL     1       2.066  -1.347   3.549  0.00  0.00    +0.047 A 
ATOM      7  C   UNL     1       2.739  -1.795   4.664  0.00  0.00    +0.127 A 
ATOM      8  C   UNL     1       4.109  -1.999   4.620  0.00  0.00    +0.034 A 
ATOM      9  C   UNL     1       4.815  -1.756   3.459  0.00  0.00    +0.026 A 
ATOM     10  C   UNL     1       4.152  -1.310   2.322  0.00  0.00    +0.039 A 
BRANCH  10  11
ATOM     11  N   UNL     1       4.859  -1.071   1.151  0.00  0.00    -0.346 N 
ATOM     12  C   UNL     1       6.282  -1.407   1.073  0.00  0.00    +0.125 C 
ATOM     13  H   UNL     1       4.409  -0.682   0.384  0.00  0.00    +0.146 HD
ENDBRANCH  10  11
BRANCH   7  14
ATOM     14  N   UNL     1       1.996  -2.059   5.916  0.00  0.00    +0.056 N 
ATOM     15  O   UNL     1       0.800  -1.881   5.959  0.00  0.00    -0.126 OA
ATOM     16  O   UNL     1       2.583  -2.452   6.897  0.00  0.00    -0.126 OA
ENDBRANCH   7  14
ENDBRANCH   2   5
BRANCH   1  18
ATOM     17  C   UNL     1      -0.054   1.473  -0.001  0.00  0.00    +0.033 C 
ATOM     18  C   UNL     1      -0.004  -0.056  -0.014  0.00  0.00    +0.100 C 
BRANCH  18  19
ATOM     19  C   UNL     1      -1.408  -0.604  -0.014  0.00  0.00    -0.027 A 
ATOM     20  C   UNL     1      -2.126  -0.667   1.166  0.00  0.00    +0.007 A 
ATOM     21  C   UNL     1      -3.413  -1.169   1.166  0.00  0.00    +0.029 A 
ATOM     22  C   UNL     1      -3.984  -1.609  -0.014  0.00  0.00    +0.105 A 
ATOM     23  C   UNL     1      -3.267  -1.545  -1.194  0.00  0.00    +0.029 A 
ATOM     24  C   UNL     1      -1.980  -1.038  -1.195  0.00  0.00    +0.007 A 
BRANCH  22  25
ATOM     25  S   UNL     1      -5.625  -2.250  -0.014  0.00  0.00    +0.058 S 
ATOM     26  O   UNL     1      -5.729  -3.099  -1.149  0.00  0.00    -0.153 OA
ATOM     27  O   UNL     1      -5.882  -2.708   1.306  0.00  0.00    -0.153 OA
BRANCH  25  28
ATOM     28  N   UNL     1      -6.649  -0.976  -0.280  0.00  0.00    -0.193 NA
ATOM     29  C   UNL     1      -6.611  -0.261  -1.558  0.00  0.00    +0.127 C 
ATOM     30  H   UNL     1      -7.273  -0.704   0.410  0.00  0.00    +0.148 HD
ENDBRANCH  25  28
ENDBRANCH  22  25
ENDBRANCH  18  19
ENDBRANCH   1  18
TORSDOF 7
