REMARK  Name = ZINC54734709
REMARK  8 active torsions:
REMARK  status: ('A' for Active; 'I' for Inactive)
REMARK    1  A    between atoms: C_1  and  C_2
REMARK    2  A    between atoms: C_5  and  C_7
REMARK    3  A    between atoms: C_7  and  C_9
REMARK    4  A    between atoms: C_7  and  N_10
REMARK    5  A    between atoms: N_13  and  C_14
REMARK    6  A    between atoms: N_13  and  C_15
REMARK    7  A    between atoms: C_15  and  C_16
REMARK    8  A    between atoms: C_21  and  O_22
REMARK                            x       y       z     vdW  Elec       q    Type
REMARK                         _______ _______ _______ _____ _____    ______ ____
ROOT
ATOM      1  N   UNL     1       2.210  -4.147   0.855  0.00  0.00    -0.292 N 
ATOM      2  C   UNL     1       2.553  -5.328   1.406  0.00  0.00    +0.303 C 
ATOM      3  O   UNL     1       1.894  -6.323   1.171  0.00  0.00    -0.253 OA
ATOM      4  N   UNL     1       3.626  -5.407   2.217  0.00  0.00    -0.284 N 
ATOM      5  C   UNL     1       4.420  -4.209   2.500  0.00  0.00    +0.134 C 
ATOM      6  H   UNL     1       2.735  -3.354   1.042  0.00  0.00    +0.151 HD
ENDROOT
BRANCH   1   7
ATOM      7  C   UNL     1       1.043  -4.062  -0.027  0.00  0.00    +0.108 C 
ATOM      8  C   UNL     1       1.452  -4.441  -1.452  0.00  0.00    +0.033 C 
BRANCH   7  13
ATOM      9  C   UNL     1      -0.018   1.503   0.010  0.00  0.00    +0.051 C 
ATOM     10  C   UNL     1       0.002  -0.004   0.002  0.00  0.00    -0.013 A 
ATOM     11  C   UNL     1      -1.039  -0.872   0.002  0.00  0.00    +0.011 A 
ATOM     12  C   UNL     1      -0.780  -2.230  -0.007  0.00  0.00    +0.013 A 
ATOM     13  C   UNL     1       0.507  -2.653  -0.016  0.00  0.00    +0.010 A 
ATOM     14  S   UNL     1       1.404  -1.109  -0.018  0.00  0.00    -0.097 S 
ENDBRANCH   7  13
ENDBRANCH   1   7
BRANCH   4  15
ATOM     15  C   UNL     1       3.999  -6.691   2.816  0.00  0.00    +0.147 C 
BRANCH  15  16
ATOM     16  C   UNL     1       4.953  -7.414   1.901  0.00  0.00    +0.011 A 
ATOM     17  C   UNL     1       4.489  -8.416   1.071  0.00  0.00    +0.009 A 
ATOM     18  C   UNL     1       5.364  -9.081   0.232  0.00  0.00    +0.001 A 
ATOM     19  C   UNL     1       6.705  -8.743   0.220  0.00  0.00    +0.004 A 
ATOM     20  C   UNL     1       7.174  -7.742   1.048  0.00  0.00    +0.046 A 
ATOM     21  C   UNL     1       6.297  -7.070   1.887  0.00  0.00    +0.122 A 
BRANCH  21  22
ATOM     22  O   UNL     1       6.754  -6.080   2.698  0.00  0.00    -0.506 OA
ATOM     23  H   UNL     1       7.045  -6.388   3.568  0.00  0.00    +0.292 HD
ENDBRANCH  21  22
ENDBRANCH  15  16
ENDBRANCH   4  15
TORSDOF 5
