REMARK  Name = ZINC59491042
REMARK  5 active torsions:
REMARK  status: ('A' for Active; 'I' for Inactive)
REMARK    1  A    between atoms: C_1  and  C_2
REMARK    2  A    between atoms: N_4  and  N_5
REMARK    3  A    between atoms: C_6  and  S_8
REMARK    4  A    between atoms: S_8  and  C_9
REMARK    5  A    between atoms: N_14  and  C_17
REMARK                            x       y       z     vdW  Elec       q    Type
REMARK                         _______ _______ _______ _____ _____    ______ ____
ROOT
ATOM      1  C   UNL     1      -0.043  -4.947  -3.936  0.00  0.00    +0.149 C 
ATOM      2  C   UNL     1       0.194  -6.397  -4.408  0.00  0.00    +0.120 C 
ATOM      3  C   UNL     1      -1.061  -6.726  -5.186  0.00  0.00    +0.228 C 
ATOM      4  O   UNL     1      -1.290  -7.782  -5.735  0.00  0.00    -0.275 OA
ATOM      5  N   UNL     1      -1.879  -5.666  -5.171  0.00  0.00    -0.209 N 
ATOM      6  C   UNL     1      -1.406  -4.606  -4.498  0.00  0.00    +0.240 C 
ATOM      7  O   UNL     1      -1.977  -3.546  -4.359  0.00  0.00    -0.274 OA
ENDROOT
BRANCH   5   8
ATOM      8  C   UNL     1      -3.128  -5.662  -5.810  0.00  0.00    +0.044 A 
ATOM      9  C   UNL     1      -3.342  -4.849  -6.914  0.00  0.00    +0.025 A 
ATOM     10  C   UNL     1      -4.572  -4.847  -7.541  0.00  0.00    +0.022 A 
ATOM     11  C   UNL     1      -5.592  -5.655  -7.069  0.00  0.00    +0.041 A 
ATOM     12  C   UNL     1      -5.381  -6.466  -5.968  0.00  0.00    +0.022 A 
ATOM     13  C   UNL     1      -4.151  -6.476  -5.341  0.00  0.00    +0.025 A 
ATOM     14 CL   UNL     1      -7.138  -5.650  -7.859  0.00  0.00    -0.084 Cl
ENDBRANCH   5   8
BRANCH   1  15
ATOM     15  S   UNL     1      -0.058  -4.860  -2.125  0.00  0.00    -0.078 S 
BRANCH  15  17
ATOM     16  N   UNL     1      -0.303  -2.726  -0.549  0.00  0.00    -0.286 N 
ATOM     17  C   UNL     1      -0.252  -3.143  -1.782  0.00  0.00    +0.143 C 
ATOM     18  N   UNL     1      -0.351  -2.236  -2.823  0.00  0.00    -0.338 N 
ATOM     19  H   UNL     1      -0.458  -1.291  -2.635  0.00  0.00    +0.144 HD
ATOM     20  H   UNL     1      -0.313  -2.547  -3.742  0.00  0.00    +0.144 HD
ATOM     21  H   UNL     1      -0.234  -3.361   0.181  0.00  0.00    +0.186 HD
BRANCH  16  25
ATOM     22  C   UNL     1      -0.675   0.539   1.290  0.00  0.00    +0.111 C 
ATOM     23  C   UNL     1      -0.509  -0.930   0.997  0.00  0.00    +0.228 C 
ATOM     24  O   UNL     1      -0.423  -1.725   1.911  0.00  0.00    -0.274 OA
ATOM     25  N   UNL     1      -0.457  -1.360  -0.277  0.00  0.00    -0.228 N 
ATOM     26  H   UNL     1      -0.526  -0.725  -1.006  0.00  0.00    +0.175 HD
ENDBRANCH  16  25
ENDBRANCH  15  17
ENDBRANCH   1  15
TORSDOF 4
