REMARK  Name = ZINC52007209
REMARK  5 active torsions:
REMARK  status: ('A' for Active; 'I' for Inactive)
REMARK    1  A    between atoms: C_3  and  N_12
REMARK    2  A    between atoms: C_4  and  C_10
REMARK    3  A    between atoms: C_6  and  N_7
REMARK    4  A    between atoms: N_12  and  C_13
REMARK    5  A    between atoms: C_19  and  O_21
REMARK                            x       y       z     vdW  Elec       q    Type
REMARK                         _______ _______ _______ _____ _____    ______ ____
ROOT
ATOM      1  C   UNL     1      -0.017   1.381   0.010  0.00  0.00    +0.034 A 
ATOM      2  C   UNL     1       1.164   2.096   0.002  0.00  0.00    +0.026 A 
ATOM      3  C   UNL     1       2.382   1.429  -0.013  0.00  0.00    +0.045 A 
ATOM      4  C   UNL     1       2.404   0.025  -0.021  0.00  0.00    +0.075 A 
ATOM      5  C   UNL     1       1.201  -0.684  -0.013  0.00  0.00    +0.053 A 
ATOM      6  C   UNL     1       0.002  -0.004   0.002  0.00  0.00    +0.128 A 
ENDROOT
BRANCH   6   7
ATOM      7  N   UNL     1      -1.272  -0.758   0.010  0.00  0.00    +0.056 N 
ATOM      8  O   UNL     1      -2.325  -0.164   0.023  0.00  0.00    -0.126 OA
ATOM      9  O   UNL     1      -1.259  -1.967   0.004  0.00  0.00    -0.126 OA
ENDBRANCH   6   7
BRANCH   4  10
ATOM     10  C   UNL     1       3.653  -0.675  -0.038  0.00  0.00    +0.101 C 
ATOM     11  N   UNL     1       4.644  -1.231  -0.051  0.00  0.00    -0.191 NA
ENDBRANCH   4  10
BRANCH   3  12
ATOM     12  N   UNL     1       3.572   2.147  -0.022  0.00  0.00    -0.338 N 
ATOM     13  H   UNL     1       4.421   1.678  -0.033  0.00  0.00    +0.146 HD
BRANCH  12  14
ATOM     14  C   UNL     1       3.544   3.612  -0.014  0.00  0.00    +0.099 C 
ATOM     15  C   UNL     1       3.423   4.112   1.427  0.00  0.00    +0.025 C 
ATOM     16  C   UNL     1       3.394   5.642   1.435  0.00  0.00    +0.002 C 
ATOM     17  C   UNL     1       4.685   6.180   0.815  0.00  0.00    +0.003 C 
ATOM     18  C   UNL     1       4.806   5.680  -0.626  0.00  0.00    +0.033 C 
ATOM     19  C   UNL     1       4.835   4.150  -0.634  0.00  0.00    +0.135 C 
BRANCH  19  20
ATOM     20  O   UNL     1       5.955   3.691   0.125  0.00  0.00    -0.390 OA
ATOM     21  H   UNL     1       6.810   3.994  -0.212  0.00  0.00    +0.210 HD
ENDBRANCH  19  20
ENDBRANCH  12  14
ENDBRANCH   3  12
TORSDOF 5
