REMARK  Name = ZINC41600031
REMARK  7 active torsions:
REMARK  status: ('A' for Active; 'I' for Inactive)
REMARK    1  A    between atoms: C_1  and  C_2
REMARK    2  A    between atoms: C_2  and  C_4
REMARK    3  A    between atoms: C_2  and  N_23
REMARK    4  A    between atoms: C_4  and  N_5
REMARK    5  A    between atoms: C_6  and  C_8
REMARK    6  A    between atoms: N_10  and  C_11
REMARK    7  A    between atoms: C_14  and  N_17
REMARK                            x       y       z     vdW  Elec       q    Type
REMARK                         _______ _______ _______ _____ _____    ______ ____
ROOT
ATOM      1  C   UNL     1      -2.168  -4.462  -0.081  0.00  0.00    +0.303 C 
ATOM      2  O   UNL     1      -1.045  -4.922  -0.058  0.00  0.00    -0.265 OA
ATOM      3  N   UNL     1      -3.233  -5.286  -0.123  0.00  0.00    -0.278 N 
ATOM      4  H   UNL     1      -4.131  -4.922  -0.070  0.00  0.00    +0.155 HD
ENDROOT
BRANCH   3   5
ATOM      5  C   UNL     1      -3.045  -6.667  -0.243  0.00  0.00    +0.034 A 
ATOM      6  C   UNL     1      -3.937  -7.427  -0.989  0.00  0.00    +0.025 A 
ATOM      7  C   UNL     1      -3.751  -8.790  -1.107  0.00  0.00    +0.025 A 
ATOM      8  C   UNL     1      -2.673  -9.400  -0.480  0.00  0.00    +0.038 A 
ATOM      9  C   UNL     1      -1.781  -8.640   0.266  0.00  0.00    +0.025 A 
ATOM     10  C   UNL     1      -1.963  -7.277   0.379  0.00  0.00    +0.025 A 
BRANCH   8  11
ATOM     11  N   UNL     1      -2.485 -10.783  -0.600  0.00  0.00    -0.254 N 
ATOM     12  C   UNL     1      -1.467 -11.570   0.113  0.00  0.00    +0.134 C 
ATOM     13  C   UNL     1      -1.701 -13.011  -0.380  0.00  0.00    +0.125 C 
ATOM     14  N   UNL     1      -2.826 -12.883  -1.319  0.00  0.00    -0.297 N 
ATOM     15  C   UNL     1      -3.207 -11.600  -1.377  0.00  0.00    +0.307 C 
ATOM     16  O   UNL     1      -4.123 -11.212  -2.076  0.00  0.00    -0.252 OA
ATOM     17  H   UNL     1      -3.230 -13.613  -1.814  0.00  0.00    +0.150 HD
ENDBRANCH   8  11
ENDBRANCH   3   5
BRANCH   1  19
ATOM     18  N   UNL     1      -1.303  -2.158  -0.022  0.00  0.00    -0.309 N 
ATOM     19  C   UNL     1      -2.369  -2.982  -0.064  0.00  0.00    +0.299 C 
ATOM     20  O   UNL     1      -3.491  -2.522  -0.087  0.00  0.00    -0.265 OA
ATOM     21  H   UNL     1      -0.406  -2.526  -0.004  0.00  0.00    +0.149 HD
BRANCH  18  22
ATOM     22  C   UNL     1      -1.500  -0.706  -0.005  0.00  0.00    +0.089 C 
BRANCH  22  24
ATOM     23  C   UNL     1       0.515  -0.322  -1.432  0.00  0.00    -0.012 C 
ATOM     24  C   UNL     1      -0.142  -0.006  -0.087  0.00  0.00    -0.054 C 
BRANCH  24  25
ATOM     25  N   UNL     1      -0.331   1.445   0.037  0.00  0.00    +0.382 N 
ATOM     26  C   UNL     1      -0.802   1.786   1.404  0.00  0.00    -0.078 C 
ATOM     27  C   UNL     1      -0.414   3.278   1.551  0.00  0.00    -0.020 C 
ATOM     28  C   UNL     1       0.946   3.356   0.820  0.00  0.00    -0.020 C 
ATOM     29  C   UNL     1       0.962   2.144  -0.130  0.00  0.00    -0.078 C 
ATOM     30  H   UNL     1      -0.993   1.770  -0.651  0.00  0.00    -0.081 HD
ENDBRANCH  24  25
ENDBRANCH  22  24
ENDBRANCH  18  22
ENDBRANCH   1  19
TORSDOF 6
