REMARK  Name = ZINC06697289
REMARK  9 active torsions:
REMARK  status: ('A' for Active; 'I' for Inactive)
REMARK    1  A    between atoms: C_1  and  O_2
REMARK    2  A    between atoms: O_2  and  C_3
REMARK    3  A    between atoms: C_8  and  C_9
REMARK    4  A    between atoms: C_9  and  N_41
REMARK    5  A    between atoms: C_10  and  C_11
REMARK    6  A    between atoms: C_10  and  N_41
REMARK    7  A    between atoms: C_11  and  C_12
REMARK    8  A    between atoms: C_15  and  S_18
REMARK    9  A    between atoms: S_18  and  N_21
REMARK                            x       y       z     vdW  Elec       q    Type
REMARK                         _______ _______ _______ _____ _____    ______ ____
ROOT
ATOM      1  C   UNL     1       4.244   4.748  -1.417  0.00  0.00    -0.077 C 
ENDROOT
BRANCH   1   2
ATOM      2  N   UNL     1       2.976   3.995  -1.379  0.00  0.00    +0.382 N 
ATOM      3  H   UNL     1       2.290   4.456  -1.987  0.00  0.00    -0.085 HD
ATOM      4  H   UNL     1       3.141   3.038  -1.712  0.00  0.00    -0.085 HD
BRANCH   2   5
ATOM      5  C   UNL     1       2.451   3.947  -0.001  0.00  0.00    -0.043 C 
BRANCH   5  11
ATOM      6  C   UNL     1       1.179   1.786   0.000  0.00  0.00    +0.122 A 
ATOM      7  C   UNL     1      -0.013   1.076   0.008  0.00  0.00    +0.047 A 
ATOM      8  C   UNL     1      -1.218   1.751   0.017  0.00  0.00    +0.023 A 
ATOM      9  C   UNL     1      -1.237   3.134   0.030  0.00  0.00    +0.041 A 
ATOM     10  C   UNL     1      -0.050   3.844   0.022  0.00  0.00    +0.025 A 
ATOM     11  C   UNL     1       1.158   3.173   0.008  0.00  0.00    -0.021 A 
ATOM     12 CL   UNL     1      -2.753   3.980   0.048  0.00  0.00    -0.084 Cl
BRANCH   6  14
ATOM     13  C   UNL     1       2.312  -0.304  -0.022  0.00  0.00    +0.277 C 
ATOM     14  O   UNL     1       2.366   1.124  -0.015  0.00  0.00    -0.495 OA
ENDBRANCH   6  14
ENDBRANCH   5  11
ENDBRANCH   2   5
ENDBRANCH   1   2
BRANCH   1  15
ATOM     15  C   UNL     1       4.764   4.780  -2.856  0.00  0.00    +0.016 C 
BRANCH  15  16
ATOM     16  C   UNL     1       6.060   5.548  -2.904  0.00  0.00    -0.049 A 
ATOM     17  C   UNL     1       6.047   6.912  -3.129  0.00  0.00    +0.005 A 
ATOM     18  C   UNL     1       7.236   7.617  -3.169  0.00  0.00    +0.029 A 
ATOM     19  C   UNL     1       8.437   6.957  -2.993  0.00  0.00    +0.105 A 
ATOM     20  C   UNL     1       8.450   5.592  -2.773  0.00  0.00    +0.029 A 
ATOM     21  C   UNL     1       7.262   4.888  -2.729  0.00  0.00    +0.005 A 
BRANCH  19  22
ATOM     22  S   UNL     1       9.952   7.855  -3.048  0.00  0.00    +0.056 S 
ATOM     23  O   UNL     1       9.638   9.203  -2.724  0.00  0.00    -0.153 OA
ATOM     24  O   UNL     1      10.902   7.096  -2.312  0.00  0.00    -0.153 OA
BRANCH  22  25
ATOM     25  N   UNL     1      10.464   7.855  -4.623  0.00  0.00    -0.204 NA
ATOM     26  H   UNL     1      10.986   8.598  -4.963  0.00  0.00    +0.144 HD
ATOM     27  H   UNL     1      10.242   7.111  -5.205  0.00  0.00    +0.144 HD
ENDBRANCH  22  25
ENDBRANCH  19  22
ENDBRANCH  15  16
ENDBRANCH   1  15
TORSDOF 8
