REMARK  Name = ZINC41151674
REMARK  8 active torsions:
REMARK  status: ('A' for Active; 'I' for Inactive)
REMARK    1  A    between atoms: C_1  and  C_2
REMARK    2  A    between atoms: C_2  and  C_3
REMARK    3  A    between atoms: C_3  and  C_4
REMARK    4  A    between atoms: C_3  and  C_6
REMARK    5  A    between atoms: C_3  and  N_19
REMARK    6  A    between atoms: C_4  and  C_5
REMARK    7  A    between atoms: C_8  and  C_11
REMARK    8  A    between atoms: C_14  and  C_17
REMARK                            x       y       z     vdW  Elec       q    Type
REMARK                         _______ _______ _______ _____ _____    ______ ____
ROOT
ATOM      1  C   UNL     1       0.632  -2.000  -1.327  0.00  0.00    +0.161 A 
ATOM      2  N   UNL     1       0.069  -2.697  -2.317  0.00  0.00    -0.193 NA
ATOM      3  C   UNL     1       0.164  -3.985  -2.070  0.00  0.00    +0.258 A 
ATOM      4  O   UNL     1       0.801  -4.136  -0.896  0.00  0.00    -0.333 OA
ATOM      5  N   UNL     1       1.100  -2.827  -0.435  0.00  0.00    -0.062 NA
ENDROOT
BRANCH   3   6
ATOM      6  C   UNL     1      -0.342  -5.074  -2.931  0.00  0.00    +0.039 A 
ATOM      7  C   UNL     1      -0.985  -4.772  -4.133  0.00  0.00    +0.014 A 
ATOM      8  C   UNL     1      -1.457  -5.786  -4.936  0.00  0.00    +0.019 A 
ATOM      9  C   UNL     1      -1.292  -7.118  -4.547  0.00  0.00    +0.052 A 
ATOM     10  C   UNL     1      -0.649  -7.420  -3.344  0.00  0.00    +0.019 A 
ATOM     11  C   UNL     1      -0.173  -6.405  -2.544  0.00  0.00    +0.014 A 
BRANCH   9  12
ATOM     12  C   UNL     1      -1.783  -8.174  -5.381  0.00  0.00    +0.099 C 
ATOM     13  N   UNL     1      -2.172  -9.011  -6.043  0.00  0.00    -0.191 NA
ENDBRANCH   9  12
ENDBRANCH   3   6
BRANCH   1  14
ATOM     14  C   UNL     1       0.718  -0.497  -1.257  0.00  0.00    -0.007 C 
BRANCH  14  15
ATOM     15  N   UNL     1       0.080   0.086  -2.444  0.00  0.00    +0.387 N 
ATOM     16  H   UNL     1       0.138   1.092  -2.397  0.00  0.00    -0.089 HD
ATOM     17  H   UNL     1       0.552  -0.239  -3.274  0.00  0.00    -0.089 HD
ATOM     18  H   UNL     1      -0.889  -0.194  -2.477  0.00  0.00    -0.089 HD
ENDBRANCH  14  15
BRANCH  14  20
ATOM     19  C   UNL     1      -0.019   1.526   0.010  0.00  0.00    +0.003 C 
ATOM     20  C   UNL     1       0.002  -0.004   0.002  0.00  0.00    -0.009 C 
ENDBRANCH  14  20
BRANCH  14  21
ATOM     21  C   UNL     1       2.187  -0.073  -1.207  0.00  0.00    -0.009 C 
ATOM     22  C   UNL     1       2.852  -0.681   0.029  0.00  0.00    +0.003 C 
ENDBRANCH  14  21
ENDBRANCH   1  14
TORSDOF 6
