REMARK  Name = ZINC11201965
REMARK  5 active torsions:
REMARK  status: ('A' for Active; 'I' for Inactive)
REMARK    1  A    between atoms: C_3  and  S_20
REMARK    2  A    between atoms: C_5  and  C_6
REMARK    3  A    between atoms: C_6  and  N_7
REMARK    4  A    between atoms: C_8  and  C_10
REMARK    5  A    between atoms: S_20  and  N_23
REMARK                            x       y       z     vdW  Elec       q    Type
REMARK                         _______ _______ _______ _____ _____    ______ ____
ROOT
ATOM      1  N   UNL     1      -1.640  -1.854   0.008  0.00  0.00    -0.310 N 
ATOM      2  C   UNL     1      -1.412  -0.526   0.013  0.00  0.00    +0.219 C 
ATOM      3  O   UNL     1      -2.344   0.250   0.026  0.00  0.00    -0.275 OA
ATOM      4  H   UNL     1      -0.894  -2.474  -0.003  0.00  0.00    +0.149 HD
ENDROOT
BRANCH   2   5
ATOM      5  C   UNL     1       0.002  -0.004   0.002  0.00  0.00    +0.048 C 
ATOM      6  C   UNL     1      -0.019   1.526   0.010  0.00  0.00    +0.019 C 
ATOM      7  C   UNL     1       1.417   2.055  -0.000  0.00  0.00    -0.009 C 
ATOM      8  C   UNL     1       2.133   1.562  -1.259  0.00  0.00    +0.007 C 
ATOM      9  C   UNL     1       2.154   0.032  -1.268  0.00  0.00    -0.009 C 
ATOM     10  C   UNL     1       0.718  -0.497  -1.257  0.00  0.00    +0.019 C 
ATOM     11  C   UNL     1       2.894  -0.475  -0.028  0.00  0.00    +0.007 C 
ATOM     12  C   UNL     1       2.178   0.019   1.231  0.00  0.00    -0.009 C 
ATOM     13  C   UNL     1       2.157   1.548   1.239  0.00  0.00    +0.007 C 
ATOM     14  C   UNL     1       0.742  -0.511   1.242  0.00  0.00    +0.019 C 
ENDBRANCH   2   5
BRANCH   1  15
ATOM     15  C   UNL     1      -3.014  -2.361   0.018  0.00  0.00    +0.146 C 
BRANCH  15  20
ATOM     16  C   UNL     1      -2.972  -4.727   1.058  0.00  0.00    +0.015 A 
ATOM     17  C   UNL     1      -2.957  -6.087   0.810  0.00  0.00    +0.036 A 
ATOM     18  C   UNL     1      -2.964  -6.521  -0.474  0.00  0.00    +0.142 A 
ATOM     19  S   UNL     1      -3.000  -4.985  -1.383  0.00  0.00    -0.072 S 
ATOM     20  C   UNL     1      -2.994  -3.868   0.010  0.00  0.00    +0.009 A 
BRANCH  18  21
ATOM     21  S   UNL     1      -2.948  -8.173  -1.087  0.00  0.00    +0.062 S 
ATOM     22  O   UNL     1      -2.411  -8.113  -2.401  0.00  0.00    -0.153 OA
ATOM     23  O   UNL     1      -2.377  -8.979  -0.066  0.00  0.00    -0.153 OA
BRANCH  21  24
ATOM     24  N   UNL     1      -4.526  -8.652  -1.242  0.00  0.00    -0.203 NA
ATOM     25  H   UNL     1      -5.243  -8.044  -1.005  0.00  0.00    +0.144 HD
ATOM     26  H   UNL     1      -4.732  -9.542  -1.569  0.00  0.00    +0.144 HD
ENDBRANCH  21  24
ENDBRANCH  18  21
ENDBRANCH  15  20
ENDBRANCH   1  15
TORSDOF 5
