REMARK  Name = ZINC41142020
REMARK  8 active torsions:
REMARK  status: ('A' for Active; 'I' for Inactive)
REMARK    1  A    between atoms: C_1  and  O_2
REMARK    2  A    between atoms: O_2  and  C_3
REMARK    3  A    between atoms: C_6  and  N_11
REMARK    4  A    between atoms: C_8  and  O_9
REMARK    5  A    between atoms: O_9  and  C_10
REMARK    6  A    between atoms: C_12  and  C_18
REMARK    7  A    between atoms: C_14  and  C_16
REMARK    8  A    between atoms: C_16  and  N_17
REMARK                            x       y       z     vdW  Elec       q    Type
REMARK                         _______ _______ _______ _____ _____    ______ ____
ROOT
ATOM      1  N   UNL     1      -4.963  -2.482  -0.099  0.00  0.00    -0.232 N 
ATOM      2  C   UNL     1      -5.998  -2.203   0.747  0.00  0.00    +0.075 A 
ATOM      3  C   UNL     1      -6.920  -3.201   0.604  0.00  0.00    +0.051 A 
ATOM      4  C   UNL     1      -6.435  -4.100  -0.346  0.00  0.00    +0.047 A 
ATOM      5  N   UNL     1      -5.273  -3.672  -0.771  0.00  0.00    -0.173 NA
ENDROOT
BRANCH   2   6
ATOM      6  C   UNL     1      -6.101  -1.036   1.651  0.00  0.00    +0.001 A 
ATOM      7  C   UNL     1      -5.423   0.145   1.349  0.00  0.00    +0.013 A 
ATOM      8  C   UNL     1      -5.522   1.230   2.195  0.00  0.00    +0.039 A 
ATOM      9  C   UNL     1      -6.293   1.147   3.344  0.00  0.00    +0.123 A 
ATOM     10  C   UNL     1      -6.968  -0.024   3.649  0.00  0.00    +0.039 A 
ATOM     11  C   UNL     1      -6.880  -1.112   2.806  0.00  0.00    +0.013 A 
ATOM     12  F   UNL     1      -6.387   2.213   4.170  0.00  0.00    -0.205 F 
ENDBRANCH   2   6
BRANCH   1  16
ATOM     13  C   UNL     1      -1.508  -0.195  -0.600  0.00  0.00    +0.162 A 
ATOM     14  C   UNL     1      -1.981  -0.469   0.674  0.00  0.00    +0.051 A 
ATOM     15  C   UNL     1      -3.125  -1.226   0.840  0.00  0.00    +0.031 A 
ATOM     16  C   UNL     1      -3.803  -1.714  -0.269  0.00  0.00    +0.070 A 
ATOM     17  C   UNL     1      -3.333  -1.441  -1.546  0.00  0.00    +0.077 A 
ATOM     18  C   UNL     1      -2.189  -0.678  -1.713  0.00  0.00    +0.163 A 
BRANCH  13  20
ATOM     19  C   UNL     1       0.265   1.014   0.426  0.00  0.00    +0.277 C 
ATOM     20  O   UNL     1      -0.383   0.551  -0.761  0.00  0.00    -0.491 OA
ENDBRANCH  13  20
BRANCH  18  21
ATOM     21  O   UNL     1      -1.729  -0.405  -2.963  0.00  0.00    -0.491 OA
ATOM     22  C   UNL     1      -2.478  -0.933  -4.060  0.00  0.00    +0.277 C 
ENDBRANCH  18  21
ENDBRANCH   1  16
BRANCH   4  23
ATOM     23  C   UNL     1      -7.135  -5.351  -0.811  0.00  0.00    -0.028 C 
BRANCH  23  24
ATOM     24  N   UNL     1      -7.893  -5.062  -2.035  0.00  0.00    +0.382 N 
ATOM     25  H   UNL     1      -8.577  -4.345  -1.846  0.00  0.00    -0.090 HD
ATOM     26  H   UNL     1      -7.261  -4.743  -2.754  0.00  0.00    -0.090 HD
ATOM     27  H   UNL     1      -8.361  -5.899  -2.346  0.00  0.00    -0.090 HD
ENDBRANCH  23  24
ENDBRANCH   4  23
TORSDOF 6
