REMARK  Name = ZINC57848104
REMARK  3 active torsions:
REMARK  status: ('A' for Active; 'I' for Inactive)
REMARK    1  A    between atoms: C_6  and  C_7
REMARK    2  A    between atoms: N_11  and  C_15
REMARK    3  A    between atoms: C_15  and  C_16
REMARK                            x       y       z     vdW  Elec       q    Type
REMARK                         _______ _______ _______ _____ _____    ______ ____
ROOT
ATOM      1  C   UNL     1      -1.293  -0.775   0.011  0.00  0.00    +0.191 C 
ATOM      2  C   UNL     1      -1.612  -1.296  -1.376  0.00  0.00    +0.248 C 
ATOM      3  O   UNL     1      -1.805  -0.642  -2.378  0.00  0.00    -0.273 OA
ATOM      4  N   UNL     1      -1.636  -2.639  -1.264  0.00  0.00    -0.224 N 
ATOM      5  C   UNL     1      -1.379  -3.034  -0.012  0.00  0.00    +0.309 C 
ATOM      6  O   UNL     1      -1.346  -4.199   0.336  0.00  0.00    -0.252 OA
ATOM      7  N   UNL     1      -1.163  -1.997   0.823  0.00  0.00    -0.284 N 
ATOM      8  H   UNL     1      -0.960  -2.045   1.770  0.00  0.00    +0.151 HD
ENDROOT
BRANCH   1  14
ATOM      9  C   UNL     1      -0.017   1.378   0.010  0.00  0.00    +0.007 A 
ATOM     10  C   UNL     1       1.171   2.086   0.002  0.00  0.00    +0.020 A 
ATOM     11  C   UNL     1       2.378   1.410  -0.013  0.00  0.00    +0.041 A 
ATOM     12  C   UNL     1       2.396   0.027  -0.021  0.00  0.00    +0.020 A 
ATOM     13  C   UNL     1       1.208  -0.679  -0.013  0.00  0.00    +0.007 A 
ATOM     14  C   UNL     1       0.002  -0.004   0.002  0.00  0.00    -0.018 A 
ATOM     15 CL   UNL     1       3.870   2.298  -0.023  0.00  0.00    -0.084 Cl
ENDBRANCH   1  14
BRANCH   4  16
ATOM     16  C   UNL     1      -1.911  -3.553  -2.376  0.00  0.00    +0.121 C 
BRANCH  16  17
ATOM     17  C   UNL     1      -0.598  -3.922  -3.069  0.00  0.00    +0.003 C 
ATOM     18  C   UNL     1       0.005  -2.675  -3.722  0.00  0.00    -0.014 C 
ATOM     19  C   UNL     1       1.275  -3.066  -4.480  0.00  0.00    -0.082 C 
ATOM     20  N   UNL     1       0.947  -4.052  -5.516  0.00  0.00    +0.379 N 
ATOM     21  C   UNL     1       0.435  -5.279  -4.892  0.00  0.00    -0.082 C 
ATOM     22  C   UNL     1      -0.867  -4.973  -4.150  0.00  0.00    -0.014 C 
ATOM     23  H   UNL     1       0.244  -3.671  -6.131  0.00  0.00    -0.086 HD
ATOM     24  H   UNL     1       1.776  -4.268  -6.048  0.00  0.00    -0.086 HD
ENDBRANCH  16  17
ENDBRANCH   4  16
TORSDOF 3
