REMARK  Name = ZINC20124357
REMARK  5 active torsions:
REMARK  status: ('A' for Active; 'I' for Inactive)
REMARK    1  A    between atoms: C_1  and  C_2
REMARK    2  A    between atoms: C_2  and  C_4
REMARK    3  A    between atoms: C_2  and  N_11
REMARK    4  A    between atoms: N_11  and  C_12
REMARK    5  A    between atoms: C_12  and  C_13
REMARK                            x       y       z     vdW  Elec       q    Type
REMARK                         _______ _______ _______ _____ _____    ______ ____
ROOT
ATOM      1  N   UNL     1      -0.749   3.048   1.275  0.00  0.00    +0.386 N 
ATOM      2  H   UNL     1      -0.854   3.419   0.245  0.00  0.00    -0.085 HD
ATOM      3  H   UNL     1      -1.597   3.400   1.880  0.00  0.00    -0.085 HD
ENDROOT
BRANCH   1   5
ATOM      4  C   UNL     1      -0.013   1.086   0.008  0.00  0.00    -0.009 C 
ATOM      5  C   UNL     1      -0.729   1.579   1.267  0.00  0.00    -0.044 C 
BRANCH   5   6
ATOM      6  C   UNL     1      -2.143   1.058   1.278  0.00  0.00    -0.061 A 
ATOM      7  C   UNL     1      -2.466  -0.046   2.044  0.00  0.00    +0.002 A 
ATOM      8  C   UNL     1      -3.763  -0.525   2.055  0.00  0.00    +0.001 A 
ATOM      9  C   UNL     1      -4.737   0.100   1.298  0.00  0.00    +0.015 A 
ATOM     10  C   UNL     1      -4.413   1.204   0.531  0.00  0.00    +0.018 A 
ATOM     11  C   UNL     1      -3.117   1.686   0.525  0.00  0.00    +0.017 A 
ATOM     12 BR   UNL     1      -5.745   2.059  -0.504  0.00  0.00    -0.050 Br
ENDBRANCH   5   6
ENDBRANCH   1   5
BRANCH   1  13
ATOM     13  C   UNL     1       0.492   3.588   1.846  0.00  0.00    -0.046 C 
BRANCH  13  14
ATOM     14  C   UNL     1       0.435   5.094   1.837  0.00  0.00    -0.061 A 
ATOM     15  C   UNL     1       0.910   5.796   0.745  0.00  0.00    +0.005 A 
ATOM     16  C   UNL     1       0.855   7.178   0.730  0.00  0.00    +0.050 A 
ATOM     17  C   UNL     1       0.334   7.862   1.816  0.00  0.00    +0.166 A 
ATOM     18  C   UNL     1      -0.140   7.155   2.919  0.00  0.00    +0.166 A 
ATOM     19  C   UNL     1      -0.087   5.771   2.924  0.00  0.00    +0.051 A 
ATOM     20  O   UNL     1      -0.597   8.047   3.845  0.00  0.00    -0.453 OA
ATOM     21  C   UNL     1      -0.025   9.315   3.474  0.00  0.00    +0.466 C 
ATOM     22  O   UNL     1       0.173   9.197   2.052  0.00  0.00    -0.453 OA
ENDBRANCH  13  14
ENDBRANCH   1  13
TORSDOF 4
