REMARK  Name = ZINC39100957
REMARK  5 active torsions:
REMARK  status: ('A' for Active; 'I' for Inactive)
REMARK    1  A    between atoms: C_1  and  C_2
REMARK    2  A    between atoms: C_2  and  C_3
REMARK    3  A    between atoms: C_6  and  C_15
REMARK    4  A    between atoms: N_7  and  N_14
REMARK    5  A    between atoms: C_12  and  C_13
REMARK                            x       y       z     vdW  Elec       q    Type
REMARK                         _______ _______ _______ _____ _____    ______ ____
ROOT
ATOM      1  C   UNL     1       0.855  -0.509   1.177  0.00  0.00    +0.055 C 
ATOM      2  C   UNL     1       1.068  -1.995   1.049  0.00  0.00    +0.060 A 
ATOM      3  C   UNL     1       1.853  -2.697   0.176  0.00  0.00    +0.166 A 
ATOM      4  N   UNL     1       1.693  -4.025   0.476  0.00  0.00    -0.173 N 
ATOM      5  N   UNL     1       0.794  -4.119   1.550  0.00  0.00    -0.113 NA
ATOM      6  C   UNL     1       0.423  -2.918   1.892  0.00  0.00    +0.245 A 
ATOM      7  O   UNL     1      -0.429  -2.511   2.873  0.00  0.00    -0.444 OA
ATOM      8  C   UNL     1      -0.431  -1.194   3.183  0.00  0.00    +0.197 C 
ATOM      9  C   UNL     1       0.124  -0.251   2.471  0.00  0.00    -0.030 C 
ATOM     10  C   UNL     1       0.031   1.169   2.967  0.00  0.00    +0.043 C 
ENDROOT
BRANCH   4  11
ATOM     11  N   UNL     1       2.300  -5.071  -0.158  0.00  0.00    -0.281 N 
ATOM     12  H   UNL     1       3.180  -5.298   0.280  0.00  0.00    +0.164 HD
ATOM     13  H   UNL     1       1.693  -5.877  -0.189  0.00  0.00    +0.164 HD
ENDBRANCH   4  11
BRANCH   1  15
ATOM     14  C   UNL     1      -0.084   1.522   0.066  0.00  0.00    +0.005 C 
ATOM     15  C   UNL     1       0.017  -0.003   0.001  0.00  0.00    +0.009 C 
ENDBRANCH   1  15
BRANCH   3  16
ATOM     16  C   UNL     1       2.683  -2.150  -0.854  0.00  0.00    +0.121 C 
ATOM     17  N   UNL     1       3.342  -1.716  -1.672  0.00  0.00    -0.189 NA
ENDBRANCH   3  16
TORSDOF 3
