REMARK  Name = ZINC67121234
REMARK  7 active torsions:
REMARK  status: ('A' for Active; 'I' for Inactive)
REMARK    1  A    between atoms: C_1  and  C_2
REMARK    2  A    between atoms: C_5  and  C_9
REMARK    3  A    between atoms: C_9  and  N_10
REMARK    4  A    between atoms: N_10  and  C_11
REMARK    5  A    between atoms: C_11  and  C_12
REMARK    6  A    between atoms: C_11  and  C_13
REMARK    7  A    between atoms: C_11  and  C_14
REMARK                            x       y       z     vdW  Elec       q    Type
REMARK                         _______ _______ _______ _____ _____    ______ ____
ROOT
ATOM      1  N   UNL     1       1.450  -4.749  -0.034  0.00  0.00    +0.388 N 
ATOM      2  H   UNL     1       1.917  -4.401  -0.858  0.00  0.00    -0.084 HD
ATOM      3  H   UNL     1       1.926  -4.412   0.789  0.00  0.00    -0.084 HD
ENDROOT
BRANCH   1   4
ATOM      4  C   UNL     1       1.469  -6.217  -0.044  0.00  0.00    -0.047 C 
ATOM      5  C   UNL     1       0.761  -6.745   1.205  0.00  0.00    -0.006 C 
ATOM      6  C   UNL     1       0.748  -6.728  -1.294  0.00  0.00    -0.006 C 
BRANCH   4   7
ATOM      7  C   UNL     1       2.896  -6.701  -0.055  0.00  0.00    -0.055 A 
ATOM      8  C   UNL     1       3.934  -5.788  -0.048  0.00  0.00    +0.006 A 
ATOM      9  C   UNL     1       5.245  -6.227  -0.058  0.00  0.00    +0.050 A 
ATOM     10  C   UNL     1       5.522  -7.585  -0.074  0.00  0.00    +0.166 A 
ATOM     11  C   UNL     1       4.476  -8.505  -0.081  0.00  0.00    +0.166 A 
ATOM     12  C   UNL     1       3.165  -8.057  -0.066  0.00  0.00    +0.051 A 
ATOM     13  O   UNL     1       5.003  -9.764  -0.097  0.00  0.00    -0.453 OA
ATOM     14  C   UNL     1       6.372  -9.602  -0.512  0.00  0.00    +0.466 C 
ATOM     15  O   UNL     1       6.704  -8.267  -0.086  0.00  0.00    -0.453 OA
ENDBRANCH   4   7
ENDBRANCH   1   4
BRANCH   1  16
ATOM     16  C   UNL     1       0.059  -4.277  -0.024  0.00  0.00    -0.045 C 
BRANCH  16  21
ATOM     17  C   UNL     1      -0.018   1.503   0.010  0.00  0.00    +0.047 C 
ATOM     18  C   UNL     1       0.002  -0.004   0.002  0.00  0.00    -0.015 A 
ATOM     19  C   UNL     1       0.006  -0.689  -1.199  0.00  0.00    +0.006 A 
ATOM     20  C   UNL     1       0.025  -2.071  -1.206  0.00  0.00    +0.002 A 
ATOM     21  C   UNL     1       0.040  -2.770  -0.014  0.00  0.00    -0.062 A 
ATOM     22  C   UNL     1       0.036  -2.088   1.188  0.00  0.00    +0.040 A 
ATOM     23  C   UNL     1       0.023  -0.703   1.197  0.00  0.00    +0.126 A 
ATOM     24  F   UNL     1       0.025  -0.035   2.371  0.00  0.00    -0.205 F 
ENDBRANCH  16  21
ENDBRANCH   1  16
TORSDOF 4
