REMARK  Name = ZINC55029158
REMARK  9 active torsions:
REMARK  status: ('A' for Active; 'I' for Inactive)
REMARK    1  A    between atoms: C_1  and  C_2
REMARK    2  A    between atoms: C_2  and  C_4
REMARK    3  A    between atoms: C_2  and  N_12
REMARK    4  A    between atoms: N_6  and  C_7
REMARK    5  A    between atoms: C_7  and  C_8
REMARK    6  A    between atoms: C_8  and  O_10
REMARK    7  A    between atoms: O_10  and  C_11
REMARK    8  A    between atoms: C_15  and  N_18
REMARK    9  A    between atoms: N_21  and  C_22
REMARK                            x       y       z     vdW  Elec       q    Type
REMARK                         _______ _______ _______ _____ _____    ______ ____
ROOT
ATOM      1  N   UNL     1       0.816  -0.907  -0.823  0.00  0.00    +0.387 N 
ATOM      2  C   UNL     1       2.224  -0.498  -0.750  0.00  0.00    -0.076 C 
ATOM      3  C   UNL     1       3.064  -1.385  -1.671  0.00  0.00    +0.004 C 
ATOM      4  C   UNL     1       2.932  -2.844  -1.226  0.00  0.00    +0.071 C 
ATOM      5  C   UNL     1       1.452  -3.237  -1.234  0.00  0.00    +0.004 C 
ATOM      6  C   UNL     1       0.671  -2.282  -0.330  0.00  0.00    -0.076 C 
ATOM      7  H   UNL     1       0.503  -0.860  -1.781  0.00  0.00    -0.081 HD
ENDROOT
BRANCH   4   8
ATOM      8  N   UNL     1       3.673  -3.707  -2.149  0.00  0.00    -0.297 N 
ATOM      9  C   UNL     1       4.130  -4.904  -1.732  0.00  0.00    +0.300 C 
ATOM     10  O   UNL     1       3.928  -5.268  -0.590  0.00  0.00    -0.253 OA
ATOM     11  N   UNL     1       4.812  -5.698  -2.581  0.00  0.00    -0.297 N 
ATOM     12  H   UNL     1       3.834  -3.417  -3.061  0.00  0.00    +0.151 HD
ATOM     13  H   UNL     1       4.974  -5.408  -3.493  0.00  0.00    +0.151 HD
BRANCH  11  14
ATOM     14  C   UNL     1       5.310  -7.000  -2.128  0.00  0.00    +0.074 C 
ATOM     15  C   UNL     1       4.203  -8.046  -2.270  0.00  0.00    +0.022 C 
ATOM     16  C   UNL     1       4.722  -9.405  -1.796  0.00  0.00    +0.002 C 
ATOM     17  C   UNL     1       5.925  -9.816  -2.647  0.00  0.00    +0.000 C 
ATOM     18  C   UNL     1       7.032  -8.770  -2.505  0.00  0.00    +0.002 C 
ATOM     19  C   UNL     1       6.513  -7.411  -2.979  0.00  0.00    +0.022 C 
ENDBRANCH  11  14
ENDBRANCH   4   8
BRANCH   1  21
ATOM     20  C   UNL     1       0.142   1.428  -0.519  0.00  0.00    -0.004 C 
ATOM     21  C   UNL     1       0.002  -0.004   0.002  0.00  0.00    +0.016 C 
BRANCH  21  22
ATOM     22  C   UNL     1      -1.443  -0.425  -0.068  0.00  0.00    +0.200 C 
ATOM     23  O   UNL     1      -1.864  -0.986  -1.058  0.00  0.00    -0.278 OA
ATOM     24  N   UNL     1      -2.268  -0.178   0.968  0.00  0.00    -0.306 N 
ATOM     25  H   UNL     1      -1.932   0.271   1.760  0.00  0.00    +0.149 HD
BRANCH  24  26
ATOM     26  C   UNL     1      -3.673  -0.587   0.900  0.00  0.00    +0.224 C 
BRANCH  26  27
ATOM     27  C   UNL     1      -4.373  -0.197   2.176  0.00  0.00    +0.324 C 
ATOM     28  O   UNL     1      -3.761   0.365   3.053  0.00  0.00    -0.249 OA
BRANCH  27  29
ATOM     29  O   UNL     1      -5.676  -0.474   2.339  0.00  0.00    -0.467 OA
ATOM     30  C   UNL     1      -6.275  -0.076   3.574  0.00  0.00    +0.280 C 
ENDBRANCH  27  29
ENDBRANCH  26  27
ENDBRANCH  24  26
ENDBRANCH  21  22
ENDBRANCH   1  21
TORSDOF 7
