REMARK  Name = ZINC62239937
REMARK  6 active torsions:
REMARK  status: ('A' for Active; 'I' for Inactive)
REMARK    1  A    between atoms: C_1  and  O_2
REMARK    2  A    between atoms: O_2  and  C_3
REMARK    3  A    between atoms: C_8  and  C_9
REMARK    4  A    between atoms: C_10  and  C_21
REMARK    5  A    between atoms: N_13  and  C_14
REMARK    6  A    between atoms: C_21  and  N_22
REMARK                            x       y       z     vdW  Elec       q    Type
REMARK                         _______ _______ _______ _____ _____    ______ ____
ROOT
ATOM      1  C   UNL     1      -0.010  -2.831  -0.013  0.00  0.00    +0.099 A 
ATOM      2  C   UNL     1       0.686  -3.280   1.071  0.00  0.00    +0.074 A 
ATOM      3  N   UNL     1       1.751  -3.957   0.647  0.00  0.00    -0.135 NA
ATOM      4  N   UNL     1       1.786  -3.972  -0.639  0.00  0.00    -0.060 NA
ATOM      5  N   UNL     1       0.672  -3.266  -1.119  0.00  0.00    -0.212 N 
ENDROOT
BRANCH   5   6
ATOM      6  C   UNL     1       0.327  -3.048  -2.459  0.00  0.00    +0.070 A 
ATOM      7  C   UNL     1      -1.009  -3.009  -2.837  0.00  0.00    +0.028 A 
ATOM      8  C   UNL     1      -1.346  -2.794  -4.159  0.00  0.00    +0.005 A 
ATOM      9  C   UNL     1      -0.356  -2.618  -5.107  0.00  0.00    +0.038 A 
ATOM     10  C   UNL     1       0.977  -2.656  -4.735  0.00  0.00    +0.125 A 
ATOM     11  C   UNL     1       1.321  -2.865  -3.411  0.00  0.00    +0.066 A 
ATOM     12  F   UNL     1       1.943  -2.484  -5.665  0.00  0.00    -0.205 F 
ENDBRANCH   5   6
BRANCH   1  18
ATOM     13  C   UNL     1      -1.200  -0.637   0.010  0.00  0.00    +0.129 A 
ATOM     14  C   UNL     1      -2.373   0.099   0.019  0.00  0.00    +0.046 A 
ATOM     15  C   UNL     1      -3.596  -0.546   0.028  0.00  0.00    +0.004 A 
ATOM     16  C   UNL     1      -3.656  -1.929   0.027  0.00  0.00    +0.001 A 
ATOM     17  C   UNL     1      -2.496  -2.676   0.017  0.00  0.00    +0.014 A 
ATOM     18  C   UNL     1      -1.257  -2.036   0.003  0.00  0.00    +0.044 A 
BRANCH  13  20
ATOM     19  C   UNL     1      -0.017   1.425   0.010  0.00  0.00    +0.277 C 
ATOM     20  O   UNL     1       0.002  -0.004   0.002  0.00  0.00    -0.494 OA
ENDBRANCH  13  20
ENDBRANCH   1  18
BRANCH   2  21
ATOM     21  C   UNL     1       0.310  -3.048   2.512  0.00  0.00    -0.026 C 
BRANCH  21  22
ATOM     22  N   UNL     1      -0.557  -4.140   2.974  0.00  0.00    +0.382 N 
ATOM     23  H   UNL     1      -0.808  -3.984   3.939  0.00  0.00    -0.090 HD
ATOM     24  H   UNL     1      -1.392  -4.168   2.409  0.00  0.00    -0.090 HD
ATOM     25  H   UNL     1      -0.065  -5.017   2.892  0.00  0.00    -0.090 HD
ENDBRANCH  21  22
ENDBRANCH   2  21
TORSDOF 5
