REMARK  Name = ZINC50243677
REMARK  5 active torsions:
REMARK  status: ('A' for Active; 'I' for Inactive)
REMARK    1  A    between atoms: C_1  and  C_2
REMARK    2  A    between atoms: C_2  and  C_3
REMARK    3  A    between atoms: C_9  and  C_13
REMARK    4  A    between atoms: C_13  and  N_14
REMARK    5  A    between atoms: C_17  and  N_20
REMARK                            x       y       z     vdW  Elec       q    Type
REMARK                         _______ _______ _______ _____ _____    ______ ____
ROOT
ATOM      1  C   UNL     1       0.707  -0.490  -1.238  0.00  0.00    +0.102 A 
ATOM      2  N   UNL     1       1.247   0.202  -2.195  0.00  0.00    -0.159 NA
ATOM      3  N   UNL     1       1.866  -0.410  -3.280  0.00  0.00    -0.171 N 
ATOM      4  C   UNL     1       2.466   0.203  -4.343  0.00  0.00    +0.275 A 
ATOM      5  O   UNL     1       2.497   1.422  -4.408  0.00  0.00    -0.266 OA
ATOM      6  C   UNL     1       3.043  -0.566  -5.353  0.00  0.00    +0.093 A 
ATOM      7  C   UNL     1       3.005  -1.942  -5.273  0.00  0.00    +0.033 A 
ATOM      8  N   UNL     1       2.412  -2.507  -4.224  0.00  0.00    -0.228 NA
ATOM      9  C   UNL     1       1.873  -1.778  -3.280  0.00  0.00    +0.199 A 
ATOM     10  S   UNL     1       1.024  -2.167  -1.765  0.00  0.00    -0.033 S 
ENDROOT
BRANCH   1  12
ATOM     11  C   UNL     1      -0.019   1.526   0.010  0.00  0.00    +0.011 C 
ATOM     12  C   UNL     1       0.002  -0.004   0.002  0.00  0.00    +0.061 C 
ENDBRANCH   1  12
BRANCH   7  13
ATOM     13  C   UNL     1       3.623  -2.791  -6.354  0.00  0.00    -0.022 C 
BRANCH  13  14
ATOM     14  N   UNL     1       4.754  -3.545  -5.798  0.00  0.00    +0.382 N 
ATOM     15  C   UNL     1       5.828  -2.609  -5.402  0.00  0.00    -0.080 C 
ATOM     16  C   UNL     1       7.145  -3.357  -5.732  0.00  0.00    -0.037 C 
ATOM     17  C   UNL     1       6.767  -4.093  -7.044  0.00  0.00    -0.094 C 
ATOM     18  C   UNL     1       5.286  -4.465  -6.820  0.00  0.00    -0.095 C 
ATOM     19  H   UNL     1       4.450  -4.070  -4.993  0.00  0.00    -0.081 HD
BRANCH  17  20
ATOM     20  N   UNL     1       7.589  -5.298  -7.219  0.00  0.00    +0.379 N 
ATOM     21  H   UNL     1       7.458  -5.912  -6.428  0.00  0.00    -0.090 HD
ATOM     22  H   UNL     1       7.311  -5.775  -8.064  0.00  0.00    -0.090 HD
ATOM     23  H   UNL     1       8.561  -5.036  -7.284  0.00  0.00    -0.090 HD
ENDBRANCH  17  20
ENDBRANCH  13  14
ENDBRANCH   7  13
TORSDOF 4
