REMARK  Name = ZINC39637389
REMARK  8 active torsions:
REMARK  status: ('A' for Active; 'I' for Inactive)
REMARK    1  A    between atoms: C_1  and  C_2
REMARK    2  A    between atoms: C_7  and  N_12
REMARK    3  A    between atoms: C_9  and  C_11
REMARK    4  A    between atoms: C_13  and  C_15
REMARK    5  A    between atoms: C_26  and  C_28
REMARK    6  A    between atoms: C_31  and  O_38
REMARK    7  A    between atoms: C_32  and  C_34
REMARK    8  A    between atoms: O_38  and  C_39
REMARK                            x       y       z     vdW  Elec       q    Type
REMARK                         _______ _______ _______ _____ _____    ______ ____
ROOT
ATOM      1  C   UNL     1       3.144  -4.001   3.085  0.00  0.00    +0.100 C 
ATOM      2  C   UNL     1       4.330  -3.206   3.675  0.00  0.00    +0.121 C 
ATOM      3  N   UNL     1       5.260  -4.242   4.184  0.00  0.00    -0.296 N 
ATOM      4  C   UNL     1       5.208  -5.316   3.164  0.00  0.00    +0.115 C 
ATOM      5  C   UNL     1       3.725  -5.385   2.750  0.00  0.00    -0.004 C 
ATOM      6  C   UNL     1       3.004  -6.467   3.548  0.00  0.00    -0.010 C 
ATOM      7  C   UNL     1       3.560  -7.839   3.156  0.00  0.00    -0.082 C 
ATOM      8  N   UNL     1       3.367  -8.054   1.717  0.00  0.00    +0.379 N 
ATOM      9  C   UNL     1       4.138  -7.065   0.955  0.00  0.00    -0.082 C 
ATOM     10  C   UNL     1       3.607  -5.660   1.254  0.00  0.00    -0.010 C 
ATOM     11  C   UNL     1       5.987  -4.214   5.318  0.00  0.00    +0.247 C 
ATOM     12  O   UNL     1       5.826  -3.316   6.122  0.00  0.00    -0.270 OA
ATOM     13  H   UNL     1       3.678  -8.982   1.472  0.00  0.00    -0.086 HD
ATOM     14  H   UNL     1       2.388  -7.961   1.493  0.00  0.00    -0.086 HD
ENDROOT
BRANCH  11  15
ATOM     15  C   UNL     1       6.980  -5.273   5.585  0.00  0.00    +0.038 A 
ATOM     16  C   UNL     1       7.489  -6.038   4.531  0.00  0.00    +0.016 A 
ATOM     17  C   UNL     1       8.415  -7.024   4.783  0.00  0.00    +0.047 A 
ATOM     18  C   UNL     1       8.845  -7.261   6.084  0.00  0.00    +0.132 A 
ATOM     19  C   UNL     1       8.342  -6.502   7.135  0.00  0.00    +0.097 A 
ATOM     20  C   UNL     1       7.419  -5.510   6.890  0.00  0.00    +0.029 A 
BRANCH  19  21
ATOM     21  C   UNL     1       8.811  -6.763   8.543  0.00  0.00    +0.421 C 
ATOM     22  F   UNL     1       8.168  -5.882   9.419  0.00  0.00    -0.166 F 
ATOM     23  F   UNL     1       8.505  -8.081   8.900  0.00  0.00    -0.166 F 
ATOM     24  F   UNL     1      10.194  -6.569   8.617  0.00  0.00    -0.166 F 
ENDBRANCH  19  21
BRANCH  18  25
ATOM     25  O   UNL     1       9.758  -8.235   6.329  0.00  0.00    -0.495 OA
ATOM     26  C   UNL     1      10.233  -8.976   5.203  0.00  0.00    +0.277 C 
ENDBRANCH  18  25
ENDBRANCH  11  15
BRANCH   1  28
ATOM     27  N   UNL     1       1.332  -3.435   1.500  0.00  0.00    -0.312 N 
ATOM     28  C   UNL     1       2.633  -3.330   1.836  0.00  0.00    +0.218 C 
ATOM     29  O   UNL     1       3.392  -2.697   1.134  0.00  0.00    -0.275 OA
ATOM     30  H   UNL     1       0.725  -3.942   2.061  0.00  0.00    +0.149 HD
BRANCH  27  36
ATOM     31  C   UNL     1      -2.679  -1.547  -0.689  0.00  0.00    +0.008 C 
ATOM     32  C   UNL     1      -1.182  -1.825  -0.835  0.00  0.00    -0.009 C 
ATOM     33  C   UNL     1      -0.949  -2.741  -2.038  0.00  0.00    +0.003 C 
ATOM     34  C   UNL     1       0.549  -3.018  -2.185  0.00  0.00    +0.002 C 
ATOM     35  C   UNL     1       1.068  -3.699  -0.917  0.00  0.00    +0.022 C 
ATOM     36  C   UNL     1       0.835  -2.783   0.286  0.00  0.00    +0.076 C 
ATOM     37  C   UNL     1      -0.663  -2.506   0.432  0.00  0.00    +0.009 C 
ATOM     38  C   UNL     1      -1.407  -3.825   0.644  0.00  0.00    +0.009 C 
ENDBRANCH  27  36
ENDBRANCH   1  28
TORSDOF 5
