REMARK  Name = ZINC39672265
REMARK  10 active torsions:
REMARK  status: ('A' for Active; 'I' for Inactive)
REMARK    1  A    between atoms: C_1  and  C_2
REMARK    2  A    between atoms: C_2  and  C_3
REMARK    3  A    between atoms: C_3  and  C_4
REMARK    4  A    between atoms: C_4  and  C_5
REMARK    5  A    between atoms: C_5  and  C_7
REMARK    6  A    between atoms: C_5  and  C_8
REMARK    7  A    between atoms: C_12  and  C_21
REMARK    8  A    between atoms: N_23  and  C_24
REMARK    9  A    between atoms: C_24  and  C_25
REMARK   10  A    between atoms: N_34  and  C_35
REMARK                            x       y       z     vdW  Elec       q    Type
REMARK                         _______ _______ _______ _____ _____    ______ ____
ROOT
ATOM      1  C   UNL     1       1.427  -4.202   2.488  0.00  0.00    +0.218 C 
ATOM      2  O   UNL     1       0.797  -4.828   1.663  0.00  0.00    -0.275 OA
ATOM      3  N   UNL     1       1.993  -4.840   3.531  0.00  0.00    -0.300 N 
ATOM      4  C   UNL     1       2.788  -4.250   4.634  0.00  0.00    +0.121 C 
ATOM      5  C   UNL     1       2.338  -5.022   5.895  0.00  0.00    +0.100 C 
ATOM      6  C   UNL     1       1.798  -6.361   5.364  0.00  0.00    -0.004 C 
ATOM      7  C   UNL     1       1.955  -6.290   3.838  0.00  0.00    +0.115 C 
ATOM      8  C   UNL     1       2.614  -7.520   5.927  0.00  0.00    -0.010 C 
ATOM      9  C   UNL     1       2.022  -8.843   5.432  0.00  0.00    -0.082 C 
ATOM     10  N   UNL     1       0.623  -8.948   5.864  0.00  0.00    +0.379 N 
ATOM     11  C   UNL     1      -0.173  -7.882   5.243  0.00  0.00    -0.082 C 
ATOM     12  C   UNL     1       0.325  -6.519   5.731  0.00  0.00    -0.010 C 
ATOM     13  H   UNL     1       0.254  -9.845   5.588  0.00  0.00    -0.086 HD
ATOM     14  H   UNL     1       0.575  -8.860   6.868  0.00  0.00    -0.086 HD
ENDROOT
BRANCH   5  15
ATOM     15  C   UNL     1       3.510  -5.254   6.814  0.00  0.00    +0.218 C 
ATOM     16  O   UNL     1       4.624  -5.385   6.354  0.00  0.00    -0.275 OA
ATOM     17  N   UNL     1       3.319  -5.315   8.147  0.00  0.00    -0.311 N 
ATOM     18  H   UNL     1       2.427  -5.210   8.515  0.00  0.00    +0.149 HD
BRANCH  17  19
ATOM     19  C   UNL     1       4.458  -5.540   9.040  0.00  0.00    +0.139 C 
BRANCH  19  20
ATOM     20  C   UNL     1       3.978  -5.566  10.469  0.00  0.00    -0.030 A 
ATOM     21  C   UNL     1       3.926  -4.393  11.200  0.00  0.00    +0.007 A 
ATOM     22  C   UNL     1       3.488  -4.418  12.509  0.00  0.00    +0.024 A 
ATOM     23  C   UNL     1       3.100  -5.620  13.091  0.00  0.00    +0.033 A 
ATOM     24  C   UNL     1       3.150  -6.794  12.357  0.00  0.00    -0.026 A 
ATOM     25  C   UNL     1       3.588  -6.760  11.043  0.00  0.00    +0.010 A 
ATOM     26  C   UNL     1       2.728  -8.112  12.950  0.00  0.00    +0.038 C 
ATOM     27  C   UNL     1       2.764  -8.047  14.477  0.00  0.00    +0.024 C 
ATOM     28  C   UNL     1       1.978  -6.814  14.940  0.00  0.00    +0.105 C 
ATOM     29  N   UNL     1       2.664  -5.623  14.421  0.00  0.00    -0.333 N 
ATOM     30  C   UNL     1       2.888  -4.458  15.281  0.00  0.00    +0.129 C 
ENDBRANCH  19  20
ENDBRANCH  17  19
ENDBRANCH   5  15
BRANCH   1  31
ATOM     31  C   UNL     1       1.578  -2.709   2.346  0.00  0.00    +0.072 C 
ATOM     32  C   UNL     1       3.062  -2.354   2.236  0.00  0.00    +0.017 C 
BRANCH  31  33
ATOM     33  C   UNL     1       0.846  -2.240   1.087  0.00  0.00    +0.012 C 
BRANCH  33  34
ATOM     34  C   UNL     1       0.893  -0.712   1.010  0.00  0.00    +0.000 C 
BRANCH  34  36
ATOM     35  C   UNL     1       0.208   1.284  -0.327  0.00  0.00    +0.004 C 
ATOM     36  C   UNL     1       0.162  -0.243  -0.250  0.00  0.00    -0.003 C 
ENDBRANCH  34  36
ENDBRANCH  33  34
ENDBRANCH  31  33
ENDBRANCH   1  31
TORSDOF 7
