REMARK  Name = ZINC50867340
REMARK  2 active torsions:
REMARK  status: ('A' for Active; 'I' for Inactive)
REMARK    1  A    between atoms: C_4  and  C_8
REMARK    2  A    between atoms: C_6  and  N_7
REMARK                            x       y       z     vdW  Elec       q    Type
REMARK                         _______ _______ _______ _____ _____    ______ ____
ROOT
ATOM      1  C   UNL     1       3.595  -0.681  -0.036  0.00  0.00    +0.024 A 
ATOM      2  C   UNL     1       4.799   0.022  -0.038  0.00  0.00    +0.061 A 
ATOM      3  C   UNL     1       5.999  -0.665  -0.052  0.00  0.00    +0.168 A 
ATOM      4  C   UNL     1       6.004  -2.059  -0.065  0.00  0.00    +0.184 A 
ATOM      5  C   UNL     1       4.804  -2.757  -0.063  0.00  0.00    +0.087 A 
ATOM      6  C   UNL     1       3.604  -2.075  -0.043  0.00  0.00    +0.035 A 
ATOM      7 CL   UNL     1       4.813  -4.493  -0.080  0.00  0.00    -0.080 Cl
ATOM      8  O   UNL     1       7.298  -2.490  -0.079  0.00  0.00    -0.451 OA
ATOM      9  C   UNL     1       8.079  -1.351  -0.487  0.00  0.00    +0.466 C 
ATOM     10  O   UNL     1       7.292  -0.225  -0.058  0.00  0.00    -0.453 OA
ENDROOT
BRANCH   1  14
ATOM     11  C   UNL     1      -0.017   1.393   0.010  0.00  0.00    +0.063 A 
ATOM     12  C   UNL     1       1.189   2.069   0.002  0.00  0.00    +0.116 A 
ATOM     13  N   UNL     1       2.318   1.379  -0.013  0.00  0.00    -0.236 NA
ATOM     14  C   UNL     1       2.307   0.053  -0.020  0.00  0.00    +0.162 A 
ATOM     15  N   UNL     1       1.172  -0.633  -0.013  0.00  0.00    -0.213 NA
ATOM     16  C   UNL     1       0.002  -0.004   0.002  0.00  0.00    +0.120 A 
BRANCH  16  17
ATOM     17  N   UNL     1      -1.182  -0.723   0.009  0.00  0.00    -0.343 N 
ATOM     18  H   UNL     1      -2.033  -0.257   0.020  0.00  0.00    +0.144 HD
ATOM     19  H   UNL     1      -1.161  -1.693   0.004  0.00  0.00    +0.144 HD
ENDBRANCH  16  17
ENDBRANCH   1  14
TORSDOF 2
