REMARK  Name = ZINC08645993
REMARK  6 active torsions:
REMARK  status: ('A' for Active; 'I' for Inactive)
REMARK    1  A    between atoms: C_1  and  C_2
REMARK    2  A    between atoms: C_2  and  C_26
REMARK    3  A    between atoms: N_5  and  C_9
REMARK    4  A    between atoms: C_9  and  C_10
REMARK    5  A    between atoms: N_15  and  C_16
REMARK    6  A    between atoms: C_29  and  N_32
REMARK                            x       y       z     vdW  Elec       q    Type
REMARK                         _______ _______ _______ _____ _____    ______ ____
ROOT
ATOM      1  C   UNL     1      -1.819   3.850   7.265  0.00  0.00    +0.214 C 
ENDROOT
BRANCH   1   6
ATOM      2  C   UNL     1       1.772   2.736  10.082  0.00  0.00    +0.047 C 
ATOM      3  C   UNL     1       0.310   3.161  10.230  0.00  0.00    +0.135 C 
ATOM      4  C   UNL     1      -0.113   4.033   9.064  0.00  0.00    +0.251 C 
ATOM      5  O   UNL     1       0.351   5.108   8.748  0.00  0.00    -0.272 OA
ATOM      6  N   UNL     1      -1.110   3.365   8.452  0.00  0.00    -0.215 N 
ATOM      7  C   UNL     1      -1.377   2.207   9.065  0.00  0.00    +0.310 C 
ATOM      8  O   UNL     1      -2.239   1.431   8.700  0.00  0.00    -0.252 OA
ATOM      9  N   UNL     1      -0.582   1.993  10.130  0.00  0.00    -0.281 N 
ATOM     10  H   UNL     1      -0.596   1.222  10.718  0.00  0.00    +0.152 HD
BRANCH   3  11
ATOM     11  C   UNL     1       0.096   3.882  11.536  0.00  0.00    -0.015 A 
ATOM     12  C   UNL     1       0.193   5.260  11.589  0.00  0.00    +0.008 A 
ATOM     13  C   UNL     1      -0.009   5.921  12.787  0.00  0.00    +0.033 A 
ATOM     14  C   UNL     1      -0.297   5.203  13.932  0.00  0.00    +0.126 A 
ATOM     15  C   UNL     1      -0.389   3.825  13.880  0.00  0.00    +0.033 A 
ATOM     16  C   UNL     1      -0.193   3.164  12.682  0.00  0.00    +0.008 A 
BRANCH  14  17
ATOM     17  N   UNL     1      -0.507   5.911  15.216  0.00  0.00    +0.056 N 
ATOM     18  O   UNL     1      -0.760   5.279  16.225  0.00  0.00    -0.126 OA
ATOM     19  O   UNL     1      -0.426   7.125  15.262  0.00  0.00    -0.126 OA
ENDBRANCH  14  17
ENDBRANCH   3  11
ENDBRANCH   1   6
BRANCH   1  20
ATOM     20  C   UNL     1      -1.113   3.364   6.025  0.00  0.00    +0.238 C 
ATOM     21  O   UNL     1      -0.117   2.680   6.123  0.00  0.00    -0.274 OA
ATOM     22  N   UNL     1      -1.590   3.690   4.807  0.00  0.00    -0.239 N 
ATOM     23  C   UNL     1      -0.959   3.256   3.698  0.00  0.00    +0.306 C 
ATOM     24  O   UNL     1       0.040   2.570   3.797  0.00  0.00    -0.252 OA
ATOM     25  N   UNL     1      -1.435   3.582   2.481  0.00  0.00    -0.294 N 
ATOM     26  H   UNL     1      -2.387   4.238   4.729  0.00  0.00    +0.159 HD
ATOM     27  H   UNL     1      -2.232   4.129   2.402  0.00  0.00    +0.151 HD
BRANCH  25  28
ATOM     28  C   UNL     1      -0.750   3.109   1.275  0.00  0.00    +0.037 C 
ATOM     29  C   UNL     1      -0.729   1.579   1.267  0.00  0.00    +0.029 C 
ATOM     30  C   UNL     1      -0.013   1.086   0.008  0.00  0.00    -0.008 C 
ATOM     31  C   UNL     1      -0.753   1.593  -1.232  0.00  0.00    +0.007 C 
ATOM     32  C   UNL     1      -0.773   3.123  -1.223  0.00  0.00    -0.008 C 
ATOM     33  C   UNL     1      -1.490   3.616   0.036  0.00  0.00    +0.029 C 
ATOM     34  C   UNL     1       0.662   3.652  -1.234  0.00  0.00    +0.007 C 
ATOM     35  C   UNL     1       1.402   3.145   0.006  0.00  0.00    -0.008 C 
ATOM     36  C   UNL     1       1.423   1.615  -0.003  0.00  0.00    +0.007 C 
ATOM     37  C   UNL     1       0.686   3.639   1.264  0.00  0.00    +0.029 C 
ENDBRANCH  25  28
ENDBRANCH   1  20
TORSDOF 5
