REMARK  Name = ZINC49392709
REMARK  7 active torsions:
REMARK  status: ('A' for Active; 'I' for Inactive)
REMARK    1  A    between atoms: C_1  and  N_2
REMARK    2  A    between atoms: N_2  and  C_3
REMARK    3  A    between atoms: N_2  and  C_11
REMARK    4  A    between atoms: C_3  and  C_4
REMARK    5  A    between atoms: C_4  and  C_5
REMARK    6  A    between atoms: C_11  and  C_12
REMARK    7  A    between atoms: C_15  and  N_18
REMARK                            x       y       z     vdW  Elec       q    Type
REMARK                         _______ _______ _______ _____ _____    ______ ____
ROOT
ATOM      1  C   UNL     1      -0.018   1.465   0.010  0.00  0.00    -0.096 C 
ATOM      2  N   UNL     1       0.002  -0.004   0.002  0.00  0.00    +0.381 N 
ATOM      3  H   UNL     1      -0.945  -0.353   0.009  0.00  0.00    -0.082 HD
ENDROOT
BRANCH   2   4
ATOM      4  C   UNL     1       0.690  -0.478  -1.207  0.00  0.00    -0.070 C 
BRANCH   4   5
ATOM      5  C   UNL     1      -0.118  -0.077  -2.443  0.00  0.00    +0.078 C 
BRANCH   5   6
ATOM      6  C   UNL     1       0.588  -0.563  -3.683  0.00  0.00    +0.219 C 
ATOM      7  O   UNL     1       1.633  -1.170  -3.587  0.00  0.00    -0.275 OA
ATOM      8  N   UNL     1       0.057  -0.323  -4.898  0.00  0.00    -0.240 N 
ATOM      9  C   UNL     1       0.687  -0.758  -6.007  0.00  0.00    +0.303 C 
ATOM     10  O   UNL     1       1.735  -1.366  -5.911  0.00  0.00    -0.253 OA
ATOM     11  N   UNL     1       0.156  -0.518  -7.222  0.00  0.00    -0.313 N 
ATOM     12  H   UNL     1      -0.780   0.162  -4.975  0.00  0.00    +0.159 HD
ATOM     13  H   UNL     1      -0.680  -0.032  -7.299  0.00  0.00    +0.146 HD
ATOM     14  H   UNL     1       0.610  -0.831  -8.020  0.00  0.00    +0.146 HD
ENDBRANCH   5   6
ENDBRANCH   4   5
ENDBRANCH   2   4
BRANCH   2  15
ATOM     15  C   UNL     1       0.713  -0.491   1.192  0.00  0.00    -0.043 C 
BRANCH  15  16
ATOM     16  C   UNL     1      -0.059  -0.109   2.429  0.00  0.00    -0.064 A 
ATOM     17  C   UNL     1       0.188   1.099   3.053  0.00  0.00    +0.004 A 
ATOM     18  C   UNL     1      -0.520   1.449   4.188  0.00  0.00    +0.033 A 
ATOM     19  C   UNL     1      -1.476   0.591   4.698  0.00  0.00    +0.126 A 
ATOM     20  C   UNL     1      -1.724  -0.617   4.073  0.00  0.00    +0.033 A 
ATOM     21  C   UNL     1      -1.019  -0.965   2.936  0.00  0.00    +0.004 A 
BRANCH  19  22
ATOM     22  N   UNL     1      -2.233   0.965   5.913  0.00  0.00    +0.056 N 
ATOM     23  O   UNL     1      -2.016   2.021   6.460  0.00  0.00    -0.126 OA
ATOM     24  O   UNL     1      -3.069   0.214   6.359  0.00  0.00    -0.126 OA
ENDBRANCH  19  22
ENDBRANCH  15  16
ENDBRANCH   2  15
TORSDOF 6
