REMARK  Name = ZINC37819334
REMARK  6 active torsions:
REMARK  status: ('A' for Active; 'I' for Inactive)
REMARK    1  A    between atoms: C_1  and  C_2
REMARK    2  A    between atoms: C_2  and  N_3
REMARK    3  A    between atoms: N_3  and  C_4
REMARK    4  A    between atoms: C_4  and  C_5
REMARK    5  A    between atoms: C_14  and  C_16
REMARK    6  A    between atoms: C_19  and  O_23
REMARK                            x       y       z     vdW  Elec       q    Type
REMARK                         _______ _______ _______ _____ _____    ______ ____
ROOT
ATOM      1  N   UNL     1       0.838  -0.265   1.302  0.00  0.00    -0.286 N 
ATOM      2  C   UNL     1       2.173  -0.375   1.151  0.00  0.00    +0.305 C 
ATOM      3  O   UNL     1       2.671  -0.271   0.046  0.00  0.00    -0.252 OA
ATOM      4  N   UNL     1       2.956  -0.602   2.224  0.00  0.00    -0.282 N 
ATOM      5  C   UNL     1       2.382  -1.130   3.470  0.00  0.00    +0.128 C 
ATOM      6  C   UNL     1       3.141  -2.406   3.856  0.00  0.00    +0.126 C 
ATOM      7  N   UNL     1       4.583  -2.130   3.801  0.00  0.00    -0.300 N 
ATOM      8  C   UNL     1       5.157  -1.601   2.556  0.00  0.00    +0.126 C 
ATOM      9  C   UNL     1       4.399  -0.331   2.168  0.00  0.00    +0.128 C 
ATOM     10  C   UNL     1       5.366  -2.356   4.875  0.00  0.00    +0.202 C 
ATOM     11  O   UNL     1       4.882  -2.792   5.898  0.00  0.00    -0.277 OA
ENDROOT
BRANCH  10  12
ATOM     12  C   UNL     1       6.844  -2.068   4.804  0.00  0.00    +0.019 C 
ATOM     13  C   UNL     1       7.572  -3.228   4.093  0.00  0.00    +0.023 C 
ATOM     14  C   UNL     1       8.894  -3.355   4.895  0.00  0.00    +0.097 C 
ATOM     15  C   UNL     1       8.420  -3.030   6.333  0.00  0.00    -0.050 C 
ATOM     16  N   UNL     1       7.401  -1.967   6.165  0.00  0.00    +0.388 N 
ATOM     17  H   UNL     1       7.828  -1.062   6.292  0.00  0.00    -0.085 HD
ATOM     18  H   UNL     1       6.665  -2.091   6.844  0.00  0.00    -0.085 HD
BRANCH  14  19
ATOM     19  O   UNL     1       9.416  -4.683   4.814  0.00  0.00    -0.394 OA
ATOM     20  H   UNL     1      10.242  -4.811   5.300  0.00  0.00    +0.210 HD
ENDBRANCH  14  19
ENDBRANCH  10  12
BRANCH   1  22
ATOM     21  C   UNL     1      -0.233   1.145  -0.386  0.00  0.00    +0.024 C 
ATOM     22  C   UNL     1      -0.036  -0.283   0.126  0.00  0.00    +0.106 C 
ENDBRANCH   1  22
BRANCH   1  23
ATOM     23  C   UNL     1       0.261  -0.125   2.641  0.00  0.00    +0.106 C 
ATOM     24  C   UNL     1      -0.482  -1.410   3.012  0.00  0.00    +0.024 C 
ENDBRANCH   1  23
TORSDOF 4
