REMARK  Name = ZINC33602268
REMARK  12 active torsions:
REMARK  status: ('A' for Active; 'I' for Inactive)
REMARK    1  A    between atoms: C_1  and  C_2
REMARK    2  A    between atoms: C_2  and  C_4
REMARK    3  A    between atoms: C_2  and  O_29
REMARK    4  A    between atoms: C_4  and  C_6
REMARK    5  A    between atoms: C_4  and  N_28
REMARK    6  A    between atoms: C_8  and  C_11
REMARK    7  A    between atoms: N_13  and  C_14
REMARK    8  A    between atoms: C_14  and  C_16
REMARK    9  A    between atoms: C_14  and  C_24
REMARK   10  A    between atoms: C_16  and  C_17
REMARK   11  A    between atoms: C_24  and  O_26
REMARK   12  A    between atoms: O_26  and  C_27
REMARK                            x       y       z     vdW  Elec       q    Type
REMARK                         _______ _______ _______ _____ _____    ______ ____
ROOT
ATOM      1  C   UNL     1       0.591  -1.716   1.633  0.00  0.00    +0.266 C 
ATOM      2  O   UNL     1      -0.280  -2.422   1.163  0.00  0.00    -0.268 OA
ATOM      3  N   UNL     1       0.812  -0.488   1.123  0.00  0.00    -0.297 N 
ATOM      4  H   UNL     1       1.599   0.151   1.549  0.00  0.00    +0.150 HD
ENDROOT
BRANCH   1   7
ATOM      5  C   UNL     1       2.888  -2.279   4.330  0.00  0.00    +0.184 A 
ATOM      6  N   UNL     1       2.412  -1.528   3.382  0.00  0.00    -0.210 NA
ATOM      7  C   UNL     1       1.406  -2.202   2.761  0.00  0.00    +0.163 A 
ATOM      8  C   UNL     1       1.297  -3.412   3.375  0.00  0.00    +0.230 A 
ATOM      9  O   UNL     1       2.224  -3.444   4.346  0.00  0.00    -0.449 OA
BRANCH   5  10
ATOM     10  C   UNL     1       4.012  -1.903   5.259  0.00  0.00    +0.042 C 
BRANCH  10  11
ATOM     11  N   UNL     1       3.654  -2.273   6.635  0.00  0.00    +0.387 N 
ATOM     12  H   UNL     1       2.739  -1.739   6.932  0.00  0.00    -0.089 HD
ATOM     13  H   UNL     1       4.475  -1.998   7.314  0.00  0.00    -0.089 HD
ATOM     14  H   UNL     1       3.480  -3.358   6.690  0.00  0.00    -0.089 HD
ENDBRANCH  10  11
BRANCH  10  16
ATOM     15  C   UNL     1       6.393  -2.361   5.863  0.00  0.00    +0.036 C 
ATOM     16  C   UNL     1       5.285  -2.646   4.847  0.00  0.00    +0.106 C 
BRANCH  16  17
ATOM     17  O   UNL     1       5.025  -4.050   4.805  0.00  0.00    -0.393 OA
ATOM     18  H   UNL     1       4.255  -4.447   4.128  0.00  0.00    +0.210 HD
ENDBRANCH  16  17
ENDBRANCH  10  16
ENDBRANCH   5  10
ENDBRANCH   1   7
BRANCH   3  19
ATOM     19  C   UNL     1       0.002  -0.004   0.002  0.00  0.00    +0.186 C 
BRANCH  19  20
ATOM     20  C   UNL     1       0.597  -0.491  -1.294  0.00  0.00    +0.328 C 
ATOM     21  O   UNL     1       1.595  -1.173  -1.282  0.00  0.00    -0.249 OA
BRANCH  20  22
ATOM     22  O   UNL     1       0.018  -0.168  -2.461  0.00  0.00    -0.467 OA
ATOM     23  C   UNL     1       0.646  -0.672  -3.670  0.00  0.00    +0.280 C 
ENDBRANCH  20  22
ENDBRANCH  19  20
BRANCH  19  24
ATOM     24  C   UNL     1      -0.019   1.526   0.010  0.00  0.00    +0.069 C 
BRANCH  24  25
ATOM     25  C   UNL     1      -0.724   2.012   1.250  0.00  0.00    -0.045 A 
ATOM     26  C   UNL     1      -2.089   2.229   1.228  0.00  0.00    +0.005 A 
ATOM     27  C   UNL     1      -2.737   2.669   2.367  0.00  0.00    +0.020 A 
ATOM     28  C   UNL     1      -2.018   2.904   3.525  0.00  0.00    +0.041 A 
ATOM     29  C   UNL     1      -0.651   2.691   3.545  0.00  0.00    +0.020 A 
ATOM     30  C   UNL     1      -0.005   2.245   2.408  0.00  0.00    +0.005 A 
ATOM     31 CL   UNL     1      -2.831   3.463   4.954  0.00  0.00    -0.084 Cl
ENDBRANCH  24  25
ENDBRANCH  19  24
ENDBRANCH   3  19
TORSDOF 10
