REMARK  Name = ZINC19641852
REMARK  6 active torsions:
REMARK  status: ('A' for Active; 'I' for Inactive)
REMARK    1  A    between atoms: C_1  and  C_2
REMARK    2  A    between atoms: C_2  and  C_3
REMARK    3  A    between atoms: C_10  and  N_20
REMARK    4  A    between atoms: C_11  and  C_12
REMARK    5  A    between atoms: C_21  and  C_23
REMARK    6  A    between atoms: C_29  and  C_31
REMARK                            x       y       z     vdW  Elec       q    Type
REMARK                         _______ _______ _______ _____ _____    ______ ____
ROOT
ATOM      1  C   UNL     1       0.002  -0.004   0.002  0.00  0.00    -0.006 C 
ATOM      2  C   UNL     1       0.993  -0.490   1.064  0.00  0.00    +0.008 C 
ATOM      3  C   UNL     1       2.423  -0.173   0.625  0.00  0.00    +0.037 C 
ATOM      4  C   UNL     1       2.509   1.305   0.265  0.00  0.00    -0.023 A 
ATOM      5  C   UNL     1       1.396   2.022  -0.000  0.00  0.00    -0.004 A 
ATOM      6  S   UNL     1       1.984   3.654  -0.358  0.00  0.00    -0.077 S 
ATOM      7  C   UNL     1       3.684   3.388  -0.160  0.00  0.00    +0.084 A 
ATOM      8  C   UNL     1       3.757   2.044   0.178  0.00  0.00    +0.069 A 
ATOM      9  C   UNL     1      -0.019   1.531   0.011  0.00  0.00    +0.046 C 
ENDROOT
BRANCH   8  10
ATOM     10  C   UNL     1       5.045   1.395   0.439  0.00  0.00    +0.249 C 
ATOM     11  O   UNL     1       5.659   0.873  -0.474  0.00  0.00    -0.270 OA
ATOM     12  N   UNL     1       5.550   1.375   1.688  0.00  0.00    -0.297 N 
ATOM     13  C   UNL     1       4.824   2.006   2.799  0.00  0.00    +0.108 C 
ATOM     14  C   UNL     1       4.654   0.972   3.921  0.00  0.00    +0.019 C 
ATOM     15  C   UNL     1       6.026   0.413   4.305  0.00  0.00    +0.003 C 
ATOM     16  C   UNL     1       6.650  -0.287   3.096  0.00  0.00    +0.019 C 
ATOM     17  C   UNL     1       6.840   0.728   1.964  0.00  0.00    +0.108 C 
ENDBRANCH   8  10
BRANCH   7  18
ATOM     18  N   UNL     1       4.721   4.298  -0.304  0.00  0.00    -0.279 N 
ATOM     19  C   UNL     1       4.454   5.575  -0.641  0.00  0.00    +0.222 C 
ATOM     20  O   UNL     1       3.308   5.929  -0.818  0.00  0.00    -0.275 OA
ATOM     21  H   UNL     1       5.761   3.977  -0.144  0.00  0.00    +0.155 HD
BRANCH  19  22
ATOM     22  C   UNL     1       5.581   6.564  -0.798  0.00  0.00    +0.093 C 
ATOM     23  C   UNL     1       6.529   6.092  -1.903  0.00  0.00    +0.040 C 
ATOM     24  C   UNL     1       7.496   7.186  -2.255  0.00  0.00    -0.030 C 
ATOM     25  C   UNL     1       7.332   8.430  -1.939  0.00  0.00    -0.030 C 
ATOM     26  C   UNL     1       6.154   8.954  -1.170  0.00  0.00    +0.042 C 
ATOM     27  C   UNL     1       5.014   7.934  -1.192  0.00  0.00    +0.118 C 
BRANCH  27  28
ATOM     28  C   UNL     1       3.948   8.343  -0.208  0.00  0.00    +0.360 C 
ATOM     29  O   UNL     1       3.668   7.616   0.715  0.00  0.00    -0.246 OA
ATOM     30  O   UNL     1       3.311   9.515  -0.358  0.00  0.00    -0.246 OA
ENDBRANCH  27  28
ENDBRANCH  19  22
ENDBRANCH   7  18
BRANCH   1  32
ATOM     31  C   UNL     1      -2.361  -0.141  -0.797  0.00  0.00    +0.004 C 
ATOM     32  C   UNL     1      -1.396  -0.538   0.322  0.00  0.00    +0.000 C 
ENDBRANCH   1  32
TORSDOF 5
