REMARK  Name = ZINC62504297
REMARK  14 active torsions:
REMARK  status: ('A' for Active; 'I' for Inactive)
REMARK    1  A    between atoms: C_1  and  C_2
REMARK    2  A    between atoms: C_2  and  C_3
REMARK    3  A    between atoms: C_2  and  N_8
REMARK    4  A    between atoms: C_3  and  C_4
REMARK    5  A    between atoms: C_4  and  N_5
REMARK    6  A    between atoms: N_5  and  C_6
REMARK    7  A    between atoms: N_5  and  C_7
REMARK    8  A    between atoms: N_11  and  C_12
REMARK    9  A    between atoms: C_12  and  C_13
REMARK   10  A    between atoms: C_13  and  C_14
REMARK   11  A    between atoms: C_14  and  C_15
REMARK   12  A    between atoms: C_16  and  C_27
REMARK   13  A    between atoms: C_17  and  N_26
REMARK   14  A    between atoms: N_18  and  C_20
REMARK                            x       y       z     vdW  Elec       q    Type
REMARK                         _______ _______ _______ _____ _____    ______ ____
ROOT
ATOM      1  C   UNL     1      -6.223  -1.947  -3.417  0.00  0.00    +0.060 C 
ENDROOT
BRANCH   1   2
ATOM      2  C   UNL     1      -7.602  -2.483  -3.133  0.00  0.00    +0.083 A 
ATOM      3  C   UNL     1      -7.965  -3.849  -3.080  0.00  0.00    +0.114 A 
ATOM      4  C   UNL     1      -9.326  -3.898  -2.790  0.00  0.00    +0.138 A 
ATOM      5  N   UNL     1      -9.754  -2.621  -2.675  0.00  0.00    -0.217 N 
ATOM      6  N   UNL     1      -8.665  -1.769  -2.887  0.00  0.00    -0.168 NA
BRANCH   5   7
ATOM      7  C   UNL     1     -11.065  -2.218  -2.387  0.00  0.00    +0.067 A 
ATOM      8  C   UNL     1     -12.140  -2.952  -2.871  0.00  0.00    +0.028 A 
ATOM      9  C   UNL     1     -13.431  -2.553  -2.585  0.00  0.00    +0.002 A 
ATOM     10  C   UNL     1     -13.654  -1.424  -1.818  0.00  0.00    +0.000 A 
ATOM     11  C   UNL     1     -12.585  -0.691  -1.336  0.00  0.00    +0.002 A 
ATOM     12  C   UNL     1     -11.292  -1.088  -1.613  0.00  0.00    +0.028 A 
ENDBRANCH   5   7
BRANCH   4  13
ATOM     13  N   UNL     1     -10.095  -5.037  -2.647  0.00  0.00    -0.342 N 
ATOM     14  H   UNL     1      -9.689  -5.912  -2.749  0.00  0.00    +0.144 HD
ATOM     15  H   UNL     1     -11.040  -4.962  -2.443  0.00  0.00    +0.144 HD
ENDBRANCH   4  13
BRANCH   3  16
ATOM     16  C   UNL     1      -7.098  -4.970  -3.286  0.00  0.00    +0.104 C 
ATOM     17  N   UNL     1      -6.409  -5.859  -3.449  0.00  0.00    -0.191 NA
ENDBRANCH   3  16
ENDBRANCH   1   2
BRANCH   1  18
ATOM     18  C   UNL     1      -5.453  -1.797  -2.104  0.00  0.00    +0.025 C 
BRANCH  18  19
ATOM     19  C   UNL     1      -4.053  -1.252  -2.393  0.00  0.00    +0.106 C 
BRANCH  19  23
ATOM     20  N   UNL     1      -1.372  -0.511   0.012  0.00  0.00    -0.297 N 
ATOM     21  C   UNL     1      -2.051  -0.643  -1.145  0.00  0.00    +0.300 C 
ATOM     22  O   UNL     1      -1.522  -0.341  -2.197  0.00  0.00    -0.253 OA
ATOM     23  N   UNL     1      -3.315  -1.109  -1.135  0.00  0.00    -0.299 N 
ATOM     24  H   UNL     1      -1.794  -0.752   0.852  0.00  0.00    +0.151 HD
ATOM     25  H   UNL     1      -3.737  -1.350  -0.295  0.00  0.00    +0.150 HD
BRANCH  20  27
ATOM     26  C   UNL     1      -0.019   1.526   0.010  0.00  0.00    +0.028 C 
ATOM     27  C   UNL     1       0.002  -0.004   0.002  0.00  0.00    +0.070 C 
BRANCH  27  28
ATOM     28  C   UNL     1       0.742  -0.511   1.242  0.00  0.00    +0.003 C 
BRANCH  28  29
ATOM     29  C   UNL     1       0.872  -2.034   1.171  0.00  0.00    -0.078 C 
BRANCH  29  30
ATOM     30  N   UNL     1       1.582  -2.520   2.361  0.00  0.00    +0.376 N 
ATOM     31  C   UNL     1       1.602  -3.989   2.353  0.00  0.00    -0.097 C 
ATOM     32  C   UNL     1       2.961  -2.012   2.350  0.00  0.00    -0.097 C 
ATOM     33  H   UNL     1       1.110  -2.195   3.191  0.00  0.00    -0.083 HD
ENDBRANCH  29  30
ENDBRANCH  28  29
ENDBRANCH  27  28
ENDBRANCH  20  27
ENDBRANCH  19  23
ENDBRANCH  18  19
ENDBRANCH   1  18
TORSDOF 11
