REMARK  Name = ZINC05468285
REMARK  9 active torsions:
REMARK  status: ('A' for Active; 'I' for Inactive)
REMARK    1  A    between atoms: C_1  and  C_2
REMARK    2  A    between atoms: C_2  and  C_3
REMARK    3  A    between atoms: C_6  and  C_11
REMARK    4  A    between atoms: C_8  and  C_9
REMARK    5  A    between atoms: C_8  and  C_10
REMARK    6  A    between atoms: C_11  and  N_12
REMARK    7  A    between atoms: N_15  and  C_16
REMARK    8  A    between atoms: C_16  and  C_18
REMARK    9  A    between atoms: C_16  and  O_22
REMARK                            x       y       z     vdW  Elec       q    Type
REMARK                         _______ _______ _______ _____ _____    ______ ____
ROOT
ATOM      1  N   UNL     1      -0.016   1.344   0.009  0.00  0.00    -0.299 N 
ATOM      2  C   UNL     1       0.002  -0.004   0.002  0.00  0.00    +0.302 C 
ATOM      3  O   UNL     1       1.063  -0.598  -0.011  0.00  0.00    -0.253 OA
ATOM      4  N   UNL     1      -1.156  -0.694   0.009  0.00  0.00    -0.271 N 
ATOM      5  H   UNL     1      -0.863   1.817   0.016  0.00  0.00    +0.150 HD
ATOM      6  H   UNL     1      -2.002  -0.220   0.020  0.00  0.00    +0.153 HD
ENDROOT
BRANCH   1   7
ATOM      7  C   UNL     1       1.242   2.093   0.001  0.00  0.00    +0.109 C 
BRANCH   7  10
ATOM      8  C   UNL     1       1.514   5.410  -0.917  0.00  0.00    -0.005 C 
ATOM      9  C   UNL     1       0.709   4.185  -1.388  0.00  0.00    +0.009 C 
ATOM     10  C   UNL     1       0.943   3.594   0.012  0.00  0.00    +0.012 C 
ATOM     11  C   UNL     1       2.202   4.473   0.090  0.00  0.00    -0.028 C 
ATOM     12  C   UNL     1       2.422   5.107   1.465  0.00  0.00    +0.011 C 
ATOM     13  C   UNL     1       3.458   3.795  -0.462  0.00  0.00    +0.011 C 
BRANCH   8  15
ATOM     14  C   UNL     1       0.120   7.441  -1.334  0.00  0.00    +0.004 C 
ATOM     15  C   UNL     1       0.655   6.492  -0.259  0.00  0.00    +0.001 C 
ENDBRANCH   8  15
ENDBRANCH   7  10
ENDBRANCH   1   7
BRANCH   4  16
ATOM     16  C   UNL     1      -1.136  -2.159   0.001  0.00  0.00    +0.255 C 
BRANCH  16  17
ATOM     17  C   UNL     1      -2.303  -2.689   0.837  0.00  0.00    +0.232 C 
ATOM     18 CL   UNL     1      -2.278  -4.492   0.827  0.00  0.00    -0.079 Cl
ATOM     19 CL   UNL     1      -2.147  -2.095   2.532  0.00  0.00    -0.079 Cl
ATOM     20 CL   UNL     1      -3.858  -2.105   0.137  0.00  0.00    -0.079 Cl
ENDBRANCH  16  17
BRANCH  16  21
ATOM     21  O   UNL     1      -1.260  -2.629  -1.342  0.00  0.00    -0.370 OA
ATOM     22  H   UNL     1      -2.075  -2.353  -1.782  0.00  0.00    +0.212 HD
ENDBRANCH  16  21
ENDBRANCH   4  16
TORSDOF 6
