REMARK  Name = ZINC66698665
REMARK  7 active torsions:
REMARK  status: ('A' for Active; 'I' for Inactive)
REMARK    1  A    between atoms: C_1  and  C_2
REMARK    2  A    between atoms: C_5  and  C_9
REMARK    3  A    between atoms: C_6  and  C_8
REMARK    4  A    between atoms: C_9  and  C_10
REMARK    5  A    between atoms: C_10  and  C_12
REMARK    6  A    between atoms: C_10  and  N_13
REMARK    7  A    between atoms: N_16  and  C_17
REMARK                            x       y       z     vdW  Elec       q    Type
REMARK                         _______ _______ _______ _____ _____    ______ ____
ROOT
ATOM      1  N   UNL     1      -2.143  -4.420  -1.074  0.00  0.00    -0.297 N 
ATOM      2  C   UNL     1      -3.484  -4.311  -0.997  0.00  0.00    +0.300 C 
ATOM      3  O   UNL     1      -4.053  -4.532   0.055  0.00  0.00    -0.253 OA
ATOM      4  N   UNL     1      -4.196  -3.958  -2.086  0.00  0.00    -0.293 N 
ATOM      5  H   UNL     1      -1.690  -4.245  -1.914  0.00  0.00    +0.151 HD
ATOM      6  H   UNL     1      -3.742  -3.782  -2.925  0.00  0.00    +0.151 HD
ENDROOT
BRANCH   4   7
ATOM      7  C   UNL     1      -5.653  -3.839  -2.002  0.00  0.00    +0.106 C 
ATOM      8  C   UNL     1      -6.141  -2.865  -3.072  0.00  0.00    +0.027 C 
ATOM      9  C   UNL     1      -7.673  -2.930  -3.117  0.00  0.00    +0.008 C 
ATOM     10  C   UNL     1      -8.077  -4.290  -3.682  0.00  0.00    +0.054 C 
ATOM     11  C   UNL     1      -7.372  -5.403  -2.949  0.00  0.00    +0.024 A 
ATOM     12  C   UNL     1      -6.274  -5.198  -2.196  0.00  0.00    -0.008 A 
ATOM     13  C   UNL     1      -5.659  -6.289  -1.549  0.00  0.00    +0.012 A 
ATOM     14  C   UNL     1      -6.178  -7.539  -1.685  0.00  0.00    +0.070 A 
ATOM     15  C   UNL     1      -7.329  -7.717  -2.472  0.00  0.00    +0.249 A 
ATOM     16  O   UNL     1      -7.814  -8.829  -2.605  0.00  0.00    -0.268 OA
ATOM     17  N   UNL     1      -7.892  -6.660  -3.075  0.00  0.00    -0.326 N 
ATOM     18  H   UNL     1      -8.688  -6.791  -3.615  0.00  0.00    +0.169 HD
ENDBRANCH   4   7
BRANCH   1  19
ATOM     19  C   UNL     1      -1.370  -4.804   0.109  0.00  0.00    +0.076 C 
ATOM     20  C   UNL     1      -1.341  -6.330   0.226  0.00  0.00    +0.028 C 
BRANCH  19  21
ATOM     21  C   UNL     1       0.059  -4.275  -0.021  0.00  0.00    +0.057 C 
BRANCH  21  26
ATOM     22  C   UNL     1      -0.018   1.503   0.010  0.00  0.00    +0.044 C 
ATOM     23  C   UNL     1       0.002  -0.004   0.002  0.00  0.00    -0.050 A 
ATOM     24  C   UNL     1       0.006  -0.689  -1.199  0.00  0.00    +0.003 A 
ATOM     25  C   UNL     1       0.025  -2.071  -1.207  0.00  0.00    +0.004 A 
ATOM     26  C   UNL     1       0.040  -2.768  -0.013  0.00  0.00    -0.043 A 
ATOM     27  C   UNL     1       0.037  -2.084   1.188  0.00  0.00    -0.047 A 
ATOM     28  C   UNL     1       0.023  -0.702   1.195  0.00  0.00    +0.007 A 
ATOM     29  C   UNL     1       0.054  -2.845   2.489  0.00  0.00    +0.044 C 
ENDBRANCH  21  26
ENDBRANCH  19  21
ENDBRANCH   1  19
TORSDOF 4
