REMARK  Name = ZINC33521575
REMARK  10 active torsions:
REMARK  status: ('A' for Active; 'I' for Inactive)
REMARK    1  A    between atoms: C_1  and  O_2
REMARK    2  A    between atoms: O_2  and  C_3
REMARK    3  A    between atoms: C_5  and  N_19
REMARK    4  A    between atoms: C_6  and  N_11
REMARK    5  A    between atoms: C_8  and  O_9
REMARK    6  A    between atoms: O_9  and  C_10
REMARK    7  A    between atoms: C_12  and  C_14
REMARK    8  A    between atoms: C_20  and  C_22
REMARK    9  A    between atoms: C_22  and  C_23
REMARK   10  A    between atoms: C_23  and  N_24
REMARK                            x       y       z     vdW  Elec       q    Type
REMARK                         _______ _______ _______ _____ _____    ______ ____
ROOT
ATOM      1  C   UNL     1       0.292  -4.211  -0.022  0.00  0.00    +0.163 A 
ATOM      2  C   UNL     1       0.167  -2.832  -0.004  0.00  0.00    +0.074 A 
ATOM      3  C   UNL     1       0.723  -2.071  -1.022  0.00  0.00    +0.059 A 
ATOM      4  C   UNL     1       1.418  -2.696  -2.057  0.00  0.00    +0.059 A 
ATOM      5  C   UNL     1       1.547  -4.077  -2.070  0.00  0.00    +0.074 A 
ATOM      6  C   UNL     1       0.985  -4.834  -1.055  0.00  0.00    +0.163 A 
ENDROOT
BRANCH   4   7
ATOM      7  N   UNL     1       1.986  -1.928  -3.083  0.00  0.00    -0.277 N 
ATOM      8  C   UNL     1       2.024  -2.409  -4.342  0.00  0.00    +0.284 C 
ATOM      9  O   UNL     1       1.639  -3.540  -4.573  0.00  0.00    -0.266 OA
ATOM     10  H   UNL     1       2.401  -0.934  -2.861  0.00  0.00    +0.155 HD
BRANCH   8  11
ATOM     11  C   UNL     1       2.528  -1.568  -5.432  0.00  0.00    +0.189 A 
ATOM     12  C   UNL     1       2.620  -1.929  -6.746  0.00  0.00    +0.054 A 
ATOM     13  C   UNL     1       3.153  -0.825  -7.431  0.00  0.00    +0.042 A 
ATOM     14  C   UNL     1       3.359   0.148  -6.517  0.00  0.00    +0.196 A 
ATOM     15  O   UNL     1       2.977  -0.301  -5.314  0.00  0.00    -0.458 OA
ENDBRANCH   8  11
ENDBRANCH   4   7
BRANCH   3  16
ATOM     16  N   UNL     1       0.592  -0.675  -1.007  0.00  0.00    -0.284 N 
ATOM     17  C   UNL     1       0.597  -0.010   0.166  0.00  0.00    +0.215 C 
ATOM     18  O   UNL     1       0.634  -0.625   1.211  0.00  0.00    -0.276 OA
ATOM     19  H   UNL     1       0.485  -0.122  -1.952  0.00  0.00    +0.155 HD
BRANCH  17  20
ATOM     20  C   UNL     1       0.558   1.496   0.178  0.00  0.00    +0.076 C 
BRANCH  20  21
ATOM     21  C   UNL     1       0.573   1.995   1.624  0.00  0.00    -0.077 C 
BRANCH  21  22
ATOM     22  N   UNL     1       0.535   3.463   1.636  0.00  0.00    +0.378 N 
ATOM     23  H   UNL     1       0.545   3.822   2.676  0.00  0.00    -0.090 HD
ATOM     24  H   UNL     1      -0.382   3.810   1.138  0.00  0.00    -0.090 HD
ATOM     25  H   UNL     1       1.413   3.857   1.104  0.00  0.00    -0.090 HD
ENDBRANCH  21  22
ENDBRANCH  20  21
ENDBRANCH  17  20
ENDBRANCH   3  16
BRANCH   1  27
ATOM     26  C   UNL     1      -0.957  -4.252   2.002  0.00  0.00    +0.277 C 
ATOM     27  O   UNL     1      -0.259  -4.957   0.973  0.00  0.00    -0.491 OA
ENDBRANCH   1  27
BRANCH   6  28
ATOM     28  O   UNL     1       1.111  -6.189  -1.069  0.00  0.00    -0.491 OA
ATOM     29  C   UNL     1       1.835  -6.762  -2.160  0.00  0.00    +0.277 C 
ENDBRANCH   6  28
TORSDOF 8
