REMARK  Name = ZINC37785760
REMARK  4 active torsions:
REMARK  status: ('A' for Active; 'I' for Inactive)
REMARK    1  A    between atoms: C_1  and  N_2
REMARK    2  A    between atoms: C_4  and  N_9
REMARK    3  A    between atoms: N_9  and  C_10
REMARK    4  A    between atoms: C_10  and  C_11
REMARK                            x       y       z     vdW  Elec       q    Type
REMARK                         _______ _______ _______ _____ _____    ______ ____
ROOT
ATOM      1  C   UNL     1      -2.395  -4.215  -0.009  0.00  0.00    +0.137 C 
ENDROOT
BRANCH   1   2
ATOM      2  C   UNL     1      -3.817  -4.715  -0.004  0.00  0.00    -0.027 A 
ATOM      3  C   UNL     1      -4.463  -4.945   1.197  0.00  0.00    +0.009 A 
ATOM      4  C   UNL     1      -5.768  -5.403   1.209  0.00  0.00    +0.050 A 
ATOM      5  C   UNL     1      -6.426  -5.631   0.012  0.00  0.00    +0.162 A 
ATOM      6  C   UNL     1      -5.778  -5.400  -1.193  0.00  0.00    +0.162 A 
ATOM      7  C   UNL     1      -4.474  -4.937  -1.201  0.00  0.00    +0.054 A 
ATOM      8  O   UNL     1      -6.437  -5.627  -2.366  0.00  0.00    -0.488 OA
ATOM      9  C   UNL     1      -6.729  -6.994  -2.665  0.00  0.00    +0.232 C 
ATOM     10  C   UNL     1      -8.019  -7.429  -1.987  0.00  0.00    +0.082 C 
ATOM     11  C   UNL     1      -7.909  -7.413  -0.470  0.00  0.00    +0.232 C 
ATOM     12  O   UNL     1      -7.714  -6.082   0.010  0.00  0.00    -0.488 OA
ENDBRANCH   1   2
BRANCH   1  13
ATOM     13  N   UNL     1      -2.392  -2.750  -0.001  0.00  0.00    -0.339 N 
ATOM     14  H   UNL     1      -3.232  -2.264   0.006  0.00  0.00    +0.146 HD
BRANCH  13  18
ATOM     15  C   UNL     1      -0.018   1.461   0.010  0.00  0.00    +0.152 C 
ATOM     16  N   UNL     1       0.002  -0.004   0.002  0.00  0.00    -0.316 N 
ATOM     17  C   UNL     1      -1.171  -0.692   0.004  0.00  0.00    +0.111 A 
ATOM     18  C   UNL     1      -1.176  -2.051  -0.003  0.00  0.00    +0.044 A 
ATOM     19  C   UNL     1       0.041  -2.755  -0.013  0.00  0.00    +0.029 A 
ATOM     20  C   UNL     1       1.214  -2.058  -0.015  0.00  0.00    +0.072 A 
ATOM     21  C   UNL     1       1.181  -0.653  -0.013  0.00  0.00    +0.251 A 
ATOM     22  O   UNL     1       2.225  -0.020  -0.020  0.00  0.00    -0.268 OA
ENDBRANCH  13  18
ENDBRANCH   1  13
TORSDOF 3
