REMARK  Name = ZINC62176449
REMARK  5 active torsions:
REMARK  status: ('A' for Active; 'I' for Inactive)
REMARK    1  A    between atoms: C_1  and  C_2
REMARK    2  A    between atoms: C_2  and  O_3
REMARK    3  A    between atoms: O_3  and  C_4
REMARK    4  A    between atoms: C_12  and  N_17
REMARK    5  A    between atoms: C_14  and  O_16
REMARK                            x       y       z     vdW  Elec       q    Type
REMARK                         _______ _______ _______ _____ _____    ______ ____
ROOT
ATOM      1  C   UNL     1       0.777  -1.811  -1.336  0.00  0.00    +0.162 A 
ATOM      2  C   UNL     1       0.243  -2.665  -0.387  0.00  0.00    +0.049 A 
ATOM      3  C   UNL     1       0.350  -4.034  -0.554  0.00  0.00    +0.004 A 
ATOM      4  C   UNL     1       0.987  -4.546  -1.667  0.00  0.00    +0.010 A 
ATOM      5  C   UNL     1       1.523  -3.697  -2.622  0.00  0.00    +0.028 A 
ATOM      6  C   UNL     1       1.418  -2.328  -2.462  0.00  0.00    +0.168 A 
ATOM      7  O   UNL     1       1.935  -1.459  -3.371  0.00  0.00    -0.486 OA
ATOM      8  C   UNL     1       2.252  -1.961  -4.670  0.00  0.00    +0.251 C 
ATOM      9  C   UNL     1       3.077  -3.244  -4.505  0.00  0.00    +0.128 C 
ATOM     10  C   UNL     1       2.205  -4.298  -3.825  0.00  0.00    +0.168 C 
ENDROOT
BRANCH   9  11
ATOM     11  N   UNL     1       3.509  -3.728  -5.823  0.00  0.00    -0.289 NA
ATOM     12  C   UNL     1       4.229  -5.004  -5.706  0.00  0.00    +0.113 C 
ATOM     13  C   UNL     1       4.607  -5.501  -7.104  0.00  0.00    +0.175 C 
ATOM     14  O   UNL     1       5.384  -4.499  -7.766  0.00  0.00    -0.377 OA
ATOM     15  C   UNL     1       4.712  -3.244  -7.899  0.00  0.00    +0.175 C 
ATOM     16  C   UNL     1       4.335  -2.724  -6.509  0.00  0.00    +0.113 C 
ENDBRANCH   9  11
BRANCH  10  17
ATOM     17  O   UNL     1       1.219  -4.752  -4.754  0.00  0.00    -0.385 OA
ATOM     18  H   UNL     1       0.623  -5.425  -4.397  0.00  0.00    +0.210 HD
ENDBRANCH  10  17
BRANCH   1  19
ATOM     19  O   UNL     1       0.671  -0.465  -1.174  0.00  0.00    -0.489 OA
BRANCH  19  21
ATOM     20  C   UNL     1      -0.019   1.526   0.010  0.00  0.00    +0.048 C 
ATOM     21  C   UNL     1       0.002  -0.004   0.002  0.00  0.00    +0.226 C 
ENDBRANCH  19  21
ENDBRANCH   1  19
TORSDOF 4
