REMARK  Name = ZINC47598187
REMARK  7 active torsions:
REMARK  status: ('A' for Active; 'I' for Inactive)
REMARK    1  A    between atoms: C_1  and  C_2
REMARK    2  A    between atoms: C_12  and  C_15
REMARK    3  A    between atoms: C_15  and  N_16
REMARK    4  A    between atoms: N_19  and  C_20
REMARK    5  A    between atoms: C_20  and  C_21
REMARK    6  A    between atoms: C_21  and  C_22
REMARK    7  A    between atoms: C_22  and  O_23
REMARK                            x       y       z     vdW  Elec       q    Type
REMARK                         _______ _______ _______ _____ _____    ______ ____
ROOT
ATOM      1  C   UNL     1       3.274  -2.149   1.783  0.00  0.00    +0.039 C 
ATOM      2  C   UNL     1       2.763  -1.746   0.398  0.00  0.00    +0.132 C 
ATOM      3  C   UNL     1       1.461  -2.497   0.095  0.00  0.00    +0.137 C 
ATOM      4  N   UNL     1       0.894  -1.957  -1.151  0.00  0.00    -0.312 N 
ATOM      5  C   UNL     1       0.744  -0.498  -1.267  0.00  0.00    +0.134 C 
ATOM      6  C   UNL     1       2.080   0.156  -0.897  0.00  0.00    +0.179 C 
ATOM      7  O   UNL     1       2.512  -0.339   0.373  0.00  0.00    -0.374 OA
ATOM      8  C   UNL     1       0.510  -2.800  -2.187  0.00  0.00    +0.099 A 
ATOM      9  C   UNL     1      -0.134  -2.274  -3.302  0.00  0.00    +0.042 A 
ATOM     10  C   UNL     1      -0.510  -3.124  -4.326  0.00  0.00    +0.010 A 
ATOM     11  C   UNL     1      -0.228  -4.478  -4.200  0.00  0.00    -0.014 A 
ATOM     12  C   UNL     1       0.415  -4.933  -3.066  0.00  0.00    +0.089 A 
ATOM     13  N   UNL     1       0.767  -4.097  -2.107  0.00  0.00    -0.349 N 
ATOM     14  H   UNL     1       1.221  -4.442  -1.322  0.00  0.00    +0.167 HD
ENDROOT
BRANCH  11  15
ATOM     15  C   UNL     1      -0.619  -5.442  -5.290  0.00  0.00    +0.142 C 
BRANCH  15  16
ATOM     16  N   UNL     1       0.475  -5.557  -6.257  0.00  0.00    -0.295 N 
ATOM     17  C   UNL     1       0.349  -6.369  -7.325  0.00  0.00    +0.300 C 
ATOM     18  O   UNL     1      -0.674  -7.006  -7.487  0.00  0.00    -0.253 OA
ATOM     19  N   UNL     1       1.356  -6.474  -8.215  0.00  0.00    -0.299 N 
ATOM     20  H   UNL     1       1.291  -5.048  -6.128  0.00  0.00    +0.151 HD
ATOM     21  H   UNL     1       2.172  -5.966  -8.086  0.00  0.00    +0.150 HD
BRANCH  19  22
ATOM     22  C   UNL     1       1.218  -7.357  -9.376  0.00  0.00    +0.108 C 
BRANCH  22  23
ATOM     23  C   UNL     1       2.493  -7.293 -10.219  0.00  0.00    +0.046 C 
BRANCH  23  24
ATOM     24  C   UNL     1       2.350  -8.215 -11.432  0.00  0.00    +0.157 C 
BRANCH  24  25
ATOM     25  O   UNL     1       3.541  -8.155 -12.219  0.00  0.00    -0.395 OA
ATOM     26  H   UNL     1       3.520  -8.716 -13.007  0.00  0.00    +0.209 HD
ENDBRANCH  24  25
ENDBRANCH  23  24
ENDBRANCH  22  23
ENDBRANCH  19  22
ENDBRANCH  15  16
ENDBRANCH  11  15
TORSDOF 6
