REMARK  Name = ZINC28535332
REMARK  6 active torsions:
REMARK  status: ('A' for Active; 'I' for Inactive)
REMARK    1  A    between atoms: C_1  and  C_2
REMARK    2  A    between atoms: C_6  and  N_9
REMARK    3  A    between atoms: C_7  and  C_8
REMARK    4  A    between atoms: C_10  and  C_12
REMARK    5  A    between atoms: C_20  and  N_21
REMARK    6  A    between atoms: C_22  and  C_24
REMARK                            x       y       z     vdW  Elec       q    Type
REMARK                         _______ _______ _______ _____ _____    ______ ____
ROOT
ATOM      1  C   UNL     1      -1.050   7.443   0.012  0.00  0.00    +0.084 A 
ATOM      2  C   UNL     1      -2.511   7.636   0.095  0.00  0.00    +0.014 A 
ATOM      3  C   UNL     1      -3.329   8.762   0.152  0.00  0.00    +0.011 A 
ATOM      4  C   UNL     1      -4.697   8.609   0.225  0.00  0.00    +0.001 A 
ATOM      5  C   UNL     1      -5.258   7.341   0.242  0.00  0.00    +0.002 A 
ATOM      6  C   UNL     1      -4.458   6.219   0.186  0.00  0.00    +0.027 A 
ATOM      7  C   UNL     1      -3.077   6.353   0.107  0.00  0.00    +0.059 A 
ATOM      8  N   UNL     1      -2.042   5.430   0.046  0.00  0.00    -0.263 N 
ATOM      9  C   UNL     1      -0.838   6.072  -0.014  0.00  0.00    +0.117 A 
ATOM     10  C   UNL     1      -2.203   4.092   0.040  0.00  0.00    +0.271 C 
ATOM     11  O   UNL     1      -2.243   3.489  -1.016  0.00  0.00    -0.266 OA
ENDROOT
BRANCH  10  12
ATOM     12  C   UNL     1      -2.329   3.365   1.304  0.00  0.00    +0.077 A 
ATOM     13  C   UNL     1      -2.588   2.018   1.516  0.00  0.00    +0.021 A 
ATOM     14  C   UNL     1      -2.659   1.594   2.819  0.00  0.00    +0.008 A 
ATOM     15  C   UNL     1      -2.468   2.492   3.821  0.00  0.00    +0.046 A 
ATOM     16  S   UNL     1      -2.185   3.977   2.973  0.00  0.00    -0.092 S 
ENDBRANCH  10  12
BRANCH   1  18
ATOM     17  N   UNL     1       0.506   8.957   1.111  0.00  0.00    -0.281 N 
ATOM     18  C   UNL     1      -0.029   8.487  -0.033  0.00  0.00    +0.252 C 
ATOM     19  O   UNL     1       0.338   8.934  -1.105  0.00  0.00    -0.270 OA
ATOM     20  H   UNL     1       0.112   8.621   2.081  0.00  0.00    +0.155 HD
BRANCH  17  26
ATOM     21  C   UNL     1       3.066  12.576   3.236  0.00  0.00    +0.044 C 
ATOM     22  C   UNL     1       2.826  11.639   2.081  0.00  0.00    -0.046 A 
ATOM     23  C   UNL     1       3.654  11.682   0.974  0.00  0.00    +0.004 A 
ATOM     24  C   UNL     1       3.438  10.823  -0.088  0.00  0.00    +0.002 A 
ATOM     25  C   UNL     1       2.395   9.918  -0.046  0.00  0.00    +0.023 A 
ATOM     26  C   UNL     1       1.563   9.872   1.065  0.00  0.00    +0.037 A 
ATOM     27  C   UNL     1       1.779  10.740   2.127  0.00  0.00    -0.026 A 
ATOM     28  C   UNL     1       0.874  10.698   3.332  0.00  0.00    +0.046 C 
ENDBRANCH  17  26
ENDBRANCH   1  18
BRANCH   9  29
ATOM     29  N   UNL     1       0.389   5.458  -0.088  0.00  0.00    -0.343 N 
ATOM     30  H   UNL     1       0.454   4.360  -0.103  0.00  0.00    +0.144 HD
ATOM     31  H   UNL     1       1.306   6.064  -0.132  0.00  0.00    +0.144 HD
ENDBRANCH   9  29
TORSDOF 4
