REMARK  Name = ZINC53069309
REMARK  9 active torsions:
REMARK  status: ('A' for Active; 'I' for Inactive)
REMARK    1  A    between atoms: C_6  and  O_7
REMARK    2  A    between atoms: O_7  and  C_8
REMARK    3  A    between atoms: C_8  and  C_9
REMARK    4  A    between atoms: C_9  and  C_11
REMARK    5  A    between atoms: C_9  and  O_20
REMARK    6  A    between atoms: C_11  and  N_12
REMARK    7  A    between atoms: N_12  and  C_13
REMARK    8  A    between atoms: C_13  and  C_18
REMARK    9  A    between atoms: C_18  and  O_19
REMARK                            x       y       z     vdW  Elec       q    Type
REMARK                         _______ _______ _______ _____ _____    ______ ____
ROOT
ATOM      1  C   UNL     1      -2.475  -2.731   0.011  0.00  0.00    +0.135 C 
ENDROOT
BRANCH   1   2
ATOM      2  O   UNL     1      -3.150  -2.390  -1.202  0.00  0.00    -0.390 OA
ATOM      3  H   UNL     1      -2.708  -2.708  -2.001  0.00  0.00    +0.210 HD
ENDBRANCH   1   2
BRANCH   1   4
ATOM      4  C   UNL     1      -1.070  -2.126   0.001  0.00  0.00    +0.258 C 
BRANCH   4   5
ATOM      5  O   UNL     1      -1.165  -0.700   0.009  0.00  0.00    -0.489 OA
BRANCH   5  11
ATOM      6  C   UNL     1      -0.017   1.383   0.010  0.00  0.00    +0.047 A 
ATOM      7  C   UNL     1       1.171   2.090   0.002  0.00  0.00    +0.025 A 
ATOM      8  C   UNL     1       2.378   1.415  -0.013  0.00  0.00    +0.059 A 
ATOM      9  C   UNL     1       2.400   0.030  -0.022  0.00  0.00    +0.063 A 
ATOM     10  C   UNL     1       1.214  -0.680  -0.014  0.00  0.00    +0.067 A 
ATOM     11  C   UNL     1       0.002  -0.004   0.002  0.00  0.00    +0.122 A 
ATOM     12 CL   UNL     1       3.916  -0.814  -0.042  0.00  0.00    -0.082 Cl
ATOM     13 CL   UNL     1       3.868   2.305  -0.024  0.00  0.00    -0.082 Cl
ENDBRANCH   5  11
ENDBRANCH   4   5
ENDBRANCH   1   4
BRANCH   1  14
ATOM     14  C   UNL     1      -2.375  -4.253   0.128  0.00  0.00    -0.047 C 
BRANCH  14  15
ATOM     15  N   UNL     1      -3.724  -4.834   0.137  0.00  0.00    +0.386 N 
ATOM     16  H   UNL     1      -4.241  -4.470   0.924  0.00  0.00    -0.085 HD
ATOM     17  H   UNL     1      -4.200  -4.593  -0.719  0.00  0.00    -0.085 HD
BRANCH  15  18
ATOM     18  C   UNL     1      -3.627  -6.296   0.249  0.00  0.00    -0.045 C 
ATOM     19  C   UNL     1      -2.902  -6.872  -0.980  0.00  0.00    -0.010 C 
ATOM     20  C   UNL     1      -3.897  -7.825  -1.672  0.00  0.00    -0.001 C 
ATOM     21  C   UNL     1      -5.288  -7.320  -1.214  0.00  0.00    -0.001 C 
ATOM     22  C   UNL     1      -5.038  -6.919   0.261  0.00  0.00    -0.010 C 
BRANCH  18  23
ATOM     23  C   UNL     1      -2.876  -6.674   1.528  0.00  0.00    +0.143 C 
BRANCH  23  24
ATOM     24  O   UNL     1      -2.789  -8.097   1.625  0.00  0.00    -0.396 OA
ATOM     25  H   UNL     1      -2.324  -8.410   2.413  0.00  0.00    +0.209 HD
ENDBRANCH  23  24
ENDBRANCH  18  23
ENDBRANCH  15  18
ENDBRANCH  14  15
ENDBRANCH   1  14
TORSDOF 9
