REMARK  Name = ZINC09126378
REMARK  8 active torsions:
REMARK  status: ('A' for Active; 'I' for Inactive)
REMARK    1  A    between atoms: C_1  and  C_2
REMARK    2  A    between atoms: C_2  and  C_4
REMARK    3  A    between atoms: C_2  and  N_20
REMARK    4  A    between atoms: N_6  and  C_7
REMARK    5  A    between atoms: C_7  and  C_8
REMARK    6  A    between atoms: N_10  and  C_11
REMARK    7  A    between atoms: N_23  and  C_26
REMARK    8  A    between atoms: C_29  and  O_32
REMARK                            x       y       z     vdW  Elec       q    Type
REMARK                         _______ _______ _______ _____ _____    ______ ____
ROOT
ATOM      1  C   UNL     1       1.077  -0.038  -1.337  0.00  0.00    +0.200 C 
ATOM      2  O   UNL     1       2.134  -0.621  -1.452  0.00  0.00    -0.278 OA
ATOM      3  N   UNL     1       0.404   0.361  -2.435  0.00  0.00    -0.308 N 
ATOM      4  H   UNL     1      -0.442   0.827  -2.343  0.00  0.00    +0.149 HD
ENDROOT
BRANCH   1   6
ATOM      5  C   UNL     1       0.870   1.668   0.450  0.00  0.00    -0.004 C 
ATOM      6  C   UNL     1       0.514   0.240   0.033  0.00  0.00    +0.016 C 
BRANCH   6   7
ATOM      7  N   UNL     1       1.085  -0.709   0.998  0.00  0.00    +0.389 N 
ATOM      8  C   UNL     1       0.757  -2.080   0.587  0.00  0.00    -0.059 C 
ATOM      9  C   UNL     1       1.448  -3.073   1.528  0.00  0.00    +0.086 C 
ATOM     10  N   UNL     1       1.068  -2.746   2.911  0.00  0.00    -0.333 N 
ATOM     11  C   UNL     1       1.211  -1.352   3.359  0.00  0.00    +0.086 C 
ATOM     12  C   UNL     1       0.532  -0.440   2.332  0.00  0.00    -0.059 C 
ATOM     13  H   UNL     1       2.088  -0.599   1.023  0.00  0.00    -0.081 HD
BRANCH  10  14
ATOM     14  C   UNL     1       0.584  -3.734   3.777  0.00  0.00    +0.030 A 
ATOM     15  C   UNL     1       0.582  -5.065   3.380  0.00  0.00    +0.026 A 
ATOM     16  C   UNL     1       0.104  -6.038   4.235  0.00  0.00    +0.047 A 
ATOM     17  C   UNL     1      -0.373  -5.688   5.489  0.00  0.00    +0.117 A 
ATOM     18  C   UNL     1      -0.372  -4.358   5.886  0.00  0.00    +0.047 A 
ATOM     19  C   UNL     1       0.111  -3.384   5.034  0.00  0.00    +0.026 A 
BRANCH  17  20
ATOM     20  O   UNL     1      -0.843  -6.647   6.331  0.00  0.00    -0.507 OA
ATOM     21  H   UNL     1      -0.169  -7.026   6.911  0.00  0.00    +0.292 HD
ENDBRANCH  17  20
ENDBRANCH  10  14
ENDBRANCH   6   7
ENDBRANCH   1   6
BRANCH   3  22
ATOM     22  C   UNL     1       0.951   0.091  -3.767  0.00  0.00    +0.200 C 
BRANCH  22  23
ATOM     23  C   UNL     1       0.014   0.635  -4.815  0.00  0.00    +0.234 C 
ATOM     24  O   UNL     1      -1.010   1.194  -4.481  0.00  0.00    -0.274 OA
ATOM     25  N   UNL     1       0.314   0.501  -6.122  0.00  0.00    -0.282 N 
ATOM     26  H   UNL     1       1.091  -0.012  -6.391  0.00  0.00    +0.155 HD
BRANCH  25  27
ATOM     27  C   UNL     1      -0.498   1.104  -7.092  0.00  0.00    +0.072 A 
ATOM     28  C   UNL     1      -1.358   2.134  -6.737  0.00  0.00    +0.029 A 
ATOM     29  C   UNL     1      -2.158   2.728  -7.694  0.00  0.00    +0.043 A 
ATOM     30  C   UNL     1      -2.105   2.297  -9.008  0.00  0.00    +0.161 A 
ATOM     31  C   UNL     1      -1.248   1.268  -9.368  0.00  0.00    +0.195 A 
ATOM     32  C   UNL     1      -0.440   0.674  -8.413  0.00  0.00    +0.182 A 
ATOM     33  F   UNL     1       0.400  -0.324  -8.763  0.00  0.00    -0.200 F 
ATOM     34  F   UNL     1      -1.198   0.848 -10.651  0.00  0.00    -0.199 F 
ATOM     35  F   UNL     1      -2.889   2.879  -9.941  0.00  0.00    -0.202 F 
ENDBRANCH  25  27
ENDBRANCH  22  23
ENDBRANCH   3  22
TORSDOF 7
