REMARK  Name = ZINC63097096
REMARK  4 active torsions:
REMARK  status: ('A' for Active; 'I' for Inactive)
REMARK    1  A    between atoms: C_1  and  S_2
REMARK    2  A    between atoms: S_2  and  N_5
REMARK    3  A    between atoms: N_5  and  N_6
REMARK    4  A    between atoms: C_7  and  C_18
REMARK                            x       y       z     vdW  Elec       q    Type
REMARK                         _______ _______ _______ _____ _____    ______ ____
ROOT
ATOM      1  N   UNL     1       2.000   0.038  -1.431  0.00  0.00    -0.189 N 
ATOM      2  C   UNL     1       2.197   1.423  -1.860  0.00  0.00    +0.222 C 
ATOM      3  N   UNL     1       3.452   1.550  -2.610  0.00  0.00    -0.321 N 
ATOM      4  C   UNL     1       4.588   0.919  -2.115  0.00  0.00    +0.041 A 
ATOM      5  C   UNL     1       5.860   1.416  -2.340  0.00  0.00    +0.024 A 
ATOM      6  C   UNL     1       6.955   0.752  -1.822  0.00  0.00    +0.002 A 
ATOM      7  C   UNL     1       6.790  -0.407  -1.079  0.00  0.00    +0.001 A 
ATOM      8  C   UNL     1       5.530  -0.916  -0.846  0.00  0.00    +0.015 A 
ATOM      9  C   UNL     1       4.417  -0.258  -1.364  0.00  0.00    +0.059 A 
ATOM     10  C   UNL     1       3.048  -0.762  -1.148  0.00  0.00    +0.265 C 
ATOM     11  O   UNL     1       2.866  -1.886  -0.723  0.00  0.00    -0.268 OA
ATOM     12  H   UNL     1       3.489   2.062  -3.433  0.00  0.00    +0.148 HD
ENDROOT
BRANCH   2  13
ATOM     13  C   UNL     1       2.251   2.332  -0.631  0.00  0.00    +0.215 C 
ATOM     14  N   UNL     1       0.938   2.372   0.025  0.00  0.00    -0.361 N 
ATOM     15  C   UNL     1       0.529   3.608   0.005  0.00  0.00    +0.060 A 
ATOM     16  C   UNL     1      -0.688   4.266   0.499  0.00  0.00    +0.027 A 
ATOM     17  C   UNL     1      -0.840   5.595   0.333  0.00  0.00    +0.002 A 
ATOM     18  C   UNL     1       0.126   6.395  -0.302  0.00  0.00    +0.002 A 
ATOM     19  C   UNL     1       1.278   5.893  -0.791  0.00  0.00    +0.027 A 
ATOM     20  C   UNL     1       1.553   4.455  -0.666  0.00  0.00    +0.060 A 
ATOM     21  N   UNL     1       2.554   3.710  -1.036  0.00  0.00    -0.361 N 
ATOM     22  H   UNL     1       0.462   1.616   0.403  0.00  0.00    +0.162 HD
ATOM     23  H   UNL     1       3.355   4.011  -1.494  0.00  0.00    +0.162 HD
ENDBRANCH   2  13
BRANCH   1  24
ATOM     24  N   UNL     1       0.698  -0.464  -1.306  0.00  0.00    -0.108 NA
ATOM     25  H   UNL     1       0.269  -0.489  -0.437  0.00  0.00    +0.171 HD
BRANCH  24  27
ATOM     26  C   UNL     1       0.977  -2.285  -3.352  0.00  0.00    +0.216 C 
ATOM     27  S   UNL     1      -0.108  -1.016  -2.644  0.00  0.00    +0.042 S 
ATOM     28  O   UNL     1      -0.181   0.106  -3.512  0.00  0.00    -0.157 OA
ATOM     29  O   UNL     1      -1.292  -1.614  -2.132  0.00  0.00    -0.157 OA
ENDBRANCH  24  27
ENDBRANCH   1  24
TORSDOF 3
