REMARK  Name = ZINC02226233
REMARK  4 active torsions:
REMARK  status: ('A' for Active; 'I' for Inactive)
REMARK    1  A    between atoms: C_4  and  N_7
REMARK    2  A    between atoms: N_7  and  N_8
REMARK    3  A    between atoms: C_9  and  C_10
REMARK    4  A    between atoms: C_9  and  C_12
REMARK                            x       y       z     vdW  Elec       q    Type
REMARK                         _______ _______ _______ _____ _____    ______ ____
ROOT
ATOM      1  N   UNL     1       4.725  -1.109  -0.138  0.00  0.00    -0.168 NA
ATOM      2  C   UNL     1       6.013  -1.360  -0.062  0.00  0.00    +0.195 C 
ENDROOT
BRANCH   2   3
ATOM      3  C   UNL     1       6.984  -0.249  -0.086  0.00  0.00    +0.131 C 
ATOM      4  N   UNL     1       6.544   1.048  -0.250  0.00  0.00    -0.315 N 
ATOM      5  C   UNL     1       5.120   1.301  -0.255  0.00  0.00    +0.106 C 
ATOM      6  C   UNL     1       4.571   1.181  -1.692  0.00  0.00    +0.019 C 
ATOM      7  C   UNL     1       5.023   2.318  -2.508  0.00  0.00    +0.002 C 
ATOM      8  C   UNL     1       6.536   2.401  -2.687  0.00  0.00    +0.002 C 
ATOM      9  C   UNL     1       7.139   3.127  -1.509  0.00  0.00    +0.019 C 
ATOM     10  C   UNL     1       7.545   2.119  -0.418  0.00  0.00    +0.106 C 
ATOM     11  H   UNL     1       8.966   0.174   0.128  0.00  0.00    +0.157 HD
ATOM     12  N   UNL     1       8.266  -0.563   0.049  0.00  0.00    -0.385 N 
ATOM     13  H   UNL     1       8.553  -1.549   0.073  0.00  0.00    +0.157 HD
ENDBRANCH   2   3
BRANCH   1  14
ATOM     14  N   UNL     1       3.877  -2.081  -0.117  0.00  0.00    -0.236 N 
ATOM     15  H   UNL     1       4.189  -2.996  -0.046  0.00  0.00    +0.174 HD
BRANCH  14  19
ATOM     16  C   UNL     1      -0.203  -1.287  -0.356  0.00  0.00    +0.000 A 
ATOM     17  C   UNL     1       0.706  -0.244  -0.378  0.00  0.00    +0.002 A 
ATOM     18  C   UNL     1       2.060  -0.504  -0.299  0.00  0.00    +0.025 A 
ATOM     19  C   UNL     1       2.509  -1.815  -0.197  0.00  0.00    +0.048 A 
ATOM     20  C   UNL     1       1.594  -2.860  -0.175  0.00  0.00    +0.025 A 
ATOM     21  C   UNL     1       0.241  -2.593  -0.254  0.00  0.00    +0.002 A 
ENDBRANCH  14  19
ENDBRANCH   1  14
BRANCH   2  22
ATOM     22  C   UNL     1       6.475  -2.712   0.042  0.00  0.00    +0.124 C 
ATOM     23  N   UNL     1       6.841  -3.784   0.125  0.00  0.00    -0.189 NA
ENDBRANCH   2  22
TORSDOF 4
