REMARK  Name = ZINC12887487
REMARK  7 active torsions:
REMARK  status: ('A' for Active; 'I' for Inactive)
REMARK    1  A    between atoms: C_1  and  C_2
REMARK    2  A    between atoms: C_16  and  C_18
REMARK    3  A    between atoms: C_18  and  C_19
REMARK    4  A    between atoms: N_31  and  C_34
REMARK    5  A    between atoms: C_34  and  C_35
REMARK    6  A    between atoms: C_35  and  O_36
REMARK    7  A    between atoms: O_36  and  C_37
REMARK                            x       y       z     vdW  Elec       q    Type
REMARK                         _______ _______ _______ _____ _____    ______ ____
ROOT
ATOM      1  C   UNL     1      -2.879  -0.119   0.032  0.00  0.00    +0.045 C 
ATOM      2  C   UNL     1      -2.519   1.344   0.035  0.00  0.00    -0.029 A 
ATOM      3  C   UNL     1      -3.515   2.298   0.048  0.00  0.00    +0.005 A 
ATOM      4  C   UNL     1      -3.195   3.643   0.050  0.00  0.00    +0.001 A 
ATOM      5  C   UNL     1      -1.867   4.034   0.039  0.00  0.00    +0.004 A 
ATOM      6  C   UNL     1      -0.869   3.086   0.026  0.00  0.00    -0.027 A 
ATOM      7  C   UNL     1      -1.181   1.729   0.017  0.00  0.00    +0.039 A 
ATOM      8  N   UNL     1      -0.011   0.966   0.007  0.00  0.00    -0.286 N 
ATOM      9  C   UNL     1       1.096   1.733   0.001  0.00  0.00    +0.211 C 
ATOM     10  O   UNL     1       2.245   1.345  -0.013  0.00  0.00    -0.277 OA
ATOM     11  C   UNL     1       0.631   3.163   0.013  0.00  0.00    +0.050 C 
ATOM     12  C   UNL     1       1.145   3.930  -1.211  0.00  0.00    +0.088 C 
ATOM     13  C   UNL     1       2.390   4.705  -0.694  0.00  0.00    +0.073 C 
ATOM     14  C   UNL     1       2.515   4.304   0.792  0.00  0.00    -0.053 C 
ATOM     15  C   UNL     1       3.541   4.103  -1.468  0.00  0.00    +0.224 C 
ATOM     16  O   UNL     1       4.702   4.437  -1.369  0.00  0.00    -0.275 OA
ATOM     17  N   UNL     1       3.055   3.135  -2.280  0.00  0.00    -0.240 N 
ATOM     18  C   UNL     1       1.730   2.962  -2.213  0.00  0.00    +0.225 C 
ATOM     19  O   UNL     1       1.097   2.153  -2.857  0.00  0.00    -0.275 OA
ATOM     20  H   UNL     1       0.002  -0.004   0.002  0.00  0.00    +0.155 HD
ATOM     21  N   UNL     1       1.163   3.880   1.159  0.00  0.00    +0.394 N 
ATOM     22  H   UNL     1       1.194   3.264   1.980  0.00  0.00    -0.083 HD
ATOM     23  H   UNL     1       0.579   4.699   1.368  0.00  0.00    -0.083 HD
ENDROOT
BRANCH  14  24
ATOM     24  C   UNL     1       2.973   5.499   1.631  0.00  0.00    +0.022 C 
BRANCH  24  25
ATOM     25  C   UNL     1       3.134   5.072   3.067  0.00  0.00    -0.024 A 
ATOM     26  C   UNL     1       2.222   5.197   4.044  0.00  0.00    +0.087 A 
ATOM     27  N   UNL     1       2.721   4.696   5.215  0.00  0.00    -0.360 N 
ATOM     28  H   UNL     1       2.245   4.675   6.060  0.00  0.00    +0.165 HD
ATOM     29  C   UNL     1       4.003   4.233   5.018  0.00  0.00    +0.047 A 
ATOM     30  C   UNL     1       4.317   4.448   3.663  0.00  0.00    +0.003 A 
ATOM     31  C   UNL     1       5.568   4.072   3.171  0.00  0.00    +0.010 A 
ATOM     32  C   UNL     1       6.482   3.496   4.008  0.00  0.00    +0.001 A 
ATOM     33  C   UNL     1       6.176   3.281   5.345  0.00  0.00    +0.002 A 
ATOM     34  C   UNL     1       4.948   3.645   5.852  0.00  0.00    +0.026 A 
ENDBRANCH  24  25
ENDBRANCH  14  24
BRANCH  17  35
ATOM     35  C   UNL     1       3.914   2.346  -3.166  0.00  0.00    +0.144 C 
BRANCH  35  36
ATOM     36  C   UNL     1       4.032   3.048  -4.520  0.00  0.00    +0.179 C 
BRANCH  36  37
ATOM     37  O   UNL     1       4.708   4.296  -4.352  0.00  0.00    -0.381 OA
ATOM     38  C   UNL     1       4.872   5.036  -5.563  0.00  0.00    +0.194 C 
ENDBRANCH  36  37
ENDBRANCH  35  36
ENDBRANCH  17  35
TORSDOF 5
