REMARK  Name = ZINC09251761
REMARK  5 active torsions:
REMARK  status: ('A' for Active; 'I' for Inactive)
REMARK    1  A    between atoms: C_1  and  C_2
REMARK    2  A    between atoms: C_5  and  N_9
REMARK    3  A    between atoms: N_9  and  S_10
REMARK    4  A    between atoms: S_10  and  C_13
REMARK    5  A    between atoms: C_22  and  C_27
REMARK                            x       y       z     vdW  Elec       q    Type
REMARK                         _______ _______ _______ _____ _____    ______ ____
ROOT
ATOM      1  C   UNL     1       0.337  -6.712   0.991  0.00  0.00    +0.112 A 
ATOM      2  C   UNL     1      -0.802  -7.489   0.882  0.00  0.00    +0.031 A 
ATOM      3  C   UNL     1      -0.694  -8.825   0.562  0.00  0.00    +0.027 A 
ATOM      4  C   UNL     1       0.557  -9.407   0.344  0.00  0.00    +0.055 A 
ATOM      5  C   UNL     1       1.698  -8.629   0.454  0.00  0.00    +0.057 A 
ATOM      6  C   UNL     1       1.575  -7.274   0.774  0.00  0.00    +0.054 A 
ATOM      7  N   UNL     1       2.987  -9.114   0.257  0.00  0.00    -0.283 N 
ATOM      8  C   UNL     1       3.449 -10.286   0.685  0.00  0.00    +0.229 C 
ATOM      9  O   UNL     1       4.608 -10.579   0.484  0.00  0.00    -0.275 OA
ATOM     10  C   UNL     1       2.557 -11.256   1.417  0.00  0.00    +0.158 C 
ATOM     11  C   UNL     1       1.438 -11.659   0.492  0.00  0.00    +0.229 C 
ATOM     12  O   UNL     1       1.322 -12.822   0.169  0.00  0.00    -0.275 OA
ATOM     13  N   UNL     1       0.573 -10.762   0.025  0.00  0.00    -0.283 N 
ATOM     14  C   UNL     1       1.980 -10.585   2.665  0.00  0.00    +0.027 C 
ATOM     15  H   UNL     1       3.603  -8.549  -0.236  0.00  0.00    +0.155 HD
ATOM     16  H   UNL     1      -0.105 -11.079  -0.592  0.00  0.00    +0.155 HD
ENDROOT
BRANCH   1  17
ATOM     17  S   UNL     1       0.203  -5.003   1.401  0.00  0.00    +0.092 S 
ATOM     18  O   UNL     1       1.448  -4.623   1.970  0.00  0.00    -0.148 OA
ATOM     19  O   UNL     1      -1.030  -4.846   2.090  0.00  0.00    -0.148 OA
BRANCH  17  20
ATOM     20  N   UNL     1       0.059  -4.168  -0.023  0.00  0.00    -0.097 NA
BRANCH  20  25
ATOM     21  C   UNL     1      -0.081   1.502   0.018  0.00  0.00    +0.044 C 
ATOM     22  C   UNL     1      -0.044  -0.005   0.007  0.00  0.00    -0.049 A 
ATOM     23  C   UNL     1      -0.059  -0.704   1.200  0.00  0.00    +0.005 A 
ATOM     24  C   UNL     1      -0.025  -2.085   1.194  0.00  0.00    +0.028 A 
ATOM     25  C   UNL     1       0.025  -2.772  -0.013  0.00  0.00    +0.088 A 
ATOM     26  C   UNL     1       0.040  -2.066  -1.210  0.00  0.00    +0.043 A 
ATOM     27  C   UNL     1       0.000  -0.685  -1.196  0.00  0.00    +0.020 A 
ATOM     28 BR   UNL     1       0.107  -2.995  -2.856  0.00  0.00    -0.048 Br
ENDBRANCH  20  25
ENDBRANCH  17  20
ENDBRANCH   1  17
TORSDOF 3
