REMARK  Name = ZINC49667890
REMARK  6 active torsions:
REMARK  status: ('A' for Active; 'I' for Inactive)
REMARK    1  A    between atoms: C_1  and  C_2
REMARK    2  A    between atoms: C_2  and  C_3
REMARK    3  A    between atoms: C_9  and  N_11
REMARK    4  A    between atoms: C_14  and  C_22
REMARK    5  A    between atoms: C_18  and  C_21
REMARK    6  A    between atoms: C_22  and  C_23
REMARK                            x       y       z     vdW  Elec       q    Type
REMARK                         _______ _______ _______ _____ _____    ______ ____
ROOT
ATOM      1  N   UNL     1       1.625  -2.406  -0.018  0.00  0.00    +0.382 N 
ATOM      2  C   UNL     1       2.996  -1.897  -0.144  0.00  0.00    -0.080 C 
ATOM      3  C   UNL     1       3.367  -1.103   1.107  0.00  0.00    -0.034 C 
ATOM      4  C   UNL     1       2.911  -1.861   2.354  0.00  0.00    -0.074 C 
ATOM      5  N   UNL     1       3.839  -2.969   2.620  0.00  0.00    +0.381 N 
ATOM      6  C   UNL     1       3.590  -4.051   1.656  0.00  0.00    -0.081 C 
ATOM      7  C   UNL     1       2.080  -4.263   1.512  0.00  0.00    -0.048 C 
ATOM      8  C   UNL     1       1.648  -3.870   0.097  0.00  0.00    -0.077 C 
ATOM      9  C   UNL     1       1.744  -5.735   1.759  0.00  0.00    +0.004 C 
ATOM     10  H   UNL     1       4.789  -2.644   2.524  0.00  0.00    -0.086 HD
ATOM     11  H   UNL     1       1.195  -2.011   0.806  0.00  0.00    -0.081 HD
ATOM     12  H   UNL     1       3.693  -3.313   3.558  0.00  0.00    -0.086 HD
ENDROOT
BRANCH   1  18
ATOM     13  C   UNL     1       0.827  -0.496  -1.327  0.00  0.00    -0.025 C 
ATOM     14  C   UNL     1       0.019  -0.095  -2.563  0.00  0.00    +0.002 C 
ATOM     15  C   UNL     1      -1.413  -0.618  -2.429  0.00  0.00    +0.000 C 
ATOM     16  C   UNL     1      -1.390  -2.143  -2.307  0.00  0.00    -0.002 C 
ATOM     17  C   UNL     1      -0.583  -2.543  -1.070  0.00  0.00    -0.015 C 
ATOM     18  C   UNL     1       0.849  -2.021  -1.205  0.00  0.00    -0.065 C 
BRANCH  13  20
ATOM     19  C   UNL     1       0.269   1.632  -0.143  0.00  0.00    +0.004 C 
ATOM     20  C   UNL     1       0.179   0.106  -0.078  0.00  0.00    -0.002 C 
ENDBRANCH  13  20
ENDBRANCH   1  18
BRANCH   4  21
ATOM     21  C   UNL     1       2.894  -0.910   3.553  0.00  0.00    -0.019 C 
ATOM     22  C   UNL     1       2.320  -1.635   4.772  0.00  0.00    +0.002 C 
ENDBRANCH   4  21
TORSDOF 3
