REMARK  Name = ZINC62179794
REMARK  12 active torsions:
REMARK  status: ('A' for Active; 'I' for Inactive)
REMARK    1  A    between atoms: C_1  and  C_2
REMARK    2  A    between atoms: C_2  and  C_3
REMARK    3  A    between atoms: C_3  and  C_4
REMARK    4  A    between atoms: C_4  and  N_5
REMARK    5  A    between atoms: N_5  and  C_6
REMARK    6  A    between atoms: N_5  and  C_8
REMARK    7  A    between atoms: C_6  and  C_7
REMARK    8  A    between atoms: C_10  and  O_24
REMARK    9  A    between atoms: C_14  and  C_23
REMARK   10  A    between atoms: C_15  and  C_22
REMARK   11  A    between atoms: C_19  and  C_20
REMARK   12  A    between atoms: C_19  and  C_21
REMARK                            x       y       z     vdW  Elec       q    Type
REMARK                         _______ _______ _______ _____ _____    ______ ____
ROOT
ATOM      1  C   UNL     1      -2.364  -4.367   0.165  0.00  0.00    +0.009 C 
ATOM      2  C   UNL     1      -3.721  -5.068   0.068  0.00  0.00    +0.138 C 
ATOM      3  C   UNL     1      -4.534  -4.771   1.302  0.00  0.00    +0.021 A 
ATOM      4  C   UNL     1      -5.903  -4.981   1.265  0.00  0.00    +0.013 A 
ATOM      5  C   UNL     1      -6.678  -4.724   2.379  0.00  0.00    -0.047 A 
ATOM      6  C   UNL     1      -6.089  -4.255   3.538  0.00  0.00    -0.044 A 
ATOM      7  C   UNL     1      -4.726  -4.041   3.580  0.00  0.00    +0.049 A 
ATOM      8  C   UNL     1      -3.942  -4.298   2.460  0.00  0.00    +0.127 A 
ATOM      9  O   UNL     1      -2.606  -4.066   2.537  0.00  0.00    -0.487 OA
ATOM     10  C   UNL     1      -1.766  -4.662   1.546  0.00  0.00    +0.096 C 
ATOM     11  C   UNL     1      -0.359  -4.067   1.636  0.00  0.00    +0.054 C 
ATOM     12  C   UNL     1      -1.702  -6.174   1.768  0.00  0.00    +0.054 C 
ATOM     13  C   UNL     1      -6.934  -3.976   4.754  0.00  0.00    +0.044 C 
ATOM     14  C   UNL     1      -8.167  -4.955   2.330  0.00  0.00    +0.044 C 
ENDROOT
BRANCH   1  15
ATOM     15  N   UNL     1      -2.542  -2.918   0.001  0.00  0.00    +0.386 N 
ATOM     16  H   UNL     1      -3.298  -2.743  -0.643  0.00  0.00    -0.081 HD
BRANCH  15  17
ATOM     17  C   UNL     1      -1.303  -2.329  -0.525  0.00  0.00    -0.082 C 
ATOM     18  C   UNL     1      -1.040  -2.867  -1.933  0.00  0.00    -0.017 C 
ENDBRANCH  15  17
BRANCH  15  19
ATOM     19  C   UNL     1      -2.857  -2.313   1.302  0.00  0.00    -0.078 C 
BRANCH  19  20
ATOM     20  C   UNL     1      -3.006  -0.799   1.138  0.00  0.00    -0.019 C 
BRANCH  20  22
ATOM     21  C   UNL     1      -3.485   1.344   2.329  0.00  0.00    +0.004 C 
ATOM     22  C   UNL     1      -3.335  -0.170   2.493  0.00  0.00    -0.005 C 
ENDBRANCH  20  22
ENDBRANCH  19  20
ENDBRANCH  15  19
ENDBRANCH   1  15
BRANCH   2  23
ATOM     23  O   UNL     1      -4.419  -4.595  -1.086  0.00  0.00    -0.389 OA
ATOM     24  H   UNL     1      -5.318  -4.942  -1.171  0.00  0.00    +0.210 HD
ENDBRANCH   2  23
TORSDOF 6
