REMARK  Name = ZINC62245960
REMARK  6 active torsions:
REMARK  status: ('A' for Active; 'I' for Inactive)
REMARK    1  A    between atoms: C_1  and  C_2
REMARK    2  A    between atoms: C_5  and  N_9
REMARK    3  A    between atoms: C_6  and  C_8
REMARK    4  A    between atoms: C_10  and  C_16
REMARK    5  A    between atoms: C_11  and  C_14
REMARK    6  A    between atoms: C_14  and  N_15
REMARK                            x       y       z     vdW  Elec       q    Type
REMARK                         _______ _______ _______ _____ _____    ______ ____
ROOT
ATOM      1  N   UNL     1       0.426  -4.117  -0.264  0.00  0.00    -0.212 N 
ATOM      2  C   UNL     1       0.403  -4.755  -1.477  0.00  0.00    +0.096 A 
ATOM      3  C   UNL     1       0.512  -6.088  -1.214  0.00  0.00    +0.074 A 
ATOM      4  N   UNL     1       0.598  -6.261   0.102  0.00  0.00    -0.135 NA
ATOM      5  N   UNL     1       0.557  -5.124   0.704  0.00  0.00    -0.060 NA
ENDROOT
BRANCH   1  10
ATOM      6  C   UNL     1       0.081   1.472   0.656  0.00  0.00    +0.044 C 
ATOM      7  C   UNL     1       0.172  -0.012   0.412  0.00  0.00    -0.050 A 
ATOM      8  C   UNL     1      -0.751  -0.635  -0.408  0.00  0.00    +0.005 A 
ATOM      9  C   UNL     1      -0.670  -1.995  -0.634  0.00  0.00    +0.028 A 
ATOM     10  C   UNL     1       0.341  -2.737  -0.037  0.00  0.00    +0.071 A 
ATOM     11  C   UNL     1       1.266  -2.109   0.785  0.00  0.00    -0.025 A 
ATOM     12  C   UNL     1       1.183  -0.748   1.004  0.00  0.00    +0.008 A 
ATOM     13  C   UNL     1       2.364  -2.911   1.435  0.00  0.00    +0.046 C 
ENDBRANCH   1  10
BRANCH   2  14
ATOM     14  C   UNL     1       0.284  -4.121  -2.809  0.00  0.00    +0.004 A 
ATOM     15  C   UNL     1      -0.680  -4.568  -3.713  0.00  0.00    +0.010 A 
ATOM     16  C   UNL     1      -0.788  -3.974  -4.954  0.00  0.00    +0.002 A 
ATOM     17  C   UNL     1       0.059  -2.936  -5.303  0.00  0.00    +0.020 A 
ATOM     18  C   UNL     1       1.018  -2.488  -4.410  0.00  0.00    +0.042 A 
ATOM     19  C   UNL     1       1.130  -3.071  -3.163  0.00  0.00    +0.030 A 
ATOM     20 CL   UNL     1       2.076  -1.186  -4.857  0.00  0.00    -0.084 Cl
ENDBRANCH   2  14
BRANCH   3  21
ATOM     21  C   UNL     1       0.532  -7.186  -2.246  0.00  0.00    -0.026 C 
BRANCH  21  22
ATOM     22  N   UNL     1       1.901  -7.362  -2.748  0.00  0.00    +0.382 N 
ATOM     23  H   UNL     1       2.244  -6.482  -3.105  0.00  0.00    -0.090 HD
ATOM     24  H   UNL     1       2.498  -7.675  -1.997  0.00  0.00    -0.090 HD
ATOM     25  H   UNL     1       1.903  -8.048  -3.488  0.00  0.00    -0.090 HD
ENDBRANCH  21  22
ENDBRANCH   3  21
TORSDOF 4
