REMARK  Name = ZINC44766906
REMARK  3 active torsions:
REMARK  status: ('A' for Active; 'I' for Inactive)
REMARK    1  A    between atoms: C_5  and  C_8
REMARK    2  A    between atoms: C_5  and  C_10
REMARK    3  A    between atoms: C_17  and  C_19
REMARK                            x       y       z     vdW  Elec       q    Type
REMARK                         _______ _______ _______ _____ _____    ______ ____
ROOT
ATOM      1  C   UNL     1       2.400  -0.986  -2.981  0.00  0.00    +0.236 C 
ATOM      2  O   UNL     1       2.455  -0.592  -4.127  0.00  0.00    -0.274 OA
ATOM      3  N   UNL     1       2.481  -2.305  -2.717  0.00  0.00    -0.289 N 
ATOM      4  C   UNL     1       2.313  -2.806  -1.346  0.00  0.00    +0.108 C 
ATOM      5  C   UNL     1       1.227  -3.886  -1.345  0.00  0.00    +0.019 C 
ATOM      6  C   UNL     1       1.585  -4.965  -2.369  0.00  0.00    +0.004 C 
ATOM      7  C   UNL     1       1.648  -4.344  -3.767  0.00  0.00    +0.032 C 
ATOM      8  C   UNL     1       2.733  -3.270  -3.796  0.00  0.00    +0.162 C 
ENDROOT
BRANCH   1  13
ATOM      9  C   UNL     1       1.042   1.917   0.140  0.00  0.00    +0.000 C 
ATOM     10  C   UNL     1       2.527   2.148   0.064  0.00  0.00    +0.000 C 
ATOM     11  C   UNL     1       3.017   2.363  -1.381  0.00  0.00    +0.002 C 
ATOM     12  C   UNL     1       2.355   1.403  -2.386  0.00  0.00    +0.031 C 
ATOM     13  C   UNL     1       2.240   0.000  -1.853  0.00  0.00    +0.133 C 
ATOM     14  C   UNL     1       0.847  -0.167  -1.212  0.00  0.00    +0.031 C 
ATOM     15  C   UNL     1       0.781   0.397   0.128  0.00  0.00    +0.002 C 
BRANCH  13  16
ATOM     16  C   UNL     1       3.281  -0.230  -0.839  0.00  0.00    +0.079 C 
ATOM     17  N   UNL     1       4.085  -0.408  -0.056  0.00  0.00    -0.195 NA
ENDBRANCH  13  16
ENDBRANCH   1  13
BRANCH   8  18
ATOM     18  C   UNL     1       2.704  -2.561  -5.125  0.00  0.00    +0.231 C 
ATOM     19  O   UNL     1       1.673  -2.060  -5.522  0.00  0.00    -0.274 OA
ATOM     20  N   UNL     1       3.822  -2.483  -5.873  0.00  0.00    -0.328 N 
ATOM     21  H   UNL     1       4.647  -2.884  -5.555  0.00  0.00    +0.145 HD
ATOM     22  H   UNL     1       3.803  -2.027  -6.729  0.00  0.00    +0.145 HD
ENDBRANCH   8  18
TORSDOF 3
