REMARK  Name = ZINC34992702
REMARK  10 active torsions:
REMARK  status: ('A' for Active; 'I' for Inactive)
REMARK    1  A    between atoms: C_1  and  C_2
REMARK    2  A    between atoms: C_2  and  C_3
REMARK    3  A    between atoms: C_6  and  C_9
REMARK    4  A    between atoms: C_9  and  C_11
REMARK    5  A    between atoms: C_9  and  N_12
REMARK    6  A    between atoms: N_12  and  C_13
REMARK    7  A    between atoms: C_13  and  C_14
REMARK    8  A    between atoms: C_17  and  O_21
REMARK    9  A    between atoms: C_18  and  O_20
REMARK   10  A    between atoms: O_21  and  C_22
REMARK                            x       y       z     vdW  Elec       q    Type
REMARK                         _______ _______ _______ _____ _____    ______ ____
ROOT
ATOM      1  N   UNL     1       2.256  -1.261   5.880  0.00  0.00    +0.386 N 
ATOM      2  H   UNL     1       2.305  -0.260   5.765  0.00  0.00    -0.085 HD
ATOM      3  H   UNL     1       1.295  -1.538   6.011  0.00  0.00    -0.085 HD
ENDROOT
BRANCH   1   4
ATOM      4  C   UNL     1       2.797  -1.919   4.683  0.00  0.00    -0.044 C 
ATOM      5  C   UNL     1       2.610  -3.433   4.805  0.00  0.00    -0.009 C 
BRANCH   4   9
ATOM      6  C   UNL     1       0.731  -0.503   1.223  0.00  0.00    -0.048 A 
ATOM      7  C   UNL     1       2.097  -0.710   1.176  0.00  0.00    +0.004 A 
ATOM      8  C   UNL     1       2.766  -1.167   2.296  0.00  0.00    +0.002 A 
ATOM      9  C   UNL     1       2.068  -1.419   3.463  0.00  0.00    -0.062 A 
ATOM     10  C   UNL     1       0.702  -1.212   3.510  0.00  0.00    +0.002 A 
ATOM     11  C   UNL     1       0.034  -0.750   2.391  0.00  0.00    +0.004 A 
BRANCH   6  13
ATOM     12  C   UNL     1      -0.019   1.526   0.010  0.00  0.00    +0.009 C 
ATOM     13  C   UNL     1       0.002  -0.004   0.002  0.00  0.00    +0.032 C 
ENDBRANCH   6  13
ENDBRANCH   4   9
ENDBRANCH   1   4
BRANCH   1  14
ATOM     14  C   UNL     1       3.044  -1.657   7.055  0.00  0.00    -0.046 C 
BRANCH  14  15
ATOM     15  C   UNL     1       2.489  -0.983   8.283  0.00  0.00    -0.061 A 
ATOM     16  C   UNL     1       2.966   0.259   8.663  0.00  0.00    +0.005 A 
ATOM     17  C   UNL     1       2.460   0.882   9.789  0.00  0.00    +0.049 A 
ATOM     18  C   UNL     1       1.473   0.263  10.539  0.00  0.00    +0.161 A 
ATOM     19  C   UNL     1       0.993  -0.986  10.156  0.00  0.00    +0.159 A 
ATOM     20  C   UNL     1       1.501  -1.603   9.024  0.00  0.00    +0.051 A 
BRANCH  19  21
ATOM     21  O   UNL     1       0.025  -1.598  10.889  0.00  0.00    -0.503 OA
ATOM     22  H   UNL     1      -0.875  -1.385  10.607  0.00  0.00    +0.292 HD
ENDBRANCH  19  21
BRANCH  18  23
ATOM     23  O   UNL     1       0.975   0.874  11.646  0.00  0.00    -0.491 OA
ATOM     24  C   UNL     1       1.515   2.155  11.979  0.00  0.00    +0.277 C 
ENDBRANCH  18  23
ENDBRANCH  14  15
ENDBRANCH   1  14
TORSDOF 7
