REMARK  Name = ZINC53112219
REMARK  9 active torsions:
REMARK  status: ('A' for Active; 'I' for Inactive)
REMARK    1  A    between atoms: C_1  and  C_2
REMARK    2  A    between atoms: C_3  and  N_22
REMARK    3  A    between atoms: C_4  and  C_21
REMARK    4  A    between atoms: N_5  and  C_7
REMARK    5  A    between atoms: C_7  and  C_8
REMARK    6  A    between atoms: N_10  and  C_11
REMARK    7  A    between atoms: C_11  and  C_19
REMARK    8  A    between atoms: C_15  and  C_18
REMARK    9  A    between atoms: C_19  and  O_20
REMARK                            x       y       z     vdW  Elec       q    Type
REMARK                         _______ _______ _______ _____ _____    ______ ____
ROOT
ATOM      1  C   UNL     1       0.945  -5.248   1.809  0.00  0.00    +0.235 C 
ATOM      2  O   UNL     1       1.257  -6.332   1.363  0.00  0.00    -0.274 OA
ATOM      3  N   UNL     1       1.817  -4.556   2.569  0.00  0.00    -0.306 N 
ATOM      4  H   UNL     1       1.597  -3.659   2.865  0.00  0.00    +0.149 HD
ENDROOT
BRANCH   3   5
ATOM      5  C   UNL     1       3.099  -5.158   2.946  0.00  0.00    +0.058 C 
ATOM      6  C   UNL     1       3.873  -4.188   3.841  0.00  0.00    +0.028 C 
ATOM      7  C   UNL     1       3.057  -3.894   5.101  0.00  0.00    +0.002 C 
ATOM      8  C   UNL     1       2.804  -5.197   5.861  0.00  0.00    +0.003 C 
ATOM      9  C   UNL     1       2.029  -6.167   4.966  0.00  0.00    -0.012 C 
ATOM     10  C   UNL     1       2.845  -6.461   3.706  0.00  0.00    +0.031 C 
ATOM     11  C   UNL     1       1.776  -7.471   5.726  0.00  0.00    +0.007 C 
BRANCH   5  12
ATOM     12  C   UNL     1       3.915  -5.452   1.686  0.00  0.00    +0.181 C 
BRANCH  12  13
ATOM     13  O   UNL     1       4.084  -4.248   0.936  0.00  0.00    -0.393 OA
ATOM     14  H   UNL     1       4.593  -4.360   0.122  0.00  0.00    +0.209 HD
ENDBRANCH  12  13
ENDBRANCH   5  12
ENDBRANCH   3   5
BRANCH   1  15
ATOM     15  C   UNL     1      -0.417  -4.676   1.515  0.00  0.00    +0.239 C 
BRANCH  15  20
ATOM     16  C   UNL     1      -2.264  -6.991  -2.539  0.00  0.00    +0.069 C 
ATOM     17  C   UNL     1      -1.967  -6.612  -1.111  0.00  0.00    +0.081 A 
ATOM     18  C   UNL     1      -2.484  -7.242   0.030  0.00  0.00    +0.068 A 
ATOM     19  C   UNL     1      -1.980  -6.610   1.119  0.00  0.00    +0.058 A 
ATOM     20  N   UNL     1      -1.170  -5.612   0.676  0.00  0.00    -0.258 N 
ATOM     21  N   UNL     1      -1.178  -5.643  -0.724  0.00  0.00    -0.174 NA
ATOM     22  C   UNL     1      -2.266  -6.952   2.559  0.00  0.00    +0.067 C 
BRANCH  18  23
ATOM     23  N   UNL     1      -3.370  -8.337   0.042  0.00  0.00    -0.355 N 
ATOM     24  H   UNL     1      -3.676  -8.722  -0.794  0.00  0.00    +0.142 HD
ATOM     25  H   UNL     1      -3.674  -8.705   0.886  0.00  0.00    +0.142 HD
ENDBRANCH  18  23
ENDBRANCH  15  20
ENDBRANCH   1  15
TORSDOF 6
