REMARK  Name = ZINC63619698
REMARK  9 active torsions:
REMARK  status: ('A' for Active; 'I' for Inactive)
REMARK    1  A    between atoms: C_1  and  C_2
REMARK    2  A    between atoms: C_2  and  C_3
REMARK    3  A    between atoms: C_2  and  O_4
REMARK    4  A    between atoms: O_4  and  C_5
REMARK    5  A    between atoms: C_9  and  C_11
REMARK    6  A    between atoms: C_15  and  S_19
REMARK    7  A    between atoms: N_17  and  N_18
REMARK    8  A    between atoms: S_19  and  C_20
REMARK    9  A    between atoms: C_20  and  C_21
REMARK                            x       y       z     vdW  Elec       q    Type
REMARK                         _______ _______ _______ _____ _____    ______ ____
ROOT
ATOM      1  C   UNL     1       0.543  -1.450   5.940  0.00  0.00    +0.186 C 
ATOM      2  N   UNL     1       1.674  -2.380   5.684  0.00  0.00    -0.232 NA
ATOM      3  N   UNL     1       1.850  -3.101   6.947  0.00  0.00    -0.228 NA
ATOM      4  C   UNL     1       0.558  -3.035   7.661  0.00  0.00    +0.214 C 
ATOM      5  N   UNL     1      -0.364  -2.257   6.799  0.00  0.00    -0.195 NA
ATOM      6  H   UNL     1       1.456  -3.016   4.931  0.00  0.00    +0.143 HD
ATOM      7  H   UNL     1       2.589  -2.691   7.498  0.00  0.00    +0.143 HD
ENDROOT
BRANCH   1  12
ATOM      8  C   UNL     1      -0.031  -0.600   2.303  0.00  0.00    +0.121 A 
ATOM      9  C   UNL     1      -1.400  -0.376   2.286  0.00  0.00    +0.045 A 
ATOM     10  C   UNL     1      -2.133  -0.502   3.450  0.00  0.00    +0.004 A 
ATOM     11  C   UNL     1      -1.504  -0.850   4.631  0.00  0.00    +0.007 A 
ATOM     12  C   UNL     1      -0.140  -1.072   4.651  0.00  0.00    -0.010 A 
ATOM     13  C   UNL     1       0.597  -0.954   3.489  0.00  0.00    +0.052 A 
BRANCH   8  14
ATOM     14  O   UNL     1       0.693  -0.477   1.160  0.00  0.00    -0.489 OA
BRANCH  14  16
ATOM     15  C   UNL     1      -0.292   1.273  -0.184  0.00  0.00    +0.051 C 
ATOM     16  C   UNL     1      -0.034  -0.229  -0.045  0.00  0.00    +0.167 C 
ATOM     17  C   UNL     1       0.781  -0.720  -1.243  0.00  0.00    +0.051 C 
ENDBRANCH  14  16
ENDBRANCH   8  14
ENDBRANCH   1  12
BRANCH   5  18
ATOM     18  N   UNL     1      -1.228  -1.399   7.595  0.00  0.00    -0.264 NA
ATOM     19  H   UNL     1      -1.843  -1.947   8.177  0.00  0.00    +0.137 HD
ATOM     20  H   UNL     1      -0.686  -0.753   8.148  0.00  0.00    +0.137 HD
ENDBRANCH   5  18
BRANCH   4  21
ATOM     21  S   UNL     1      -0.092  -4.708   7.925  0.00  0.00    -0.120 S 
BRANCH  21  22
ATOM     22  C   UNL     1      -0.239  -5.391   6.251  0.00  0.00    +0.118 C 
BRANCH  22  23
ATOM     23  C   UNL     1      -0.784  -6.818   6.328  0.00  0.00    +0.184 C 
ATOM     24  N   UNL     1      -2.074  -6.827   7.031  0.00  0.00    -0.363 N 
ATOM     25  C   UNL     1      -1.937  -7.576   8.087  0.00  0.00    +0.060 A 
ATOM     26  C   UNL     1      -2.860  -7.963   9.163  0.00  0.00    +0.027 A 
ATOM     27  C   UNL     1      -2.428  -8.772  10.151  0.00  0.00    +0.002 A 
ATOM     28  C   UNL     1      -1.114  -9.271  10.202  0.00  0.00    +0.002 A 
ATOM     29  C   UNL     1      -0.189  -8.978   9.267  0.00  0.00    +0.027 A 
ATOM     30  C   UNL     1      -0.547  -8.105   8.141  0.00  0.00    +0.060 A 
ATOM     31  N   UNL     1       0.123  -7.662   7.116  0.00  0.00    -0.363 N 
ATOM     32  H   UNL     1      -2.879  -6.361   6.758  0.00  0.00    +0.162 HD
ATOM     33  H   UNL     1       1.051  -7.855   6.910  0.00  0.00    +0.162 HD
ENDBRANCH  22  23
ENDBRANCH  21  22
ENDBRANCH   4  21
TORSDOF 7
