REMARK  Name = ZINC50639626
REMARK  6 active torsions:
REMARK  status: ('A' for Active; 'I' for Inactive)
REMARK    1  A    between atoms: C_1  and  C_2
REMARK    2  A    between atoms: C_5  and  C_20
REMARK    3  A    between atoms: C_6  and  N_8
REMARK    4  A    between atoms: N_8  and  S_9
REMARK    5  A    between atoms: S_9  and  C_12
REMARK    6  A    between atoms: N_18  and  C_19
REMARK                            x       y       z     vdW  Elec       q    Type
REMARK                         _______ _______ _______ _____ _____    ______ ____
ROOT
ATOM      1  S   UNL     1      -0.668  -2.154   3.737  0.00  0.00    +0.074 S 
ATOM      2  O   UNL     1      -0.407  -3.055   4.805  0.00  0.00    -0.150 OA
ATOM      3  O   UNL     1      -0.290  -0.785   3.785  0.00  0.00    -0.150 OA
ENDROOT
BRANCH   1   4
ATOM      4  C   UNL     1      -2.408  -2.187   3.464  0.00  0.00    +0.124 A 
ATOM      5  C   UNL     1      -3.044  -1.110   2.859  0.00  0.00    +0.033 A 
ATOM      6  C   UNL     1      -4.411  -1.176   2.663  0.00  0.00    +0.043 A 
ATOM      7  C   UNL     1      -5.100  -2.312   3.076  0.00  0.00    +0.096 A 
ATOM      8  N   UNL     1      -4.458  -3.318   3.649  0.00  0.00    -0.348 N 
ATOM      9  C   UNL     1      -3.153  -3.285   3.843  0.00  0.00    +0.113 A 
ATOM     10  N   UNL     1      -6.475  -2.391   2.885  0.00  0.00    -0.334 N 
ATOM     11  C   UNL     1      -7.192  -1.281   2.253  0.00  0.00    +0.127 C 
ATOM     12  H   UNL     1      -6.959  -3.181   3.172  0.00  0.00    +0.147 HD
ATOM     13  H   UNL     1      -4.958  -4.100   3.929  0.00  0.00    +0.167 HD
ENDBRANCH   1   4
BRANCH   1  14
ATOM     14  N   UNL     1       0.051  -2.796   2.390  0.00  0.00    -0.216 N 
ATOM     15  H   UNL     1       0.600  -3.593   2.466  0.00  0.00    +0.174 HD
BRANCH  14  21
ATOM     16  C   UNL     1      -0.519   1.286  -0.286  0.00  0.00    +0.044 C 
ATOM     17  C   UNL     1      -0.412  -0.214  -0.182  0.00  0.00    -0.049 A 
ATOM     18  C   UNL     1      -0.495  -0.993  -1.322  0.00  0.00    +0.004 A 
ATOM     19  C   UNL     1      -0.398  -2.369  -1.232  0.00  0.00    +0.005 A 
ATOM     20  C   UNL     1      -0.217  -2.970  -0.002  0.00  0.00    -0.028 A 
ATOM     21  C   UNL     1      -0.132  -2.191   1.145  0.00  0.00    +0.051 A 
ATOM     22  C   UNL     1      -0.225  -0.808   1.050  0.00  0.00    +0.028 A 
ATOM     23  C   UNL     1      -0.111  -4.471   0.096  0.00  0.00    +0.046 C 
ENDBRANCH  14  21
ENDBRANCH   1  14
TORSDOF 3
