REMARK  Name = ZINC62958622
REMARK  6 active torsions:
REMARK  status: ('A' for Active; 'I' for Inactive)
REMARK    1  A    between atoms: C_1  and  C_2
REMARK    2  A    between atoms: C_2  and  N_3
REMARK    3  A    between atoms: N_3  and  C_4
REMARK    4  A    between atoms: C_4  and  C_5
REMARK    5  A    between atoms: C_5  and  C_7
REMARK    6  A    between atoms: C_5  and  N_13
REMARK                            x       y       z     vdW  Elec       q    Type
REMARK                         _______ _______ _______ _____ _____    ______ ____
ROOT
ATOM      1  C   UNL     1       1.434  -2.362   2.483  0.00  0.00    -0.055 C 
ENDROOT
BRANCH   1   2
ATOM      2  N   UNL     1       2.721  -1.659   2.582  0.00  0.00    +0.383 N 
ATOM      3  C   UNL     1       2.480  -0.215   2.690  0.00  0.00    -0.078 C 
ATOM      4  C   UNL     1       3.818   0.528   2.704  0.00  0.00    -0.012 C 
ATOM      5  C   UNL     1       4.651   0.045   3.890  0.00  0.00    -0.033 C 
ATOM      6  C   UNL     1       6.029   0.730   3.876  0.00  0.00    +0.007 C 
ATOM      7  C   UNL     1       5.864   1.932   4.839  0.00  0.00    +0.001 C 
ATOM      8  C   UNL     1       4.961   1.355   5.957  0.00  0.00    +0.001 C 
ATOM      9  C   UNL     1       3.969   0.440   5.208  0.00  0.00    +0.007 C 
ATOM     10  C   UNL     1       4.824  -1.472   3.825  0.00  0.00    -0.012 C 
ATOM     11  C   UNL     1       3.446  -2.135   3.766  0.00  0.00    -0.078 C 
ATOM     12  H   UNL     1       3.269  -1.845   1.756  0.00  0.00    -0.081 HD
ENDBRANCH   1   2
BRANCH   1  13
ATOM     13  C   UNL     1       1.677  -3.848   2.424  0.00  0.00    -0.063 A 
ATOM     14  C   UNL     1       2.735  -4.347   1.687  0.00  0.00    +0.002 A 
ATOM     15  C   UNL     1       2.958  -5.710   1.634  0.00  0.00    +0.000 A 
ATOM     16  C   UNL     1       2.123  -6.575   2.317  0.00  0.00    +0.000 A 
ATOM     17  C   UNL     1       1.065  -6.075   3.054  0.00  0.00    +0.000 A 
ATOM     18  C   UNL     1       0.845  -4.712   3.111  0.00  0.00    +0.002 A 
ENDBRANCH   1  13
BRANCH   1  19
ATOM     19  C   UNL     1       0.705  -1.914   1.214  0.00  0.00    -0.094 C 
BRANCH  19  20
ATOM     20  N   UNL     1      -0.618  -2.550   1.160  0.00  0.00    +0.378 N 
ATOM     21  H   UNL     1      -1.122  -2.350   2.010  0.00  0.00    -0.086 HD
ATOM     22  H   UNL     1      -0.508  -3.548   1.060  0.00  0.00    -0.086 HD
BRANCH  20  24
ATOM     23  C   UNL     1      -2.745  -2.685  -0.046  0.00  0.00    -0.017 C 
ATOM     24  C   UNL     1      -1.367  -2.023   0.011  0.00  0.00    -0.086 C 
ENDBRANCH  20  24
ENDBRANCH  19  20
ENDBRANCH   1  19
TORSDOF 5
