REMARK  Name = ZINC61706918
REMARK  5 active torsions:
REMARK  status: ('A' for Active; 'I' for Inactive)
REMARK    1  A    between atoms: C_1  and  O_2
REMARK    2  A    between atoms: O_2  and  C_3
REMARK    3  A    between atoms: C_6  and  S_10
REMARK    4  A    between atoms: S_10  and  N_13
REMARK    5  A    between atoms: C_16  and  O_19
REMARK                            x       y       z     vdW  Elec       q    Type
REMARK                         _______ _______ _______ _____ _____    ______ ____
ROOT
ATOM      1  S   UNL     1       2.618  -2.615  -4.583  0.00  0.00    +0.061 S 
ATOM      2  O   UNL     1       2.051  -3.914  -4.689  0.00  0.00    -0.153 OA
ATOM      3  O   UNL     1       2.587  -1.681  -5.653  0.00  0.00    -0.153 OA
ENDROOT
BRANCH   1   7
ATOM      4  C   UNL     1       0.606  -0.607  -1.056  0.00  0.00    +0.155 A 
ATOM      5  C   UNL     1       1.173   0.160  -2.062  0.00  0.00    +0.050 A 
ATOM      6  C   UNL     1       1.786  -0.455  -3.137  0.00  0.00    +0.032 A 
ATOM      7  C   UNL     1       1.835  -1.835  -3.211  0.00  0.00    +0.108 A 
ATOM      8  C   UNL     1       1.271  -2.604  -2.210  0.00  0.00    +0.070 A 
ATOM      9  C   UNL     1       0.661  -1.994  -1.128  0.00  0.00    +0.167 A 
ATOM     10  F   UNL     1       0.115  -2.744  -0.147  0.00  0.00    -0.202 F 
BRANCH   4  12
ATOM     11  C   UNL     1      -0.017   1.425   0.010  0.00  0.00    +0.277 C 
ATOM     12  O   UNL     1       0.002  -0.004   0.002  0.00  0.00    -0.492 OA
ENDBRANCH   4  12
ENDBRANCH   1   7
BRANCH   1  13
ATOM     13  N   UNL     1       4.211  -2.825  -4.184  0.00  0.00    -0.174 NA
ATOM     14  C   UNL     1       5.294  -1.857  -4.435  0.00  0.00    +0.112 C 
ATOM     15  C   UNL     1       6.380  -2.196  -3.384  0.00  0.00    +0.050 C 
ATOM     16  C   UNL     1       6.288  -3.743  -3.328  0.00  0.00    +0.131 C 
ATOM     17  C   UNL     1       4.779  -4.005  -3.515  0.00  0.00    +0.140 C 
BRANCH  16  18
ATOM     18  O   UNL     1       6.733  -4.231  -2.061  0.00  0.00    -0.390 OA
ATOM     19  H   UNL     1       7.656  -4.023  -1.861  0.00  0.00    +0.210 HD
ENDBRANCH  16  18
ENDBRANCH   1  13
TORSDOF 4
