REMARK  Name = ZINC14548545
REMARK  3 active torsions:
REMARK  status: ('A' for Active; 'I' for Inactive)
REMARK    1  A    between atoms: C_3  and  C_6
REMARK    2  A    between atoms: C_17  and  N_23
REMARK    3  A    between atoms: C_19  and  O_22
REMARK                            x       y       z     vdW  Elec       q    Type
REMARK                         _______ _______ _______ _____ _____    ______ ____
ROOT
ATOM      1  C   UNL     1       3.618   3.240   0.030  0.00  0.00    +0.112 C 
ATOM      2  C   UNL     1       3.469   1.986  -0.808  0.00  0.00    +0.029 C 
ATOM      3  C   UNL     1       4.645   1.004  -0.849  0.00  0.00    +0.033 C 
ATOM      4  C   UNL     1       3.922  -0.326  -1.076  0.00  0.00    -0.030 C 
ATOM      5  C   UNL     1       2.683  -0.255  -0.602  0.00  0.00    -0.023 C 
ATOM      6  C   UNL     1       2.486   1.086   0.003  0.00  0.00    +0.049 C 
ATOM      7  C   UNL     1       1.177   1.776   0.000  0.00  0.00    -0.014 A 
ATOM      8  C   UNL     1      -0.013   1.076   0.008  0.00  0.00    +0.039 A 
ATOM      9  C   UNL     1      -1.222   1.744   0.017  0.00  0.00    +0.130 A 
ATOM     10  C   UNL     1      -1.239   3.127   0.036  0.00  0.00    +0.080 A 
ATOM     11  C   UNL     1      -0.055   3.837   0.027  0.00  0.00    +0.140 A 
ATOM     12  C   UNL     1       1.177   3.172   0.003  0.00  0.00    +0.074 A 
ATOM     13  N   UNL     1       2.333   3.954  -0.030  0.00  0.00    -0.333 N 
ATOM     14  H   UNL     1       2.293   4.686   0.663  0.00  0.00    +0.147 HD
ENDROOT
BRANCH   1  17
ATOM     15  C   UNL     1       5.184   2.483   3.419  0.00  0.00    +0.008 A 
ATOM     16  C   UNL     1       5.131   2.862   2.091  0.00  0.00    +0.013 A 
ATOM     17  C   UNL     1       3.934   2.869   1.456  0.00  0.00    +0.010 A 
ATOM     18  S   UNL     1       2.827   2.334   2.751  0.00  0.00    -0.100 S 
ATOM     19  C   UNL     1       4.036   2.128   4.048  0.00  0.00    +0.045 A 
ENDBRANCH   1  17
BRANCH   9  20
ATOM     20  N   UNL     1      -2.491   0.984   0.014  0.00  0.00    +0.057 N 
ATOM     21  O   UNL     1      -2.472  -0.234   0.003  0.00  0.00    -0.126 OA
ATOM     22  O   UNL     1      -3.556   1.576   0.022  0.00  0.00    -0.126 OA
ENDBRANCH   9  20
BRANCH  11  23
ATOM     23  O   UNL     1      -0.085   5.196   0.042  0.00  0.00    -0.505 OA
ATOM     24  H   UNL     1      -0.106   5.599  -0.837  0.00  0.00    +0.292 HD
ENDBRANCH  11  23
TORSDOF 3
