REMARK  Name = ZINC32769970
REMARK  4 active torsions:
REMARK  status: ('A' for Active; 'I' for Inactive)
REMARK    1  A    between atoms: C_1  and  C_2
REMARK    2  A    between atoms: C_2  and  C_4
REMARK    3  A    between atoms: C_2  and  N_12
REMARK    4  A    between atoms: C_15  and  C_18
REMARK                            x       y       z     vdW  Elec       q    Type
REMARK                         _______ _______ _______ _____ _____    ______ ____
ROOT
ATOM      1  N   UNL     1      -0.507   1.573   1.205  0.00  0.00    +0.390 N 
ATOM      2  C   UNL     1       0.007   0.825   0.047  0.00  0.00    -0.073 C 
ATOM      3  C   UNL     1      -0.567   1.443  -1.231  0.00  0.00    +0.017 C 
ATOM      4  C   UNL     1      -0.379   2.934  -1.202  0.00  0.00    -0.046 C 
ATOM      5  C   UNL     1      -0.098   3.593  -0.097  0.00  0.00    -0.041 C 
ATOM      6  C   UNL     1       0.068   2.923   1.237  0.00  0.00    -0.050 C 
ATOM      7  H   UNL     1      -1.599   1.667   1.105  0.00  0.00    -0.080 HD
ENDROOT
BRANCH   4   8
ATOM      8  C   UNL     1      -0.514   3.690  -2.462  0.00  0.00    +0.003 A 
ATOM      9  C   UNL     1       0.387   3.744  -3.476  0.00  0.00    +0.091 A 
ATOM     10  N   UNL     1      -0.091   4.541  -4.475  0.00  0.00    -0.360 N 
ATOM     11  H   UNL     1       0.505   4.697  -5.387  0.00  0.00    +0.165 HD
ATOM     12  C   UNL     1      -1.327   5.043  -4.133  0.00  0.00    +0.047 A 
ATOM     13  C   UNL     1      -1.650   4.537  -2.862  0.00  0.00    +0.007 A 
ATOM     14  C   UNL     1      -2.858   4.883  -2.260  0.00  0.00    +0.010 A 
ATOM     15  C   UNL     1      -3.732   5.721  -2.915  0.00  0.00    +0.001 A 
ATOM     16  C   UNL     1      -3.414   6.223  -4.170  0.00  0.00    +0.002 A 
ATOM     17  C   UNL     1      -2.224   5.889  -4.778  0.00  0.00    +0.026 A 
ENDBRANCH   4   8
BRANCH   1  19
ATOM     18  C   UNL     1       1.250   0.958   2.796  0.00  0.00    -0.004 C 
ATOM     19  C   UNL     1      -0.238   0.854   2.458  0.00  0.00    +0.017 C 
BRANCH  19  20
ATOM     20  C   UNL     1      -1.050   1.463   3.571  0.00  0.00    +0.202 C 
ATOM     21  O   UNL     1      -1.587   2.539   3.412  0.00  0.00    -0.277 OA
ATOM     22  N   UNL     1      -1.181   0.813   4.745  0.00  0.00    -0.298 N 
ATOM     23  C   UNL     1      -0.633  -0.541   4.925  0.00  0.00    +0.136 C 
ATOM     24  C   UNL     1       0.209  -0.550   6.211  0.00  0.00    +0.179 C 
ATOM     25  O   UNL     1      -0.575  -0.034   7.289  0.00  0.00    -0.377 OA
ATOM     26  C   UNL     1      -0.982   1.326   7.118  0.00  0.00    +0.179 C 
ATOM     27  C   UNL     1      -1.881   1.433   5.881  0.00  0.00    +0.136 C 
ENDBRANCH  19  20
ENDBRANCH   1  19
TORSDOF 3
