REMARK  Name = ZINC15957045
REMARK  6 active torsions:
REMARK  status: ('A' for Active; 'I' for Inactive)
REMARK    1  A    between atoms: C_1  and  C_2
REMARK    2  A    between atoms: C_7  and  C_8
REMARK    3  A    between atoms: C_17  and  C_20
REMARK    4  A    between atoms: C_20  and  C_21
REMARK    5  A    between atoms: C_21  and  C_22
REMARK    6  A    between atoms: N_27  and  C_30
REMARK                            x       y       z     vdW  Elec       q    Type
REMARK                         _______ _______ _______ _____ _____    ______ ____
ROOT
ATOM      1  C   UNL     1      -0.018   1.503   0.010  0.00  0.00    +0.044 C 
ATOM      2  C   UNL     1       0.002  -0.004   0.002  0.00  0.00    -0.046 A 
ATOM      3  C   UNL     1       0.006  -0.686  -1.201  0.00  0.00    +0.004 A 
ATOM      4  C   UNL     1       0.023  -2.069  -1.209  0.00  0.00    +0.008 A 
ATOM      5  C   UNL     1       0.038  -2.765  -0.021  0.00  0.00    +0.004 A 
ATOM      6  C   UNL     1       0.035  -2.090   1.196  0.00  0.00    +0.042 A 
ATOM      7  C   UNL     1       0.023  -0.697   1.195  0.00  0.00    -0.026 A 
ATOM      8  C   UNL     1       0.026   0.056   2.500  0.00  0.00    +0.046 C 
ATOM      9  N   UNL     1       0.053  -3.001   2.254  0.00  0.00    -0.283 N 
ATOM     10  C   UNL     1       0.066  -4.278   1.825  0.00  0.00    +0.243 C 
ATOM     11  O   UNL     1       0.082  -5.274   2.516  0.00  0.00    -0.273 OA
ATOM     12  C   UNL     1       0.057  -4.228   0.321  0.00  0.00    +0.136 C 
ATOM     13  C   UNL     1       1.285  -4.929  -0.270  0.00  0.00    +0.122 C 
ATOM     14  C   UNL     1       0.777  -6.343  -0.666  0.00  0.00    +0.107 C 
ATOM     15  C   UNL     1      -0.715  -6.353  -0.267  0.00  0.00    +0.068 C 
ATOM     16  N   UNL     1      -1.116  -4.928  -0.234  0.00  0.00    -0.295 NA
ATOM     17  C   UNL     1       1.556  -7.262   0.248  0.00  0.00    +0.227 C 
ATOM     18  O   UNL     1       1.465  -8.470   0.268  0.00  0.00    -0.275 OA
ATOM     19  N   UNL     1       2.360  -6.533   1.030  0.00  0.00    -0.238 N 
ATOM     20  C   UNL     1       2.295  -5.199   0.822  0.00  0.00    +0.228 C 
ATOM     21  O   UNL     1       2.934  -4.352   1.409  0.00  0.00    -0.275 OA
ATOM     22  H   UNL     1       0.055  -2.744   3.189  0.00  0.00    +0.155 HD
ATOM     23  H   UNL     1      -1.929  -4.790   0.348  0.00  0.00    +0.123 HD
ENDROOT
BRANCH  19  24
ATOM     24  C   UNL     1       3.247  -7.132   2.031  0.00  0.00    +0.084 C 
ATOM     25  C   UNL     1       4.196  -8.145   1.357  0.00  0.00    +0.023 C 
ATOM     26  C   UNL     1       4.328  -9.289   2.393  0.00  0.00    +0.002 C 
ATOM     27  C   UNL     1       2.897  -9.387   2.979  0.00  0.00    +0.002 C 
ATOM     28  C   UNL     1       2.421  -7.921   3.062  0.00  0.00    +0.023 C 
ENDBRANCH  19  24
BRANCH  15  29
ATOM     29  C   UNL     1      -1.536  -7.133  -1.296  0.00  0.00    +0.031 C 
BRANCH  29  30
ATOM     30  C   UNL     1      -2.986  -7.236  -0.818  0.00  0.00    +0.126 C 
BRANCH  30  31
ATOM     31  C   UNL     1      -3.795  -8.004  -1.831  0.00  0.00    +0.356 C 
ATOM     32  O   UNL     1      -3.261  -8.429  -2.842  0.00  0.00    -0.246 OA
ATOM     33  O   UNL     1      -4.983  -8.201  -1.641  0.00  0.00    -0.246 OA
ENDBRANCH  30  31
ENDBRANCH  29  30
ENDBRANCH  15  29
TORSDOF 4
