REMARK  Name = ZINC65420226
REMARK  6 active torsions:
REMARK  status: ('A' for Active; 'I' for Inactive)
REMARK    1  A    between atoms: C_1  and  O_2
REMARK    2  A    between atoms: O_2  and  C_3
REMARK    3  A    between atoms: C_7  and  C_18
REMARK    4  A    between atoms: C_8  and  O_9
REMARK    5  A    between atoms: O_9  and  C_10
REMARK    6  A    between atoms: C_10  and  C_11
REMARK                            x       y       z     vdW  Elec       q    Type
REMARK                         _______ _______ _______ _____ _____    ______ ____
ROOT
ATOM      1  C   UNL     1       0.626  -0.619   1.042  0.00  0.00    +0.162 A 
ATOM      2  C   UNL     1       1.202   0.137   2.051  0.00  0.00    +0.049 A 
ATOM      3  C   UNL     1       1.836  -0.490   3.108  0.00  0.00    +0.004 A 
ATOM      4  C   UNL     1       1.897  -1.870   3.161  0.00  0.00    +0.006 A 
ATOM      5  C   UNL     1       1.325  -2.630   2.158  0.00  0.00    -0.010 A 
ATOM      6  C   UNL     1       0.683  -2.008   1.099  0.00  0.00    +0.164 A 
ENDROOT
BRANCH   5   7
ATOM      7  C   UNL     1       1.394  -4.134   2.219  0.00  0.00    +0.014 C 
ATOM      8  C   UNL     1       0.091  -4.680   2.745  0.00  0.00    +0.052 A 
ATOM      9  C   UNL     1       0.020  -5.679   3.655  0.00  0.00    +0.035 A 
ATOM     10  N   UNL     1      -1.296  -5.909   3.897  0.00  0.00    -0.348 N 
ATOM     11  H   UNL     1      -1.664  -6.567   4.508  0.00  0.00    +0.166 HD
ATOM     12  C   UNL     1      -1.996  -5.044   3.126  0.00  0.00    +0.196 A 
ATOM     13  N   UNL     1      -1.155  -4.314   2.440  0.00  0.00    -0.242 NA
ATOM     14  C   UNL     1       1.236  -6.357   4.233  0.00  0.00    +0.036 C 
ATOM     15  C   UNL     1       2.437  -5.995   3.346  0.00  0.00    -0.075 C 
ATOM     16  N   UNL     1       2.477  -4.543   3.129  0.00  0.00    +0.388 N 
ATOM     17  H   UNL     1       3.366  -4.286   2.727  0.00  0.00    -0.084 HD
ATOM     18  H   UNL     1       2.364  -4.072   4.014  0.00  0.00    -0.084 HD
ENDBRANCH   5   7
BRANCH   1  20
ATOM     19  C   UNL     1      -0.017   1.425   0.010  0.00  0.00    +0.277 C 
ATOM     20  O   UNL     1       0.002  -0.004   0.002  0.00  0.00    -0.491 OA
ENDBRANCH   1  20
BRANCH   6  21
ATOM     21  O   UNL     1       0.115  -2.754   0.114  0.00  0.00    -0.483 OA
BRANCH  21  22
ATOM     22  C   UNL     1       0.940  -3.091  -1.003  0.00  0.00    +0.267 C 
BRANCH  22  23
ATOM     23  C   UNL     1       0.145  -3.914  -1.984  0.00  0.00    +0.025 A 
ATOM     24  C   UNL     1      -1.177  -4.217  -1.721  0.00  0.00    +0.010 A 
ATOM     25  C   UNL     1      -1.906  -4.972  -2.621  0.00  0.00    +0.001 A 
ATOM     26  C   UNL     1      -1.314  -5.423  -3.786  0.00  0.00    +0.003 A 
ATOM     27  C   UNL     1       0.008  -5.121  -4.051  0.00  0.00    +0.039 A 
ATOM     28  C   UNL     1       0.738  -4.361  -3.153  0.00  0.00    +0.130 A 
ATOM     29  F   UNL     1       2.029  -4.060  -3.414  0.00  0.00    -0.205 F 
ENDBRANCH  22  23
ENDBRANCH  21  22
ENDBRANCH   6  21
TORSDOF 5
