REMARK  Name = ZINC63134333
REMARK  5 active torsions:
REMARK  status: ('A' for Active; 'I' for Inactive)
REMARK    1  A    between atoms: C_1  and  C_2
REMARK    2  A    between atoms: C_5  and  C_7
REMARK    3  A    between atoms: C_7  and  C_8
REMARK    4  A    between atoms: C_8  and  N_9
REMARK    5  A    between atoms: C_15  and  N_20
REMARK                            x       y       z     vdW  Elec       q    Type
REMARK                         _______ _______ _______ _____ _____    ______ ____
ROOT
ATOM      1  N   UNL     1      -1.364  -4.215   3.827  0.00  0.00    -0.234 N 
ATOM      2  C   UNL     1      -1.339  -5.556   3.723  0.00  0.00    +0.254 C 
ATOM      3  O   UNL     1      -1.329  -6.186   2.684  0.00  0.00    -0.270 OA
ATOM      4  C   UNL     1      -1.327  -6.135   5.080  0.00  0.00    +0.050 A 
ATOM      5  C   UNL     1      -1.304  -7.430   5.579  0.00  0.00    +0.015 A 
ATOM      6  C   UNL     1      -1.298  -7.641   6.944  0.00  0.00    +0.023 A 
ATOM      7  C   UNL     1      -1.318  -6.563   7.823  0.00  0.00    +0.025 A 
ATOM      8  C   UNL     1      -1.342  -5.257   7.333  0.00  0.00    +0.036 A 
ATOM      9  C   UNL     1      -1.346  -5.038   5.968  0.00  0.00    +0.051 A 
ATOM     10  C   UNL     1      -1.364  -3.829   5.116  0.00  0.00    +0.254 C 
ATOM     11  O   UNL     1      -1.378  -2.682   5.513  0.00  0.00    -0.270 OA
ENDROOT
BRANCH   7  12
ATOM     12  N   UNL     1      -1.313  -6.788   9.195  0.00  0.00    -0.358 N 
ATOM     13  H   UNL     1      -1.296  -7.696   9.537  0.00  0.00    +0.142 HD
ATOM     14  H   UNL     1      -1.326  -6.038   9.809  0.00  0.00    +0.142 HD
ENDBRANCH   7  12
BRANCH   1  15
ATOM     15  C   UNL     1      -1.382  -3.296   2.687  0.00  0.00    +0.124 C 
BRANCH  15  16
ATOM     16  C   UNL     1       0.054  -2.955   2.284  0.00  0.00    +0.082 C 
BRANCH  16  21
ATOM     17  C   UNL     1      -0.018   1.503   0.010  0.00  0.00    +0.066 C 
ATOM     18  C   UNL     1       0.002  -0.004   0.002  0.00  0.00    +0.046 A 
ATOM     19  C   UNL     1       0.006  -0.708  -1.159  0.00  0.00    +0.070 A 
ATOM     20  S   UNL     1       0.033  -2.379  -0.531  0.00  0.00    -0.080 S 
ATOM     21  C   UNL     1       0.035  -2.009   1.111  0.00  0.00    +0.080 A 
ATOM     22  N   UNL     1       0.022  -0.699   1.122  0.00  0.00    -0.249 NA
ENDBRANCH  16  21
ENDBRANCH  15  16
ENDBRANCH   1  15
TORSDOF 4
