REMARK  Name = ZINC02208222
REMARK  7 active torsions:
REMARK  status: ('A' for Active; 'I' for Inactive)
REMARK    1  A    between atoms: C_1  and  C_2
REMARK    2  A    between atoms: C_3  and  N_9
REMARK    3  A    between atoms: C_4  and  C_8
REMARK    4  A    between atoms: N_9  and  C_10
REMARK    5  A    between atoms: N_13  and  C_18
REMARK    6  A    between atoms: C_27  and  C_30
REMARK    7  A    between atoms: C_30  and  C_31
REMARK                            x       y       z     vdW  Elec       q    Type
REMARK                         _______ _______ _______ _____ _____    ______ ____
ROOT
ATOM      1  C   UNL     1       6.264   3.598   0.880  0.00  0.00    +0.075 A 
ATOM      2  C   UNL     1       7.064   2.924   1.827  0.00  0.00    +0.157 A 
ATOM      3  N   UNL     1       6.670   1.790   2.336  0.00  0.00    -0.174 NA
ATOM      4  N   UNL     1       5.452   1.216   1.959  0.00  0.00    -0.222 N 
ATOM      5  C   UNL     1       4.658   1.822   1.055  0.00  0.00    +0.288 A 
ATOM      6  O   UNL     1       3.598   1.312   0.728  0.00  0.00    -0.265 OA
ATOM      7  C   UNL     1       5.055   3.045   0.495  0.00  0.00    +0.129 A 
ATOM      8 CL   UNL     1       4.048   3.850  -0.667  0.00  0.00    -0.076 Cl
ENDROOT
BRANCH   4   9
ATOM      9  C   UNL     1       5.038  -0.060   2.549  0.00  0.00    +0.068 C 
ATOM     10  C   UNL     1       4.861  -1.101   1.442  0.00  0.00    +0.034 C 
ATOM     11  C   UNL     1       4.429  -2.433   2.057  0.00  0.00    -0.008 C 
ATOM     12  C   UNL     1       3.103  -2.246   2.798  0.00  0.00    +0.007 C 
ATOM     13  C   UNL     1       3.279  -1.205   3.905  0.00  0.00    -0.008 C 
ATOM     14  C   UNL     1       3.712   0.127   3.289  0.00  0.00    +0.034 C 
ATOM     15  C   UNL     1       4.349  -1.684   4.889  0.00  0.00    +0.011 C 
ATOM     16  C   UNL     1       5.675  -1.871   4.148  0.00  0.00    -0.016 C 
ATOM     17  C   UNL     1       5.499  -2.911   3.041  0.00  0.00    +0.011 C 
ATOM     18  C   UNL     1       6.108  -0.538   3.533  0.00  0.00    +0.037 C 
BRANCH  16  19
ATOM     19  C   UNL     1       6.745  -2.349   5.132  0.00  0.00    +0.132 C 
BRANCH  19  20
ATOM     20  C   UNL     1       6.919  -1.324   6.223  0.00  0.00    +0.357 C 
ATOM     21  O   UNL     1       6.256  -0.315   6.215  0.00  0.00    -0.246 OA
ATOM     22  O   UNL     1       7.812  -1.533   7.204  0.00  0.00    -0.246 OA
ENDBRANCH  19  20
ENDBRANCH  16  19
ENDBRANCH   4   9
BRANCH   1  23
ATOM     23  N   UNL     1       6.684   4.802   0.341  0.00  0.00    -0.309 N 
ATOM     24  H   UNL     1       6.725   4.915  -0.622  0.00  0.00    +0.152 HD
BRANCH  23  27
ATOM     25  C   UNL     1       9.570   5.789   0.757  0.00  0.00    +0.067 C 
ATOM     26  C   UNL     1       8.313   6.322   1.395  0.00  0.00    +0.054 A 
ATOM     27  C   UNL     1       7.052   5.863   1.190  0.00  0.00    +0.075 A 
ATOM     28  C   UNL     1       6.182   6.629   1.978  0.00  0.00    +0.081 A 
ATOM     29  N   UNL     1       6.889   7.518   2.628  0.00  0.00    -0.177 NA
ATOM     30  N   UNL     1       8.235   7.351   2.279  0.00  0.00    -0.280 N 
ATOM     31  H   UNL     1       9.003   7.893   2.620  0.00  0.00    +0.189 HD
ATOM     32  C   UNL     1       4.687   6.459   2.063  0.00  0.00    +0.069 C 
ENDBRANCH  23  27
ENDBRANCH   1  23
TORSDOF 5
