REMARK  Name = ZINC50442861
REMARK  3 active torsions:
REMARK  status: ('A' for Active; 'I' for Inactive)
REMARK    1  A    between atoms: N_10  and  C_13
REMARK    2  A    between atoms: C_13  and  C_14
REMARK    3  A    between atoms: C_19  and  N_20
REMARK                            x       y       z     vdW  Elec       q    Type
REMARK                         _______ _______ _______ _____ _____    ______ ____
ROOT
ATOM      1  C   UNL     1       2.370   1.437   0.009  0.00  0.00    +0.005 A 
ATOM      2  C   UNL     1       1.127   2.057   0.003  0.00  0.00    +0.018 A 
ATOM      3  C   UNL     1      -0.015   1.282  -0.012  0.00  0.00    +0.084 A 
ATOM      4  N   UNL     1       0.061  -0.036  -0.020  0.00  0.00    -0.350 N 
ATOM      5  C   UNL     1       1.227  -0.664  -0.014  0.00  0.00    +0.099 A 
ATOM      6  C   UNL     1       2.418   0.054   0.001  0.00  0.00    +0.042 A 
ATOM      7  N   UNL     1       1.260  -2.054  -0.022  0.00  0.00    -0.314 N 
ATOM      8  C   UNL     1       2.535  -2.777  -0.142  0.00  0.00    +0.122 C 
ATOM      9  C   UNL     1       2.615  -3.814   0.984  0.00  0.00    +0.103 C 
ATOM     10  N   UNL     1       1.414  -4.660   0.951  0.00  0.00    -0.295 NA
ATOM     11  C   UNL     1       0.200  -3.874   1.206  0.00  0.00    +0.103 C 
ATOM     12  C   UNL     1       0.023  -2.839   0.095  0.00  0.00    +0.122 C 
ATOM     13  H   UNL     1      -0.757  -0.557  -0.031  0.00  0.00    +0.166 HD
ENDROOT
BRANCH  10  14
ATOM     14  C   UNL     1       1.529  -5.774   1.902  0.00  0.00    +0.121 C 
BRANCH  14  15
ATOM     15  C   UNL     1       0.405  -6.750   1.671  0.00  0.00    -0.013 A 
ATOM     16  C   UNL     1      -0.711  -6.726   2.485  0.00  0.00    +0.008 A 
ATOM     17  C   UNL     1      -1.742  -7.621   2.273  0.00  0.00    +0.020 A 
ATOM     18  C   UNL     1      -1.661  -8.545   1.246  0.00  0.00    +0.043 A 
ATOM     19  C   UNL     1      -0.547  -8.575   0.429  0.00  0.00    +0.043 A 
ATOM     20  C   UNL     1       0.488  -7.673   0.635  0.00  0.00    +0.030 A 
ATOM     21 CL   UNL     1      -2.960  -9.668   0.985  0.00  0.00    -0.083 Cl
BRANCH  20  22
ATOM     22  N   UNL     1       1.612  -7.696  -0.193  0.00  0.00    -0.358 N 
ATOM     23  H   UNL     1       2.337  -7.067  -0.045  0.00  0.00    +0.142 HD
ATOM     24  H   UNL     1       1.669  -8.340  -0.916  0.00  0.00    +0.142 HD
ENDBRANCH  20  22
ENDBRANCH  14  15
ENDBRANCH  10  14
TORSDOF 3
