REMARK  Name = ZINC14459503
REMARK  7 active torsions:
REMARK  status: ('A' for Active; 'I' for Inactive)
REMARK    1  A    between atoms: C_1  and  O_2
REMARK    2  A    between atoms: O_2  and  C_3
REMARK    3  A    between atoms: C_7  and  C_10
REMARK    4  A    between atoms: C_8  and  O_9
REMARK    5  A    between atoms: C_21  and  S_26
REMARK    6  A    between atoms: S_26  and  N_29
REMARK    7  A    between atoms: N_29  and  C_30
REMARK                            x       y       z     vdW  Elec       q    Type
REMARK                         _______ _______ _______ _____ _____    ______ ____
ROOT
ATOM      1  C   UNL     1      -2.505  -0.093  -0.018  0.00  0.00    +0.109 C 
ATOM      2  C   UNL     1      -2.327   1.198  -0.797  0.00  0.00    +0.029 C 
ATOM      3  C   UNL     1      -3.502   2.184  -0.798  0.00  0.00    +0.033 C 
ATOM      4  C   UNL     1      -2.780   3.523  -0.960  0.00  0.00    -0.030 C 
ATOM      5  C   UNL     1      -1.541   3.430  -0.491  0.00  0.00    -0.023 C 
ATOM      6  C   UNL     1      -1.338   2.059   0.045  0.00  0.00    +0.049 C 
ATOM      7  C   UNL     1      -0.017   1.395   0.010  0.00  0.00    -0.018 A 
ATOM      8  C   UNL     1       1.166   2.101   0.002  0.00  0.00    +0.034 A 
ATOM      9  C   UNL     1       2.377   1.433  -0.000  0.00  0.00    +0.106 A 
ATOM     10  C   UNL     1       2.404   0.051   0.005  0.00  0.00    +0.030 A 
ATOM     11  C   UNL     1       1.224  -0.665   0.007  0.00  0.00    +0.025 A 
ATOM     12  C   UNL     1       0.002  -0.004   0.002  0.00  0.00    +0.031 A 
ATOM     13  N   UNL     1      -1.181  -0.752  -0.031  0.00  0.00    -0.336 N 
ATOM     14  H   UNL     1      -1.131  -1.721  -0.062  0.00  0.00    +0.147 HD
ENDROOT
BRANCH   1  19
ATOM     15  C   UNL     1      -5.824  -1.587  -1.058  0.00  0.00    +0.162 A 
ATOM     16  C   UNL     1      -5.411  -2.590  -1.920  0.00  0.00    +0.049 A 
ATOM     17  C   UNL     1      -4.064  -2.781  -2.164  0.00  0.00    +0.004 A 
ATOM     18  C   UNL     1      -3.126  -1.973  -1.549  0.00  0.00    +0.009 A 
ATOM     19  C   UNL     1      -3.530  -0.971  -0.687  0.00  0.00    +0.018 A 
ATOM     20  C   UNL     1      -4.879  -0.777  -0.435  0.00  0.00    +0.163 A 
BRANCH  15  22
ATOM     21  C   UNL     1      -8.061  -2.270  -1.487  0.00  0.00    +0.277 C 
ATOM     22  O   UNL     1      -7.149  -1.397  -0.817  0.00  0.00    -0.491 OA
ENDBRANCH  15  22
BRANCH  20  23
ATOM     23  O   UNL     1      -5.279   0.205   0.416  0.00  0.00    -0.503 OA
ATOM     24  H   UNL     1      -5.439   1.057  -0.013  0.00  0.00    +0.292 HD
ENDBRANCH  20  23
ENDBRANCH   1  19
BRANCH   9  25
ATOM     25  S   UNL     1       3.886   2.344  -0.010  0.00  0.00    +0.059 S 
ATOM     26  O   UNL     1       3.592   3.622   0.536  0.00  0.00    -0.153 OA
ATOM     27  O   UNL     1       4.879   1.489   0.540  0.00  0.00    -0.153 OA
BRANCH  25  28
ATOM     28  N   UNL     1       4.299   2.590  -1.595  0.00  0.00    -0.187 NA
ATOM     29  H   UNL     1       5.104   2.186  -1.955  0.00  0.00    +0.148 HD
BRANCH  28  30
ATOM     30  C   UNL     1       3.448   3.418  -2.453  0.00  0.00    +0.077 C 
ATOM     31  C   UNL     1       2.477   2.523  -3.226  0.00  0.00    +0.020 C 
ATOM     32  C   UNL     1       1.589   3.388  -4.122  0.00  0.00    +0.002 C 
ATOM     33  C   UNL     1       2.463   4.164  -5.110  0.00  0.00    +0.000 C 
ATOM     34  C   UNL     1       3.433   5.059  -4.337  0.00  0.00    +0.002 C 
ATOM     35  C   UNL     1       4.322   4.194  -3.441  0.00  0.00    +0.020 C 
ENDBRANCH  28  30
ENDBRANCH  25  28
ENDBRANCH   9  25
TORSDOF 6
