REMARK  Name = ZINC61819334
REMARK  7 active torsions:
REMARK  status: ('A' for Active; 'I' for Inactive)
REMARK    1  A    between atoms: C_1  and  C_2
REMARK    2  A    between atoms: C_2  and  C_3
REMARK    3  A    between atoms: C_3  and  C_5
REMARK    4  A    between atoms: C_3  and  N_19
REMARK    5  A    between atoms: C_5  and  C_7
REMARK    6  A    between atoms: C_5  and  N_8
REMARK    7  A    between atoms: N_19  and  C_20
REMARK                            x       y       z     vdW  Elec       q    Type
REMARK                         _______ _______ _______ _____ _____    ______ ____
ROOT
ATOM      1  N   UNL     1       1.687  -2.270  -2.272  0.00  0.00    +0.380 N 
ATOM      2  C   UNL     1       0.990  -1.793  -3.473  0.00  0.00    -0.078 C 
ATOM      3  C   UNL     1       1.769  -2.215  -4.721  0.00  0.00    -0.012 C 
ATOM      4  C   UNL     1       1.871  -3.742  -4.759  0.00  0.00    -0.033 C 
ATOM      5  C   UNL     1       0.469  -4.345  -4.877  0.00  0.00    +0.007 C 
ATOM      6  C   UNL     1       0.572  -5.871  -4.912  0.00  0.00    +0.001 C 
ATOM      7  C   UNL     1       1.414  -6.298  -6.115  0.00  0.00    +0.000 C 
ATOM      8  C   UNL     1       2.816  -5.696  -5.996  0.00  0.00    +0.001 C 
ATOM      9  C   UNL     1       2.714  -4.169  -5.961  0.00  0.00    +0.007 C 
ATOM     10  C   UNL     1       2.531  -4.235  -3.469  0.00  0.00    -0.012 C 
ATOM     11  C   UNL     1       1.724  -3.737  -2.267  0.00  0.00    -0.078 C 
ATOM     12  H   UNL     1       2.630  -1.911  -2.268  0.00  0.00    -0.082 HD
ENDROOT
BRANCH   1  13
ATOM     13  C   UNL     1       0.978  -1.796  -1.076  0.00  0.00    -0.086 C 
ATOM     14  C   UNL     1       1.753  -2.215   0.175  0.00  0.00    -0.015 C 
BRANCH  13  15
ATOM     15  C   UNL     1       0.868  -0.271  -1.120  0.00  0.00    -0.087 C 
BRANCH  15  16
ATOM     16  N   UNL     1       0.206   0.207   0.101  0.00  0.00    +0.378 N 
ATOM     17  C   UNL     1      -1.182  -0.274   0.127  0.00  0.00    -0.100 C 
ATOM     18  H   UNL     1       0.698  -0.142   0.910  0.00  0.00    -0.086 HD
ATOM     19  H   UNL     1       0.212   1.216   0.114  0.00  0.00    -0.086 HD
ENDBRANCH  15  16
BRANCH  15  21
ATOM     20  C   UNL     1       2.152   1.853  -1.406  0.00  0.00    +0.002 C 
ATOM     21  C   UNL     1       2.267   0.340  -1.214  0.00  0.00    -0.021 C 
ENDBRANCH  15  21
ENDBRANCH  13  15
ENDBRANCH   1  13
TORSDOF 4
