REMARK  Name = ZINC35570636
REMARK  6 active torsions:
REMARK  status: ('A' for Active; 'I' for Inactive)
REMARK    1  A    between atoms: C_1  and  C_2
REMARK    2  A    between atoms: C_2  and  N_3
REMARK    3  A    between atoms: N_3  and  C_4
REMARK    4  A    between atoms: C_4  and  C_6
REMARK    5  A    between atoms: C_4  and  C_17
REMARK    6  A    between atoms: C_13  and  C_16
REMARK                            x       y       z     vdW  Elec       q    Type
REMARK                         _______ _______ _______ _____ _____    ______ ____
ROOT
ATOM      1  C   UNL     1       0.710  -1.947  -1.215  0.00  0.00    +0.027 C 
ENDROOT
BRANCH   1   2
ATOM      2  C   UNL     1       1.520  -2.432  -2.389  0.00  0.00    -0.054 A 
ATOM      3  C   UNL     1       1.425  -1.790  -3.610  0.00  0.00    +0.006 A 
ATOM      4  C   UNL     1       2.167  -2.227  -4.687  0.00  0.00    +0.046 A 
ATOM      5  C   UNL     1       3.020  -3.321  -4.554  0.00  0.00    +0.124 A 
ATOM      6  C   UNL     1       3.102  -3.961  -3.324  0.00  0.00    -0.002 A 
ATOM      7  C   UNL     1       2.367  -3.517  -2.247  0.00  0.00    +0.009 A 
ATOM      8  C   UNL     1       4.076  -5.112  -3.487  0.00  0.00    +0.083 C 
ATOM      9  C   UNL     1       4.178  -5.230  -5.026  0.00  0.00    +0.175 C 
ATOM     10  O   UNL     1       3.841  -3.904  -5.469  0.00  0.00    -0.488 OA
ATOM     11  C   UNL     1       3.175  -6.255  -5.559  0.00  0.00    +0.052 C 
ENDBRANCH   1   2
BRANCH   1  12
ATOM     12  C   UNL     1      -0.700  -2.467  -1.328  0.00  0.00    +0.097 A 
ATOM     13  C   UNL     1      -1.203  -3.525  -0.666  0.00  0.00    +0.044 A 
ATOM     14  C   UNL     1      -2.552  -3.657  -1.070  0.00  0.00    +0.057 A 
ATOM     15  C   UNL     1      -2.792  -2.671  -1.954  0.00  0.00    +0.170 A 
ATOM     16  O   UNL     1      -1.669  -1.951  -2.102  0.00  0.00    -0.454 OA
ATOM     17 BR   UNL     1      -4.436  -2.351  -2.834  0.00  0.00    -0.008 Br
ENDBRANCH   1  12
BRANCH   1  18
ATOM     18  N   UNL     1       0.690  -0.478  -1.207  0.00  0.00    +0.388 N 
ATOM     19  H   UNL     1       0.202  -0.144  -2.024  0.00  0.00    -0.084 HD
ATOM     20  H   UNL     1       1.636  -0.129  -1.214  0.00  0.00    -0.084 HD
BRANCH  18  22
ATOM     21  C   UNL     1      -0.019   1.526   0.010  0.00  0.00    -0.017 C 
ATOM     22  C   UNL     1       0.002  -0.004   0.002  0.00  0.00    -0.085 C 
ENDBRANCH  18  22
ENDBRANCH   1  18
TORSDOF 4
