REMARK  Name = ZINC12886200
REMARK  7 active torsions:
REMARK  status: ('A' for Active; 'I' for Inactive)
REMARK    1  A    between atoms: C_1  and  C_2
REMARK    2  A    between atoms: C_13  and  C_15
REMARK    3  A    between atoms: C_15  and  C_17
REMARK    4  A    between atoms: C_15  and  O_18
REMARK    5  A    between atoms: N_21  and  C_24
REMARK    6  A    between atoms: C_24  and  C_25
REMARK    7  A    between atoms: C_25  and  C_26
REMARK                            x       y       z     vdW  Elec       q    Type
REMARK                         _______ _______ _______ _____ _____    ______ ____
ROOT
ATOM      1  C   UNL     1      11.316  -3.202  -1.278  0.00  0.00    +0.044 C 
ATOM      2  C   UNL     1      10.651  -1.946  -0.778  0.00  0.00    -0.050 A 
ATOM      3  C   UNL     1      11.419  -0.885  -0.334  0.00  0.00    +0.005 A 
ATOM      4  C   UNL     1      10.815   0.267   0.126  0.00  0.00    +0.024 A 
ATOM      5  C   UNL     1       9.426   0.370   0.147  0.00  0.00    +0.036 A 
ATOM      6  C   UNL     1       8.664  -0.704  -0.303  0.00  0.00    -0.027 A 
ATOM      7  C   UNL     1       9.271  -1.852  -0.761  0.00  0.00    +0.008 A 
ATOM      8  C   UNL     1       7.230  -0.280  -0.154  0.00  0.00    +0.050 C 
ATOM      9  C   UNL     1       6.495  -0.302  -1.500  0.00  0.00    +0.088 C 
ATOM     10  C   UNL     1       5.736  -1.659  -1.508  0.00  0.00    +0.075 C 
ATOM     11  C   UNL     1       6.096  -2.323  -0.162  0.00  0.00    -0.028 C 
ATOM     12  C   UNL     1       4.282  -1.245  -1.487  0.00  0.00    +0.224 C 
ATOM     13  O   UNL     1       3.338  -2.005  -1.479  0.00  0.00    -0.275 OA
ATOM     14  N   UNL     1       4.200   0.091  -1.479  0.00  0.00    -0.241 N 
ATOM     15  C   UNL     1       5.381   0.720  -1.492  0.00  0.00    +0.225 C 
ATOM     16  O   UNL     1       5.534   1.922  -1.495  0.00  0.00    -0.275 OA
ATOM     17  C   UNL     1       7.290   1.110   0.417  0.00  0.00    +0.211 C 
ATOM     18  O   UNL     1       6.346   1.820   0.695  0.00  0.00    -0.277 OA
ATOM     19  N   UNL     1       8.594   1.413   0.561  0.00  0.00    -0.286 N 
ATOM     20  H   UNL     1       8.918   2.258   0.911  0.00  0.00    +0.155 HD
ATOM     21  N   UNL     1       6.492  -1.201   0.692  0.00  0.00    +0.396 N 
ATOM     22  H   UNL     1       5.660  -0.738   1.079  0.00  0.00    -0.083 HD
ATOM     23  H   UNL     1       7.087  -1.532   1.460  0.00  0.00    -0.083 HD
ENDROOT
BRANCH  11  24
ATOM     24  C   UNL     1       4.884  -3.059   0.410  0.00  0.00    +0.098 C 
ATOM     25  C   UNL     1       5.263  -3.709   1.742  0.00  0.00    +0.036 C 
BRANCH  24  26
ATOM     26  O   UNL     1       4.462  -4.069  -0.510  0.00  0.00    -0.394 OA
ATOM     27  H   UNL     1       5.138  -4.735  -0.699  0.00  0.00    +0.210 HD
ENDBRANCH  24  26
ENDBRANCH  11  24
BRANCH  14  28
ATOM     28  C   UNL     1       2.922   0.806  -1.464  0.00  0.00    +0.121 C 
BRANCH  28  29
ATOM     29  C   UNL     1       2.490   1.048  -0.016  0.00  0.00    +0.054 C 
BRANCH  29  30
ATOM     30  C   UNL     1       1.175   1.783   0.000  0.00  0.00    -0.046 A 
ATOM     31  C   UNL     1      -0.013   1.076   0.008  0.00  0.00    +0.004 A 
ATOM     32  C   UNL     1      -1.219   1.751   0.017  0.00  0.00    +0.000 A 
ATOM     33  C   UNL     1      -1.238   3.133   0.029  0.00  0.00    +0.000 A 
ATOM     34  C   UNL     1      -0.050   3.840   0.022  0.00  0.00    +0.000 A 
ATOM     35  C   UNL     1       1.156   3.165   0.008  0.00  0.00    +0.004 A 
ENDBRANCH  29  30
ENDBRANCH  28  29
ENDBRANCH  14  28
TORSDOF 5
