REMARK  Name = ZINC43711105
REMARK  9 active torsions:
REMARK  status: ('A' for Active; 'I' for Inactive)
REMARK    1  A    between atoms: C_1  and  C_2
REMARK    2  A    between atoms: C_6  and  O_9
REMARK    3  A    between atoms: C_7  and  C_8
REMARK    4  A    between atoms: O_9  and  C_10
REMARK    5  A    between atoms: C_10  and  C_12
REMARK    6  A    between atoms: C_10  and  C_13
REMARK    7  A    between atoms: N_15  and  N_16
REMARK    8  A    between atoms: N_19  and  C_20
REMARK    9  A    between atoms: C_20  and  C_21
REMARK                            x       y       z     vdW  Elec       q    Type
REMARK                         _______ _______ _______ _____ _____    ______ ____
ROOT
ATOM      1  N   UNL     1       1.280  -6.725   4.739  0.00  0.00    -0.218 N 
ATOM      2  C   UNL     1       1.399  -8.064   4.835  0.00  0.00    +0.316 C 
ATOM      3  O   UNL     1       1.903  -8.561   5.824  0.00  0.00    -0.251 OA
ATOM      4  N   UNL     1       0.961  -8.853   3.834  0.00  0.00    -0.291 N 
ATOM      5  H   UNL     1       1.597  -6.157   5.459  0.00  0.00    +0.174 HD
ATOM      6  H   UNL     1       0.559  -8.457   3.045  0.00  0.00    +0.151 HD
ENDROOT
BRANCH   1   9
ATOM      7  C   UNL     1       0.582  -4.814   3.503  0.00  0.00    +0.270 C 
ATOM      8  O   UNL     1       0.977  -4.104   4.403  0.00  0.00    -0.270 OA
ATOM      9  N   UNL     1       0.701  -6.153   3.599  0.00  0.00    -0.230 N 
ATOM     10  H   UNL     1       0.385  -6.721   2.879  0.00  0.00    +0.173 HD
BRANCH   7  11
ATOM     11  C   UNL     1      -0.043  -4.199   2.277  0.00  0.00    +0.257 C 
ATOM     12  C   UNL     1      -1.514  -4.611   2.192  0.00  0.00    +0.062 C 
BRANCH  11  13
ATOM     13  O   UNL     1       0.050  -2.776   2.358  0.00  0.00    -0.480 OA
BRANCH  13  19
ATOM     14  C   UNL     1       0.438   1.473  -0.013  0.00  0.00    +0.044 C 
ATOM     15  C   UNL     1       0.221  -0.018  -0.009  0.00  0.00    -0.044 A 
ATOM     16  C   UNL     1       0.006  -0.688  -1.200  0.00  0.00    +0.004 A 
ATOM     17  C   UNL     1      -0.194  -2.056  -1.200  0.00  0.00    +0.004 A 
ATOM     18  C   UNL     1      -0.179  -2.757  -0.009  0.00  0.00    +0.046 A 
ATOM     19  C   UNL     1       0.036  -2.088   1.186  0.00  0.00    +0.125 A 
ATOM     20  C   UNL     1       0.242  -0.716   1.183  0.00  0.00    -0.006 A 
ATOM     21  C   UNL     1       0.482   0.014   2.479  0.00  0.00    +0.048 C 
ENDBRANCH  13  19
ENDBRANCH  11  13
ENDBRANCH   7  11
ENDBRANCH   1   9
BRANCH   4  22
ATOM     22  C   UNL     1       1.090 -10.309   3.938  0.00  0.00    +0.182 C 
BRANCH  22  23
ATOM     23  C   UNL     1       0.527 -10.953   2.697  0.00  0.00    +0.155 A 
ATOM     24  N   UNL     1      -0.712 -11.330   2.516  0.00  0.00    -0.132 NA
ATOM     25  N   UNL     1      -0.855 -11.843   1.344  0.00  0.00    -0.129 NA
ATOM     26  C   UNL     1       0.305 -11.820   0.707  0.00  0.00    +0.161 A 
ATOM     27  N   UNL     1       1.215 -11.243   1.559  0.00  0.00    -0.285 N 
ATOM     28  C   UNL     1       2.512 -11.076   1.174  0.00  0.00    +0.094 A 
ATOM     29  C   UNL     1       2.920 -11.471  -0.050  0.00  0.00    +0.018 A 
ATOM     30  C   UNL     1       2.012 -12.061  -0.945  0.00  0.00    +0.005 A 
ATOM     31  C   UNL     1       0.716 -12.242  -0.572  0.00  0.00    +0.048 A 
ENDBRANCH  22  23
ENDBRANCH   4  22
TORSDOF 6
