REMARK  Name = ZINC54559976
REMARK  9 active torsions:
REMARK  status: ('A' for Active; 'I' for Inactive)
REMARK    1  A    between atoms: C_1  and  C_2
REMARK    2  A    between atoms: C_2  and  C_3
REMARK    3  A    between atoms: C_2  and  C_4
REMARK    4  A    between atoms: C_8  and  N_22
REMARK    5  A    between atoms: C_10  and  C_13
REMARK    6  A    between atoms: C_13  and  N_14
REMARK    7  A    between atoms: N_14  and  C_15
REMARK    8  A    between atoms: N_14  and  C_16
REMARK    9  A    between atoms: N_22  and  C_23
REMARK                            x       y       z     vdW  Elec       q    Type
REMARK                         _______ _______ _______ _____ _____    ______ ____
ROOT
ATOM      1  C   UNL     1      -1.433  -0.534   0.013  0.00  0.00    -0.008 C 
ATOM      2  C   UNL     1      -2.173  -0.027  -1.227  0.00  0.00    +0.002 C 
ATOM      3  C   UNL     1      -1.457  -0.520  -2.486  0.00  0.00    -0.015 C 
ATOM      4  C   UNL     1      -1.436  -2.050  -2.494  0.00  0.00    -0.071 C 
ATOM      5  C   UNL     1      -0.696  -2.557  -1.254  0.00  0.00    -0.042 C 
ATOM      6  C   UNL     1      -1.413  -2.063   0.004  0.00  0.00    +0.004 C 
ENDROOT
BRANCH   4   7
ATOM      7  N   UNL     1      -0.749  -2.524  -3.703  0.00  0.00    +0.379 N 
ATOM      8  C   UNL     1      -1.524  -2.139  -4.889  0.00  0.00    -0.100 C 
ATOM      9  H   UNL     1       0.170  -2.109  -3.752  0.00  0.00    -0.086 HD
ATOM     10  H   UNL     1      -0.662  -3.529  -3.668  0.00  0.00    -0.086 HD
ENDBRANCH   4   7
BRANCH   1  12
ATOM     11  C   UNL     1      -0.019   1.526   0.010  0.00  0.00    +0.007 C 
ATOM     12  C   UNL     1       0.002  -0.004   0.002  0.00  0.00    -0.014 C 
ATOM     13  C   UNL     1       0.742  -0.511   1.242  0.00  0.00    +0.007 C 
ENDBRANCH   1  12
BRANCH   5  14
ATOM     14  C   UNL     1      -0.676  -4.087  -1.263  0.00  0.00    -0.077 C 
BRANCH  14  15
ATOM     15  N   UNL     1       0.136  -4.572  -0.139  0.00  0.00    +0.380 N 
ATOM     16  C   UNL     1       1.534  -4.163  -0.332  0.00  0.00    -0.096 C 
ATOM     17  H   UNL     1      -0.213  -4.179   0.723  0.00  0.00    -0.082 HD
BRANCH  15  18
ATOM     18  C   UNL     1       0.059  -6.037  -0.075  0.00  0.00    -0.065 C 
ATOM     19  C   UNL     1      -1.397  -6.465   0.138  0.00  0.00    +0.013 C 
ATOM     20  C   UNL     1      -1.457  -7.988   0.281  0.00  0.00    +0.158 C 
ATOM     21  O   UNL     1      -0.625  -8.396   1.369  0.00  0.00    -0.380 OA
ATOM     22  C   UNL     1       0.755  -8.065   1.204  0.00  0.00    +0.158 C 
ATOM     23  C   UNL     1       0.905  -6.545   1.097  0.00  0.00    +0.013 C 
ENDBRANCH  15  18
ENDBRANCH  14  15
ENDBRANCH   5  14
TORSDOF 5
