REMARK  Name = ZINC65397080
REMARK  7 active torsions:
REMARK  status: ('A' for Active; 'I' for Inactive)
REMARK    1  A    between atoms: C_1  and  C_2
REMARK    2  A    between atoms: C_6  and  N_8
REMARK    3  A    between atoms: N_8  and  C_9
REMARK    4  A    between atoms: C_9  and  C_10
REMARK    5  A    between atoms: C_10  and  S_11
REMARK    6  A    between atoms: S_11  and  C_12
REMARK    7  A    between atoms: N_16  and  C_17
REMARK                            x       y       z     vdW  Elec       q    Type
REMARK                         _______ _______ _______ _____ _____    ______ ____
ROOT
ATOM      1  C   UNL     1      -0.018   1.503   0.010  0.00  0.00    +0.086 C 
ATOM      2  C   UNL     1       0.002  -0.004   0.002  0.00  0.00    +0.106 A 
ATOM      3  N   UNL     1       0.005  -0.639  -1.151  0.00  0.00    -0.347 N 
ATOM      4  C   UNL     1       0.015  -1.968  -1.206  0.00  0.00    +0.022 A 
ATOM      5  C   UNL     1       0.006  -2.683  -0.036  0.00  0.00    +0.010 A 
ATOM      6  C   UNL     1       0.021  -1.980   1.175  0.00  0.00    +0.125 A 
ATOM      7  N   UNL     1       0.022  -0.651   1.149  0.00  0.00    -0.219 NA
ATOM      8  C   UNL     1      -0.051  -4.188   0.007  0.00  0.00    +0.021 C 
ATOM      9  C   UNL     1       0.608  -4.793  -1.234  0.00  0.00    -0.078 C 
ATOM     10  N   UNL     1      -0.419  -4.999  -2.261  0.00  0.00    +0.380 N 
ATOM     11  C   UNL     1      -1.021  -3.721  -2.645  0.00  0.00    -0.076 C 
ATOM     12  C   UNL     1       0.057  -2.636  -2.554  0.00  0.00    +0.034 C 
ATOM     13  H   UNL     1       0.001  -5.427  -3.072  0.00  0.00    -0.086 HD
ATOM     14  H   UNL     1       0.000  -0.128  -1.976  0.00  0.00    +0.167 HD
ATOM     15  H   UNL     1      -1.135  -5.609  -1.898  0.00  0.00    -0.086 HD
ENDROOT
BRANCH   6  16
ATOM     16  N   UNL     1       0.038  -2.660   2.382  0.00  0.00    -0.328 N 
ATOM     17  H   UNL     1       0.041  -3.630   2.393  0.00  0.00    +0.147 HD
BRANCH  16  18
ATOM     18  C   UNL     1       0.053  -1.913   3.643  0.00  0.00    +0.114 C 
BRANCH  18  19
ATOM     19  C   UNL     1       0.071  -2.894   4.817  0.00  0.00    +0.096 C 
BRANCH  19  20
ATOM     20  S   UNL     1       0.089  -1.970   6.377  0.00  0.00    -0.084 S 
BRANCH  20  21
ATOM     21  C   UNL     1       0.109  -3.224   7.615  0.00  0.00    +0.191 A 
ATOM     22  N   UNL     1       0.116  -4.521   7.412  0.00  0.00    -0.123 NA
ATOM     23  N   UNL     1       0.130  -5.139   8.539  0.00  0.00    -0.137 NA
ATOM     24  C   UNL     1       0.134  -4.281   9.520  0.00  0.00    +0.225 A 
ATOM     25  N   UNL     1       0.127  -3.031   8.967  0.00  0.00    -0.312 N 
ATOM     26  C   UNL     1       0.133  -1.749   9.677  0.00  0.00    +0.152 C 
ENDBRANCH  20  21
ENDBRANCH  19  20
ENDBRANCH  18  19
ENDBRANCH  16  18
ENDBRANCH   6  16
TORSDOF 5
