REMARK  Name = ZINC13186586
REMARK  6 active torsions:
REMARK  status: ('A' for Active; 'I' for Inactive)
REMARK    1  A    between atoms: C_1  and  C_2
REMARK    2  A    between atoms: C_5  and  C_26
REMARK    3  A    between atoms: C_6  and  S_9
REMARK    4  A    between atoms: S_9  and  N_12
REMARK    5  A    between atoms: N_12  and  C_13
REMARK    6  A    between atoms: C_18  and  C_19
REMARK                            x       y       z     vdW  Elec       q    Type
REMARK                         _______ _______ _______ _____ _____    ______ ____
ROOT
ATOM      1  N   UNL     1      -3.544  -0.374  -0.435  0.00  0.00    -0.215 N 
ATOM      2  H   UNL     1      -2.598  -0.335  -0.228  0.00  0.00    +0.174 HD
ENDROOT
BRANCH   1   3
ATOM      3  C   UNL     1      -4.418  -1.029   0.426  0.00  0.00    +0.066 A 
ATOM      4  C   UNL     1      -5.431  -0.322   1.060  0.00  0.00    +0.074 A 
ATOM      5  C   UNL     1      -6.301  -0.979   1.912  0.00  0.00    +0.164 A 
ATOM      6  C   UNL     1      -6.161  -2.344   2.149  0.00  0.00    +0.163 A 
ATOM      7  C   UNL     1      -5.158  -3.059   1.532  0.00  0.00    +0.066 A 
ATOM      8  C   UNL     1      -4.274  -2.406   0.662  0.00  0.00    +0.089 A 
ATOM      9  O   UNL     1      -7.026  -2.973   2.999  0.00  0.00    -0.488 OA
ATOM     10  C   UNL     1      -8.378  -3.082   2.548  0.00  0.00    +0.232 C 
ATOM     11  C   UNL     1      -9.158  -1.817   2.869  0.00  0.00    +0.082 C 
ATOM     12  C   UNL     1      -8.630  -0.605   2.116  0.00  0.00    +0.232 C 
ATOM     13  O   UNL     1      -7.301  -0.289   2.532  0.00  0.00    -0.488 OA
BRANCH   8  14
ATOM     14  C   UNL     1      -3.201  -3.160  -0.002  0.00  0.00    +0.388 C 
ATOM     15  O   UNL     1      -2.435  -2.592  -0.755  0.00  0.00    -0.241 OA
ATOM     16  O   UNL     1      -3.065  -4.482   0.226  0.00  0.00    -0.241 OA
ENDBRANCH   8  14
ENDBRANCH   1   3
BRANCH   1  17
ATOM     17  S   UNL     1      -4.120   0.338  -1.814  0.00  0.00    +0.074 S 
ATOM     18  O   UNL     1      -4.964  -0.617  -2.443  0.00  0.00    -0.150 OA
ATOM     19  O   UNL     1      -3.000   0.915  -2.471  0.00  0.00    -0.150 OA
BRANCH  17  25
ATOM     20  C   UNL     1      -8.829   2.553  -1.302  0.00  0.00    +0.045 C 
ATOM     21  C   UNL     1      -7.338   2.642  -1.106  0.00  0.00    -0.029 A 
ATOM     22  C   UNL     1      -6.781   3.774  -0.542  0.00  0.00    +0.025 A 
ATOM     23  C   UNL     1      -5.412   3.856  -0.363  0.00  0.00    +0.046 A 
ATOM     24  C   UNL     1      -4.599   2.805  -0.749  0.00  0.00    -0.004 A 
ATOM     25  C   UNL     1      -5.155   1.675  -1.317  0.00  0.00    +0.131 A 
ATOM     26  C   UNL     1      -6.526   1.590  -1.491  0.00  0.00    +0.071 A 
ATOM     27 CL   UNL     1      -7.225   0.168  -2.199  0.00  0.00    -0.081 Cl
ATOM     28  C   UNL     1      -3.108   2.895  -0.554  0.00  0.00    +0.047 C 
ATOM     29 CL   UNL     1      -4.713   5.279   0.345  0.00  0.00    -0.083 Cl
ENDBRANCH  17  25
ENDBRANCH   1  17
TORSDOF 4
