REMARK  Name = ZINC54928166
REMARK  5 active torsions:
REMARK  status: ('A' for Active; 'I' for Inactive)
REMARK    1  A    between atoms: C_1  and  N_2
REMARK    2  A    between atoms: C_4  and  C_7
REMARK    3  A    between atoms: C_7  and  N_8
REMARK    4  A    between atoms: N_8  and  C_9
REMARK    5  A    between atoms: C_15  and  O_20
REMARK                            x       y       z     vdW  Elec       q    Type
REMARK                         _______ _______ _______ _____ _____    ______ ____
ROOT
ATOM      1  N   UNL     1       1.424  -3.675  -1.855  0.00  0.00    -0.308 N 
ATOM      2  C   UNL     1       2.132  -4.609  -0.976  0.00  0.00    +0.131 C 
ATOM      3  C   UNL     1       2.065  -3.148  -2.966  0.00  0.00    +0.161 A 
ATOM      4  N   UNL     1       1.595  -2.301  -3.855  0.00  0.00    -0.229 NA
ATOM      5  C   UNL     1       2.332  -1.876  -4.880  0.00  0.00    +0.056 A 
ATOM      6  C   UNL     1       3.589  -2.384  -4.927  0.00  0.00    +0.042 A 
ATOM      7  S   UNL     1       3.638  -3.431  -3.500  0.00  0.00    -0.054 S 
ATOM      8  C   UNL     1       4.647  -2.104  -5.940  0.00  0.00    +0.153 C 
ATOM      9  C   UNL     1       4.230  -0.859  -6.739  0.00  0.00    +0.037 C 
ATOM     10  C   UNL     1       2.767  -1.012  -7.164  0.00  0.00    +0.009 C 
ATOM     11  C   UNL     1       1.850  -0.900  -5.944  0.00  0.00    +0.056 C 
ENDROOT
BRANCH   8  12
ATOM     12  O   UNL     1       5.892  -1.860  -5.281  0.00  0.00    -0.387 OA
ATOM     13  H   UNL     1       6.204  -2.601  -4.743  0.00  0.00    +0.210 HD
ENDBRANCH   8  12
BRANCH   1  14
ATOM     14  C   UNL     1       0.039  -3.298  -1.561  0.00  0.00    +0.144 C 
BRANCH  14  18
ATOM     15  C   UNL     1      -0.018   1.461   0.010  0.00  0.00    +0.172 C 
ATOM     16  N   UNL     1       0.002  -0.004   0.002  0.00  0.00    -0.274 N 
ATOM     17  C   UNL     1       0.008  -0.792  -1.094  0.00  0.00    +0.113 A 
ATOM     18  C   UNL     1       0.027  -2.079  -0.676  0.00  0.00    +0.007 A 
ATOM     19  C   UNL     1       0.034  -2.078   0.723  0.00  0.00    +0.139 A 
ATOM     20  N   UNL     1       0.025  -0.834   1.130  0.00  0.00    -0.180 NA
ENDBRANCH  14  18
ENDBRANCH   1  14
TORSDOF 3
