REMARK  Name = ZINC49609531
REMARK  8 active torsions:
REMARK  status: ('A' for Active; 'I' for Inactive)
REMARK    1  A    between atoms: C_1  and  N_2
REMARK    2  A    between atoms: N_2  and  C_3
REMARK    3  A    between atoms: N_2  and  C_15
REMARK    4  A    between atoms: C_3  and  C_4
REMARK    5  A    between atoms: C_9  and  C_10
REMARK    6  A    between atoms: C_11  and  C_12
REMARK    7  A    between atoms: C_12  and  N_13
REMARK    8  A    between atoms: C_15  and  C_16
REMARK                            x       y       z     vdW  Elec       q    Type
REMARK                         _______ _______ _______ _____ _____    ______ ____
ROOT
ATOM      1  C   UNL     1       2.042  -0.059  -1.306  0.00  0.00    -0.048 A 
ATOM      2  C   UNL     1       2.363   0.963  -2.176  0.00  0.00    +0.006 A 
ATOM      3  C   UNL     1       3.668   1.412  -2.268  0.00  0.00    +0.038 A 
ATOM      4  C   UNL     1       4.660   0.839  -1.489  0.00  0.00    +0.125 A 
ATOM      5  C   UNL     1       4.350  -0.185  -0.614  0.00  0.00    +0.055 A 
ATOM      6  C   UNL     1       3.034  -0.637  -0.514  0.00  0.00    +0.029 A 
ATOM      7  F   UNL     1       5.933   1.283  -1.584  0.00  0.00    -0.205 F 
ENDROOT
BRANCH   6   8
ATOM      8  C   UNL     1       2.704  -1.694   0.394  0.00  0.00    -0.068 C 
ATOM      9  C   UNL     1       2.434  -2.560   1.139  0.00  0.00    -0.117 C 
BRANCH   9  10
ATOM     10  C   UNL     1       2.095  -3.647   2.072  0.00  0.00    +0.005 C 
BRANCH  10  11
ATOM     11  N   UNL     1       3.307  -4.078   2.783  0.00  0.00    +0.385 N 
ATOM     12  H   UNL     1       3.075  -4.823   3.422  0.00  0.00    -0.089 HD
ATOM     13  H   UNL     1       3.988  -4.408   2.115  0.00  0.00    -0.089 HD
ATOM     14  H   UNL     1       3.690  -3.299   3.297  0.00  0.00    -0.089 HD
ENDBRANCH  10  11
ENDBRANCH   9  10
ENDBRANCH   6   8
BRANCH   1  15
ATOM     15  C   UNL     1       0.619  -0.547  -1.208  0.00  0.00    -0.042 C 
BRANCH  15  17
ATOM     16  C   UNL     1      -0.123   1.507  -0.215  0.00  0.00    -0.096 C 
ATOM     17  N   UNL     1      -0.024   0.053  -0.031  0.00  0.00    +0.382 N 
ATOM     18  H   UNL     1       0.527  -0.146   0.790  0.00  0.00    -0.082 HD
BRANCH  17  19
ATOM     19  C   UNL     1      -1.370  -0.513   0.133  0.00  0.00    -0.047 C 
BRANCH  19  20
ATOM     20  C   UNL     1      -1.974  -0.018   1.449  0.00  0.00    +0.102 C 
ATOM     21  C   UNL     1      -3.298  -0.742   1.707  0.00  0.00    +0.030 C 
ATOM     22  C   UNL     1      -3.926  -0.199   2.994  0.00  0.00    +0.005 C 
ATOM     23  C   UNL     1      -4.107   1.317   2.860  0.00  0.00    +0.028 C 
ATOM     24  C   UNL     1      -2.752   1.960   2.558  0.00  0.00    +0.160 C 
ATOM     25  O   UNL     1      -2.209   1.389   1.366  0.00  0.00    -0.378 OA
ENDBRANCH  19  20
ENDBRANCH  17  19
ENDBRANCH  15  17
ENDBRANCH   1  15
TORSDOF 7
