REMARK  Name = ZINC49128146
REMARK  7 active torsions:
REMARK  status: ('A' for Active; 'I' for Inactive)
REMARK    1  A    between atoms: C_1  and  C_2
REMARK    2  A    between atoms: C_2  and  C_3
REMARK    3  A    between atoms: C_3  and  C_5
REMARK    4  A    between atoms: C_3  and  N_8
REMARK    5  A    between atoms: C_5  and  C_6
REMARK    6  A    between atoms: C_5  and  C_7
REMARK    7  A    between atoms: N_8  and  C_9
REMARK                            x       y       z     vdW  Elec       q    Type
REMARK                         _______ _______ _______ _____ _____    ______ ____
ROOT
ATOM      1  C   UNL     1      -2.382   1.162  -1.196  0.00  0.00    +0.051 C 
ATOM      2  C   UNL     1      -3.268   1.566  -2.353  0.00  0.00    -0.010 A 
ATOM      3  C   UNL     1      -3.127   1.466  -3.720  0.00  0.00    +0.045 A 
ATOM      4  C   UNL     1      -4.129   1.933  -4.554  0.00  0.00    +0.023 A 
ATOM      5  C   UNL     1      -5.268   2.499  -4.011  0.00  0.00    +0.042 A 
ATOM      6  C   UNL     1      -5.411   2.601  -2.641  0.00  0.00    +0.145 A 
ATOM      7  C   UNL     1      -4.406   2.132  -1.795  0.00  0.00    +0.072 A 
ATOM      8  N   UNL     1      -4.317   2.121  -0.401  0.00  0.00    -0.284 N 
ATOM      9  C   UNL     1      -3.165   1.574   0.032  0.00  0.00    +0.208 C 
ATOM     10  O   UNL     1      -2.820   1.434   1.187  0.00  0.00    -0.277 OA
ATOM     11  F   UNL     1      -6.527   3.156  -2.120  0.00  0.00    -0.204 F 
ATOM     12 CL   UNL     1      -1.695   0.754  -4.397  0.00  0.00    -0.083 Cl
ATOM     13  H   UNL     1      -5.005   2.469   0.187  0.00  0.00    +0.155 HD
ENDROOT
BRANCH   1  14
ATOM     14  N   UNL     1      -2.158  -0.289  -1.202  0.00  0.00    +0.391 N 
ATOM     15  H   UNL     1      -1.702  -0.556  -2.062  0.00  0.00    -0.084 HD
ATOM     16  H   UNL     1      -3.044  -0.767  -1.129  0.00  0.00    -0.084 HD
BRANCH  14  17
ATOM     17  C   UNL     1      -1.308  -0.658  -0.062  0.00  0.00    -0.068 C 
BRANCH  17  18
ATOM     18  C   UNL     1      -1.177  -2.181   0.005  0.00  0.00    -0.031 C 
ATOM     19  C   UNL     1      -0.153  -2.651  -1.030  0.00  0.00    +0.005 C 
ATOM     20  C   UNL     1      -0.713  -2.591   1.404  0.00  0.00    +0.005 C 
ENDBRANCH  17  18
BRANCH  17  22
ATOM     21  C   UNL     1       0.917  -0.295   1.016  0.00  0.00    +0.002 C 
ATOM     22  C   UNL     1       0.078  -0.034  -0.237  0.00  0.00    -0.019 C 
ENDBRANCH  17  22
ENDBRANCH  14  17
ENDBRANCH   1  14
TORSDOF 4
