REMARK  Name = ZINC40798871
REMARK  8 active torsions:
REMARK  status: ('A' for Active; 'I' for Inactive)
REMARK    1  A    between atoms: C_1  and  C_2
REMARK    2  A    between atoms: C_10  and  N_27
REMARK    3  A    between atoms: C_11  and  N_15
REMARK    4  A    between atoms: N_15  and  C_16
REMARK    5  A    between atoms: N_15  and  C_17
REMARK    6  A    between atoms: C_22  and  C_23
REMARK    7  A    between atoms: C_23  and  O_25
REMARK    8  A    between atoms: O_25  and  C_26
REMARK                            x       y       z     vdW  Elec       q    Type
REMARK                         _______ _______ _______ _____ _____    ______ ____
ROOT
ATOM      1  C   UNL     1       1.031   1.294   1.219  0.00  0.00    +0.045 C 
ATOM      2  C   UNL     1       0.851  -0.199   1.121  0.00  0.00    -0.032 A 
ATOM      3  C   UNL     1       0.598  -0.952   2.260  0.00  0.00    +0.008 A 
ATOM      4  C   UNL     1       0.438  -2.319   2.126  0.00  0.00    +0.044 A 
ATOM      5  C   UNL     1       0.535  -2.891   0.861  0.00  0.00    +0.124 A 
ATOM      6  N   UNL     1       0.779  -2.139  -0.201  0.00  0.00    -0.240 NA
ATOM      7  C   UNL     1       0.930  -0.832  -0.104  0.00  0.00    +0.116 A 
ATOM      8  N   UNL     1       0.377  -4.265   0.711  0.00  0.00    -0.283 N 
ATOM      9  C   UNL     1       0.363  -4.829  -0.560  0.00  0.00    +0.150 A 
ATOM     10  C   UNL     1       0.100  -6.190  -0.729  0.00  0.00    +0.104 A 
ATOM     11  C   UNL     1       0.098  -6.705  -2.027  0.00  0.00    +0.129 A 
ATOM     12  N   UNL     1       0.346  -5.885  -3.046  0.00  0.00    -0.333 N 
ATOM     13  C   UNL     1       0.590  -4.606  -2.842  0.00  0.00    +0.200 A 
ATOM     14  N   UNL     1       0.596  -4.079  -1.635  0.00  0.00    -0.221 NA
ATOM     15  H   UNL     1       0.276  -4.830   1.494  0.00  0.00    +0.155 HD
ATOM     16  H   UNL     1       0.347  -6.234  -3.951  0.00  0.00    +0.168 HD
ENDROOT
BRANCH  10  17
ATOM     17  N   UNL     1      -0.156  -7.018   0.375  0.00  0.00    -0.353 N 
ATOM     18  H   UNL     1      -0.219  -6.635   1.264  0.00  0.00    +0.143 HD
ATOM     19  H   UNL     1      -0.270  -7.973   0.249  0.00  0.00    +0.143 HD
ENDBRANCH  10  17
BRANCH  11  20
ATOM     20  N   UNL     1      -0.158  -8.053  -2.252  0.00  0.00    -0.287 N 
ATOM     21  C   UNL     1      -1.540  -8.534  -2.322  0.00  0.00    +0.137 C 
BRANCH  20  22
ATOM     22  C   UNL     1       0.896  -8.944  -2.409  0.00  0.00    +0.049 A 
ATOM     23  C   UNL     1       1.538  -9.471  -1.294  0.00  0.00    +0.024 A 
ATOM     24  C   UNL     1       2.584 -10.356  -1.453  0.00  0.00    +0.002 A 
ATOM     25  C   UNL     1       3.005 -10.726  -2.721  0.00  0.00    +0.001 A 
ATOM     26  C   UNL     1       2.382 -10.214  -3.838  0.00  0.00    +0.017 A 
ATOM     27  C   UNL     1       1.317  -9.321  -3.694  0.00  0.00    +0.080 A 
BRANCH  27  28
ATOM     28  C   UNL     1       0.642  -8.774  -4.885  0.00  0.00    +0.341 C 
ATOM     29  O   UNL     1      -0.301  -8.019  -4.755  0.00  0.00    -0.245 OA
BRANCH  28  30
ATOM     30  O   UNL     1       1.071  -9.111  -6.117  0.00  0.00    -0.464 OA
ATOM     31  C   UNL     1       0.370  -8.544  -7.226  0.00  0.00    +0.280 C 
ENDBRANCH  28  30
ENDBRANCH  27  28
ENDBRANCH  20  22
ENDBRANCH  11  20
TORSDOF 5
