REMARK  Name = ZINC12384110
REMARK  10 active torsions:
REMARK  status: ('A' for Active; 'I' for Inactive)
REMARK    1  A    between atoms: C_1  and  C_2
REMARK    2  A    between atoms: C_2  and  C_37
REMARK    3  A    between atoms: C_3  and  N_26
REMARK    4  A    between atoms: N_5  and  C_20
REMARK    5  A    between atoms: N_8  and  C_9
REMARK    6  A    between atoms: C_9  and  C_10
REMARK    7  A    between atoms: N_12  and  N_13
REMARK    8  A    between atoms: C_14  and  C_15
REMARK    9  A    between atoms: N_26  and  O_36
REMARK   10  A    between atoms: N_29  and  C_30
REMARK                            x       y       z     vdW  Elec       q    Type
REMARK                         _______ _______ _______ _____ _____    ______ ____
ROOT
ATOM      1  C   UNL     1       0.753   0.755   0.583  0.00  0.00    +0.035 C 
ATOM      2  C   UNL     1       2.207   0.358   0.316  0.00  0.00    +0.071 C 
ATOM      3  C   UNL     1       2.881   1.375  -0.625  0.00  0.00    +0.224 C 
ATOM      4  N   UNL     1       3.982   1.924   0.180  0.00  0.00    -0.232 N 
ATOM      5  C   UNL     1       3.975   1.345   1.388  0.00  0.00    +0.312 C 
ATOM      6  O   UNL     1       4.782   1.615   2.257  0.00  0.00    -0.252 OA
ATOM      7  N   UNL     1       3.000   0.443   1.552  0.00  0.00    -0.268 N 
ATOM      8  C   UNL     1       2.277  -1.050  -0.276  0.00  0.00    +0.035 C 
ENDROOT
BRANCH   4   9
ATOM      9  C   UNL     1       4.893   2.897  -0.248  0.00  0.00    +0.040 A 
ATOM     10  C   UNL     1       4.732   3.504  -1.486  0.00  0.00    +0.023 A 
ATOM     11  C   UNL     1       5.630   4.467  -1.903  0.00  0.00    +0.002 A 
ATOM     12  C   UNL     1       6.694   4.819  -1.094  0.00  0.00    +0.000 A 
ATOM     13  C   UNL     1       6.860   4.213   0.138  0.00  0.00    +0.002 A 
ATOM     14  C   UNL     1       5.963   3.253   0.563  0.00  0.00    +0.023 A 
ENDBRANCH   4   9
BRANCH   3  15
ATOM     15  N   UNL     1       1.940   2.434  -0.998  0.00  0.00    -0.144 N 
ATOM     16  C   UNL     1       1.530   3.327  -0.076  0.00  0.00    +0.331 C 
ATOM     17  O   UNL     1       2.010   3.311   1.041  0.00  0.00    -0.250 OA
ATOM     18  N   UNL     1       0.589   4.239  -0.392  0.00  0.00    -0.268 N 
ATOM     19  H   UNL     1       0.255   4.296  -1.301  0.00  0.00    +0.156 HD
BRANCH  18  20
ATOM     20  C   UNL     1       0.094   5.103   0.590  0.00  0.00    +0.035 A 
ATOM     21  C   UNL     1      -1.238   5.495   0.565  0.00  0.00    +0.023 A 
ATOM     22  C   UNL     1      -1.724   6.345   1.540  0.00  0.00    +0.002 A 
ATOM     23  C   UNL     1      -0.884   6.813   2.533  0.00  0.00    +0.000 A 
ATOM     24  C   UNL     1       0.444   6.429   2.558  0.00  0.00    +0.002 A 
ATOM     25  C   UNL     1       0.935   5.575   1.589  0.00  0.00    +0.023 A 
ENDBRANCH  18  20
BRANCH  15  26
ATOM     26  O   UNL     1       1.460   2.518  -2.328  0.00  0.00    -0.289 OA
ATOM     27  H   UNL     1       1.867   1.884  -2.934  0.00  0.00    +0.242 HD
ENDBRANCH  15  26
ENDBRANCH   3  15
BRANCH   7  28
ATOM     28  C   UNL     1       2.760  -0.337   2.769  0.00  0.00    +0.207 C 
BRANCH  28  29
ATOM     29  C   UNL     1       3.540  -1.625   2.702  0.00  0.00    +0.250 C 
ATOM     30  O   UNL     1       4.229  -1.867   1.733  0.00  0.00    -0.272 OA
ATOM     31  N   UNL     1       3.473  -2.507   3.719  0.00  0.00    -0.206 N 
ATOM     32  H   UNL     1       2.922  -2.313   4.494  0.00  0.00    +0.177 HD
BRANCH  31  33
ATOM     33  N   UNL     1       4.199  -3.704   3.657  0.00  0.00    -0.185 NA
ATOM     34  C   UNL     1       4.050  -4.603   4.585  0.00  0.00    +0.176 C 
BRANCH  34  35
ATOM     35  C   UNL     1       3.003  -4.444   5.598  0.00  0.00    +0.147 A 
ATOM     36  C   UNL     1       2.820  -5.238   6.694  0.00  0.00    +0.051 A 
ATOM     37  C   UNL     1       1.709  -4.722   7.386  0.00  0.00    +0.042 A 
ATOM     38  C   UNL     1       1.266  -3.657   6.687  0.00  0.00    +0.196 A 
ATOM     39  O   UNL     1       2.048  -3.492   5.609  0.00  0.00    -0.462 OA
ENDBRANCH  34  35
ENDBRANCH  31  33
ENDBRANCH  28  29
ENDBRANCH   7  28
TORSDOF 8
