REMARK  Name = ZINC08420308
REMARK  9 active torsions:
REMARK  status: ('A' for Active; 'I' for Inactive)
REMARK    1  A    between atoms: C_1  and  C_2
REMARK    2  A    between atoms: C_3  and  C_21
REMARK    3  A    between atoms: C_5  and  C_20
REMARK    4  A    between atoms: C_6  and  C_7
REMARK    5  A    between atoms: C_7  and  O_9
REMARK    6  A    between atoms: O_9  and  C_10
REMARK    7  A    between atoms: C_10  and  C_12
REMARK    8  A    between atoms: C_10  and  C_13
REMARK    9  A    between atoms: N_18  and  C_19
REMARK                            x       y       z     vdW  Elec       q    Type
REMARK                         _______ _______ _______ _____ _____    ______ ____
ROOT
ATOM      1  O   UNL     1       1.720   5.478   1.183  0.00  0.00    -0.449 OA
ENDROOT
BRANCH   1   2
ATOM      2  C   UNL     1       1.347   4.916   0.016  0.00  0.00    +0.343 C 
ATOM      3  O   UNL     1       1.665   5.434  -1.037  0.00  0.00    -0.245 OA
BRANCH   2   9
ATOM      4  C   UNL     1       2.507   1.861  -0.011  0.00  0.00    +0.048 C 
ATOM      5  C   UNL     1       1.064   2.295   0.004  0.00  0.00    +0.004 A 
ATOM      6  C   UNL     1      -0.018   1.503   0.010  0.00  0.00    +0.106 A 
ATOM      7  O   UNL     1      -1.123   2.266   0.019  0.00  0.00    -0.464 OA
ATOM      8  C   UNL     1      -0.805   3.564   0.028  0.00  0.00    +0.116 A 
ATOM      9  C   UNL     1       0.555   3.675   0.016  0.00  0.00    +0.103 A 
ATOM     10  C   UNL     1      -1.783   4.710   0.042  0.00  0.00    +0.087 C 
ATOM     11  C   UNL     1       0.002  -0.004   0.002  0.00  0.00    +0.086 C 
ENDBRANCH   2   9
ENDBRANCH   1   2
BRANCH   1  12
ATOM     12  C   UNL     1       2.499   6.701   1.106  0.00  0.00    +0.259 C 
ATOM     13  C   UNL     1       3.989   6.354   1.065  0.00  0.00    +0.062 C 
BRANCH  12  14
ATOM     14  C   UNL     1       2.215   7.554   2.316  0.00  0.00    +0.261 C 
ATOM     15  O   UNL     1       1.504   7.131   3.202  0.00  0.00    -0.271 OA
ATOM     16  N   UNL     1       2.752   8.786   2.412  0.00  0.00    -0.237 N 
ATOM     17  C   UNL     1       2.498   9.549   3.494  0.00  0.00    +0.306 C 
ATOM     18  O   UNL     1       1.785   9.125   4.382  0.00  0.00    -0.252 OA
ATOM     19  N   UNL     1       3.034  10.782   3.590  0.00  0.00    -0.302 N 
ATOM     20  C   UNL     1       2.758  11.611   4.766  0.00  0.00    +0.129 C 
ATOM     21  H   UNL     1       3.396   9.170   1.607  0.00  0.00    +0.159 HD
ATOM     22  H   UNL     1       3.679  11.165   2.785  0.00  0.00    +0.150 HD
ENDBRANCH  12  14
ENDBRANCH   1  12
TORSDOF 4
