REMARK  Name = ZINC44792708
REMARK  10 active torsions:
REMARK  status: ('A' for Active; 'I' for Inactive)
REMARK    1  A    between atoms: C_1  and  C_2
REMARK    2  A    between atoms: C_2  and  C_3
REMARK    3  A    between atoms: C_2  and  C_4
REMARK    4  A    between atoms: C_2  and  N_19
REMARK    5  A    between atoms: C_4  and  N_5
REMARK    6  A    between atoms: C_6  and  C_8
REMARK    7  A    between atoms: C_8  and  C_15
REMARK    8  A    between atoms: N_16  and  O_17
REMARK    9  A    between atoms: N_19  and  C_20
REMARK   10  A    between atoms: N_19  and  C_21
REMARK                            x       y       z     vdW  Elec       q    Type
REMARK                         _______ _______ _______ _____ _____    ______ ____
ROOT
ATOM      1  C   UNL     1      -2.587  -4.065  -0.174  0.00  0.00    +0.105 C 
ATOM      2  C   UNL     1      -1.844  -4.500   1.105  0.00  0.00    +0.024 C 
ATOM      3  C   UNL     1      -2.278  -3.608   2.237  0.00  0.00    +0.001 C 
ATOM      4  C   UNL     1      -3.439  -4.210   3.050  0.00  0.00    +0.000 C 
ATOM      5  C   UNL     1      -4.510  -4.872   2.162  0.00  0.00    +0.000 C 
ATOM      6  C   UNL     1      -4.819  -4.062   0.932  0.00  0.00    +0.001 C 
ATOM      7  C   UNL     1      -3.946  -4.582  -0.229  0.00  0.00    +0.024 C 
ENDROOT
BRANCH   1   8
ATOM      8  C   UNL     1      -1.825  -4.569  -1.373  0.00  0.00    +0.147 C 
ATOM      9  N   UNL     1      -2.431  -5.263  -2.278  0.00  0.00    -0.076 NA
ATOM     10  N   UNL     1      -0.483  -4.288  -1.504  0.00  0.00    -0.343 N 
ATOM     11  H   UNL     1      -0.024  -3.783  -0.815  0.00  0.00    +0.144 HD
ATOM     12  H   UNL     1       0.002  -4.595  -2.286  0.00  0.00    +0.144 HD
BRANCH   9  13
ATOM     13  O   UNL     1      -1.716  -5.736  -3.405  0.00  0.00    -0.408 OA
ATOM     14  H   UNL     1      -2.253  -6.245  -4.027  0.00  0.00    +0.328 HD
ENDBRANCH   9  13
ENDBRANCH   1   8
BRANCH   1  16
ATOM     15  N   UNL     1      -1.507  -1.844  -0.042  0.00  0.00    -0.316 N 
ATOM     16  C   UNL     1      -2.634  -2.560  -0.223  0.00  0.00    +0.226 C 
ATOM     17  O   UNL     1      -3.687  -1.993  -0.426  0.00  0.00    -0.275 OA
ATOM     18  H   UNL     1      -0.679  -2.293   0.189  0.00  0.00    +0.149 HD
BRANCH  15  19
ATOM     19  C   UNL     1      -1.532  -0.387  -0.194  0.00  0.00    +0.092 C 
BRANCH  19  21
ATOM     20  C   UNL     1      -0.160   1.699  -0.095  0.00  0.00    -0.008 C 
ATOM     21  C   UNL     1      -0.134   0.177   0.064  0.00  0.00    -0.056 C 
ATOM     22  C   UNL     1       0.306  -0.180   1.485  0.00  0.00    -0.008 C 
BRANCH  21  23
ATOM     23  N   UNL     1       0.812  -0.400  -0.901  0.00  0.00    +0.380 N 
ATOM     24  C   UNL     1       0.390  -0.057  -2.266  0.00  0.00    -0.096 C 
ATOM     25  C   UNL     1       2.155   0.142  -0.654  0.00  0.00    -0.096 C 
ATOM     26  H   UNL     1       0.830  -1.403  -0.796  0.00  0.00    -0.082 HD
ENDBRANCH  21  23
ENDBRANCH  19  21
ENDBRANCH  15  19
ENDBRANCH   1  16
TORSDOF 6
