REMARK  Name = ZINC48820645
REMARK  6 active torsions:
REMARK  status: ('A' for Active; 'I' for Inactive)
REMARK    1  A    between atoms: C_1  and  N_2
REMARK    2  A    between atoms: C_3  and  C_11
REMARK    3  A    between atoms: N_7  and  C_10
REMARK    4  A    between atoms: C_11  and  N_12
REMARK    5  A    between atoms: N_12  and  C_13
REMARK    6  A    between atoms: C_13  and  C_14
REMARK                            x       y       z     vdW  Elec       q    Type
REMARK                         _______ _______ _______ _____ _____    ______ ____
ROOT
ATOM      1  C   UNL     1      -2.532  -0.045  -0.180  0.00  0.00    -0.027 C 
ENDROOT
BRANCH   1   4
ATOM      2  C   UNL     1      -1.545  -1.843   1.801  0.00  0.00    +0.153 C 
ATOM      3  N   UNL     1      -0.651  -1.409   0.725  0.00  0.00    -0.302 N 
ATOM      4  C   UNL     1      -1.111  -0.547  -0.233  0.00  0.00    +0.011 A 
ATOM      5  C   UNL     1      -0.287  -0.147  -1.225  0.00  0.00    +0.090 A 
ATOM      6  C   UNL     1       1.042  -0.632  -1.253  0.00  0.00    +0.256 A 
ATOM      7  O   UNL     1       1.804  -0.286  -2.138  0.00  0.00    -0.268 OA
ATOM      8  N   UNL     1       1.458  -1.481  -0.291  0.00  0.00    -0.264 N 
ATOM      9  C   UNL     1       0.616  -1.859   0.689  0.00  0.00    +0.332 A 
ATOM     10  O   UNL     1       1.006  -2.621   1.553  0.00  0.00    -0.246 OA
ATOM     11  C   UNL     1       2.831  -1.990  -0.310  0.00  0.00    +0.157 C 
ENDBRANCH   1   4
BRANCH   1  12
ATOM     12  N   UNL     1      -2.685   0.871   0.958  0.00  0.00    +0.385 N 
ATOM     13  H   UNL     1      -2.554   0.363   1.819  0.00  0.00    -0.085 HD
ATOM     14  H   UNL     1      -1.997   1.606   0.893  0.00  0.00    -0.085 HD
BRANCH  12  15
ATOM     15  C   UNL     1      -4.032   1.458   0.936  0.00  0.00    -0.045 C 
BRANCH  15  16
ATOM     16  C   UNL     1      -4.190   2.398   2.103  0.00  0.00    -0.050 A 
ATOM     17  C   UNL     1      -4.850   1.979   3.243  0.00  0.00    +0.003 A 
ATOM     18  C   UNL     1      -4.994   2.841   4.314  0.00  0.00    +0.000 A 
ATOM     19  C   UNL     1      -4.479   4.122   4.245  0.00  0.00    +0.001 A 
ATOM     20  C   UNL     1      -3.819   4.542   3.105  0.00  0.00    +0.015 A 
ATOM     21  C   UNL     1      -3.669   3.677   2.035  0.00  0.00    +0.019 A 
ATOM     22 BR   UNL     1      -2.760   4.248   0.479  0.00  0.00    -0.050 Br
ENDBRANCH  15  16
ENDBRANCH  12  15
ENDBRANCH   1  12
TORSDOF 4
