REMARK  Name = ZINC51925020
REMARK  1 active torsions:
REMARK  status: ('A' for Active; 'I' for Inactive)
REMARK    1  A    between atoms: C_2  and  C_11
REMARK                            x       y       z     vdW  Elec       q    Type
REMARK                         _______ _______ _______ _____ _____    ______ ____
ROOT
ATOM      1  C   UNL     1      -0.017   1.381   0.010  0.00  0.00    +0.055 A 
ATOM      2  C   UNL     1       1.171   2.090   0.002  0.00  0.00    -0.017 A 
ATOM      3  C   UNL     1       2.379   1.419  -0.013  0.00  0.00    +0.029 A 
ATOM      4  C   UNL     1       2.406   0.036  -0.021  0.00  0.00    +0.087 A 
ATOM      5  C   UNL     1       1.219  -0.680  -0.014  0.00  0.00    +0.184 A 
ATOM      6  C   UNL     1       0.002  -0.004   0.002  0.00  0.00    +0.168 A 
ATOM      7  O   UNL     1      -1.007  -0.923   0.006  0.00  0.00    -0.453 OA
ATOM      8  C   UNL     1      -0.404  -2.159  -0.419  0.00  0.00    +0.466 C 
ATOM      9  O   UNL     1       0.973  -2.023  -0.020  0.00  0.00    -0.451 OA
ATOM     10 CL   UNL     1       3.926  -0.802  -0.041  0.00  0.00    -0.080 Cl
ENDROOT
BRANCH   2  11
ATOM     11  C   UNL     1       1.147   3.597   0.010  0.00  0.00    +0.171 C 
ATOM     12  C   UNL     1       1.367   4.106  -1.386  0.00  0.00    +0.235 C 
ATOM     13  O   UNL     1       0.793   3.557  -2.302  0.00  0.00    -0.274 OA
ATOM     14  N   UNL     1       2.168   5.141  -1.660  0.00  0.00    -0.313 N 
ATOM     15  C   UNL     1       2.930   5.848  -0.635  0.00  0.00    +0.119 C 
ATOM     16  C   UNL     1       2.348   5.553   0.748  0.00  0.00    +0.100 C 
ATOM     17  N   UNL     1       2.206   4.096   0.897  0.00  0.00    -0.301 NA
ATOM     18  H   UNL     1       2.246   5.435  -2.581  0.00  0.00    +0.149 HD
ATOM     19  H   UNL     1       2.019   3.849   1.858  0.00  0.00    +0.123 HD
ENDBRANCH   2  11
TORSDOF 1
