REMARK  Name = ZINC34954492
REMARK  8 active torsions:
REMARK  status: ('A' for Active; 'I' for Inactive)
REMARK    1  A    between atoms: C_1  and  C_2
REMARK    2  A    between atoms: C_2  and  C_3
REMARK    3  A    between atoms: C_3  and  C_4
REMARK    4  A    between atoms: N_9  and  C_23
REMARK    5  A    between atoms: C_13  and  C_21
REMARK    6  A    between atoms: C_14  and  N_20
REMARK    7  A    between atoms: C_15  and  C_16
REMARK    8  A    between atoms: C_15  and  C_18
REMARK                            x       y       z     vdW  Elec       q    Type
REMARK                         _______ _______ _______ _____ _____    ______ ____
ROOT
ATOM      1  C   UNL     1       0.849  -2.021  -1.204  0.00  0.00    +0.038 C 
ATOM      2  C   UNL     1       1.771  -2.495  -2.330  0.00  0.00    +0.040 C 
ATOM      3  C   UNL     1       3.088  -1.752  -2.329  0.00  0.00    +0.093 C 
ATOM      4  N   UNL     1       4.154  -2.526  -1.685  0.00  0.00    -0.301 NA
ATOM      5  C   UNL     1       4.355  -3.802  -2.395  0.00  0.00    +0.111 C 
ATOM      6  C   UNL     1       3.082  -4.601  -2.272  0.00  0.00    -0.007 C 
ATOM      7  C   UNL     1       1.932  -3.983  -2.207  0.00  0.00    -0.027 C 
ATOM      8  C   UNL     1       0.703  -4.779  -1.962  0.00  0.00    +0.074 C 
ATOM      9  C   UNL     1      -0.431  -4.144  -1.570  0.00  0.00    +0.054 C 
ATOM     10  C   UNL     1      -0.528  -2.659  -1.386  0.00  0.00    +0.184 C 
ATOM     11  C   UNL     1       5.402  -1.754  -1.624  0.00  0.00    +0.105 C 
ENDROOT
BRANCH   9  12
ATOM     12  N   UNL     1      -1.544  -4.899  -1.327  0.00  0.00    -0.358 N 
ATOM     13  H   UNL     1      -1.510  -5.863  -1.437  0.00  0.00    +0.142 HD
ATOM     14  H   UNL     1      -2.369  -4.472  -1.046  0.00  0.00    +0.142 HD
ENDBRANCH   9  12
BRANCH  10  15
ATOM     15  C   UNL     1      -1.177  -2.073  -2.570  0.00  0.00    +0.091 C 
ATOM     16  N   UNL     1      -1.677  -1.620  -3.484  0.00  0.00    -0.195 NA
ENDBRANCH  10  15
BRANCH  10  17
ATOM     17  C   UNL     1      -1.350  -2.373  -0.199  0.00  0.00    +0.091 C 
ATOM     18  N   UNL     1      -1.985  -2.152   0.717  0.00  0.00    -0.195 NA
ENDBRANCH  10  17
BRANCH   8  19
ATOM     19  C   UNL     1       0.714  -6.200  -2.137  0.00  0.00    +0.101 C 
ATOM     20  N   UNL     1       0.723  -7.327  -2.276  0.00  0.00    -0.191 NA
ENDBRANCH   8  19
BRANCH   1  21
ATOM     21  C   UNL     1       0.718  -0.497  -1.257  0.00  0.00    +0.007 C 
BRANCH  21  23
ATOM     22  C   UNL     1      -0.079   1.518  -0.014  0.00  0.00    +0.004 C 
ATOM     23  C   UNL     1      -0.075  -0.012  -0.042  0.00  0.00    -0.003 C 
ENDBRANCH  21  23
ENDBRANCH   1  21
TORSDOF 6
