REMARK  Name = ZINC45073089
REMARK  9 active torsions:
REMARK  status: ('A' for Active; 'I' for Inactive)
REMARK    1  A    between atoms: C_1  and  C_2
REMARK    2  A    between atoms: C_2  and  C_3
REMARK    3  A    between atoms: C_3  and  N_4
REMARK    4  A    between atoms: C_5  and  C_7
REMARK    5  A    between atoms: C_7  and  C_8
REMARK    6  A    between atoms: C_8  and  N_9
REMARK    7  A    between atoms: N_9  and  C_10
REMARK    8  A    between atoms: C_10  and  C_11
REMARK    9  A    between atoms: C_16  and  O_17
REMARK                            x       y       z     vdW  Elec       q    Type
REMARK                         _______ _______ _______ _____ _____    ______ ____
ROOT
ATOM      1  N   UNL     1       2.145  -6.130   3.458  0.00  0.00    +0.382 N 
ATOM      2  H   UNL     1       1.198  -6.479   3.465  0.00  0.00    -0.085 HD
ATOM      3  H   UNL     1       2.617  -6.455   2.628  0.00  0.00    -0.085 HD
ENDROOT
BRANCH   1   4
ATOM      4  C   UNL     1       2.125  -4.661   3.466  0.00  0.00    -0.073 C 
BRANCH   4   5
ATOM      5  C   UNL     1       1.385  -4.154   2.227  0.00  0.00    +0.077 C 
BRANCH   5   7
ATOM      6  N   UNL     1       0.762  -1.976   1.234  0.00  0.00    -0.315 N 
ATOM      7  C   UNL     1       1.364  -2.647   2.235  0.00  0.00    +0.211 C 
ATOM      8  O   UNL     1       1.890  -2.038   3.143  0.00  0.00    -0.276 OA
ATOM      9  H   UNL     1       0.342  -2.462   0.507  0.00  0.00    +0.149 HD
BRANCH   6  10
ATOM     10  C   UNL     1       0.742  -0.511   1.242  0.00  0.00    +0.104 C 
BRANCH  10  12
ATOM     11  C   UNL     1      -0.019   1.526   0.010  0.00  0.00    +0.005 C 
ATOM     12  C   UNL     1       0.002  -0.004   0.002  0.00  0.00    +0.015 C 
ENDBRANCH  10  12
ENDBRANCH   6  10
ENDBRANCH   5   7
ENDBRANCH   4   5
ENDBRANCH   1   4
BRANCH   1  13
ATOM     13  C   UNL     1       2.855  -6.616   4.648  0.00  0.00    -0.043 C 
BRANCH  13  14
ATOM     14  C   UNL     1       2.876  -8.123   4.640  0.00  0.00    -0.022 A 
ATOM     15  C   UNL     1       1.972  -8.831   5.410  0.00  0.00    +0.005 A 
ATOM     16  C   UNL     1       1.990 -10.213   5.403  0.00  0.00    +0.002 A 
ATOM     17  C   UNL     1       2.911 -10.892   4.626  0.00  0.00    +0.019 A 
ATOM     18  C   UNL     1       3.817 -10.188   3.854  0.00  0.00    +0.059 A 
ATOM     19  C   UNL     1       3.797  -8.800   3.856  0.00  0.00    +0.132 A 
ATOM     20 BR   UNL     1       5.077 -11.116   2.792  0.00  0.00    -0.047 Br
BRANCH  19  21
ATOM     21  O   UNL     1       4.683  -8.106   3.094  0.00  0.00    -0.505 OA
ATOM     22  H   UNL     1       5.514  -7.901   3.545  0.00  0.00    +0.292 HD
ENDBRANCH  19  21
ENDBRANCH  13  14
ENDBRANCH   1  13
TORSDOF 8
