REMARK  Name = ZINC31975696
REMARK  8 active torsions:
REMARK  status: ('A' for Active; 'I' for Inactive)
REMARK    1  A    between atoms: C_1  and  C_2
REMARK    2  A    between atoms: C_8  and  C_22
REMARK    3  A    between atoms: C_9  and  C_11
REMARK    4  A    between atoms: C_14  and  O_17
REMARK    5  A    between atoms: O_17  and  C_18
REMARK    6  A    between atoms: C_18  and  C_19
REMARK    7  A    between atoms: C_19  and  C_21
REMARK    8  A    between atoms: C_22  and  N_23
REMARK                            x       y       z     vdW  Elec       q    Type
REMARK                         _______ _______ _______ _____ _____    ______ ____
ROOT
ATOM      1  C   UNL     1      -2.787   0.459  -4.465  0.00  0.00    +0.064 C 
ATOM      2  C   UNL     1      -1.555  -0.343  -4.135  0.00  0.00    +0.022 A 
ATOM      3  C   UNL     1      -1.568  -1.683  -4.289  0.00  0.00    +0.021 A 
ATOM      4  C   UNL     1      -0.427  -2.444  -3.985  0.00  0.00    +0.005 A 
ATOM      5  C   UNL     1       0.695  -1.823  -3.532  0.00  0.00    +0.047 A 
ATOM      6  C   UNL     1       0.695  -0.421  -3.377  0.00  0.00    +0.139 A 
ATOM      7  N   UNL     1      -0.437   0.293  -3.677  0.00  0.00    -0.302 N 
ATOM      8  C   UNL     1      -0.158   1.611  -3.441  0.00  0.00    +0.034 A 
ATOM      9  C   UNL     1       1.128   1.674  -2.995  0.00  0.00    +0.091 A 
ATOM     10  N   UNL     1       1.625   0.427  -2.965  0.00  0.00    -0.228 NA
ENDROOT
BRANCH   9  11
ATOM     11  C   UNL     1       1.854   2.909  -2.609  0.00  0.00    +0.002 A 
ATOM     12  C   UNL     1       1.220   3.878  -1.834  0.00  0.00    +0.013 A 
ATOM     13  C   UNL     1       1.900   5.023  -1.472  0.00  0.00    +0.046 A 
ATOM     14  C   UNL     1       3.210   5.215  -1.889  0.00  0.00    +0.121 A 
ATOM     15  C   UNL     1       3.842   4.253  -2.666  0.00  0.00    +0.046 A 
ATOM     16  C   UNL     1       3.170   3.104  -3.026  0.00  0.00    +0.013 A 
BRANCH  14  17
ATOM     17  O   UNL     1       3.875   6.346  -1.536  0.00  0.00    -0.488 OA
BRANCH  17  18
ATOM     18  C   UNL     1       3.165   7.293  -0.735  0.00  0.00    +0.259 C 
BRANCH  18  19
ATOM     19  C   UNL     1       4.055   8.474  -0.445  0.00  0.00    -0.043 C 
ATOM     20  C   UNL     1       5.277   8.504  -0.915  0.00  0.00    +0.011 C 
ATOM     21  C   UNL     1       3.539   9.620   0.387  0.00  0.00    +0.042 C 
ENDBRANCH  18  19
ENDBRANCH  17  18
ENDBRANCH  14  17
ENDBRANCH   9  11
BRANCH   8  22
ATOM     22  C   UNL     1      -1.098   2.773  -3.631  0.00  0.00    -0.029 C 
BRANCH  22  23
ATOM     23  N   UNL     1      -0.975   3.282  -5.004  0.00  0.00    +0.382 N 
ATOM     24  H   UNL     1      -1.661   4.131  -5.143  0.00  0.00    -0.090 HD
ATOM     25  H   UNL     1      -1.230   2.484  -5.716  0.00  0.00    -0.090 HD
ATOM     26  H   UNL     1       0.059   3.614  -5.181  0.00  0.00    -0.090 HD
ENDBRANCH  22  23
ENDBRANCH   8  22
TORSDOF 6
