REMARK  Name = ZINC03670343
REMARK  7 active torsions:
REMARK  status: ('A' for Active; 'I' for Inactive)
REMARK    1  A    between atoms: C_4  and  N_7
REMARK    2  A    between atoms: C_17  and  C_18
REMARK    3  A    between atoms: C_17  and  O_28
REMARK    4  A    between atoms: N_20  and  C_21
REMARK    5  A    between atoms: C_21  and  C_22
REMARK    6  A    between atoms: C_22  and  C_23
REMARK    7  A    between atoms: C_23  and  N_55
REMARK                            x       y       z     vdW  Elec       q    Type
REMARK                         _______ _______ _______ _____ _____    ______ ____
ROOT
ATOM      1  N   UNL     1       3.686   3.107  -0.016  0.00  0.00    -0.214 N 
ATOM      2  C   UNL     1       3.519   1.903   0.561  0.00  0.00    +0.314 C 
ATOM      3  O   UNL     1       4.483   1.366   1.072  0.00  0.00    -0.252 OA
ATOM      4  N   UNL     1       2.340   1.269   0.601  0.00  0.00    -0.269 N 
ATOM      5  C   UNL     1       1.175   1.798   0.045  0.00  0.00    +0.043 A 
ATOM      6  C   UNL     1      -0.024   1.100   0.112  0.00  0.00    +0.024 A 
ATOM      7  C   UNL     1      -1.165   1.638  -0.449  0.00  0.00    +0.002 A 
ATOM      8  C   UNL     1      -1.124   2.875  -1.067  0.00  0.00    +0.001 A 
ATOM      9  C   UNL     1       0.069   3.575  -1.137  0.00  0.00    +0.010 A 
ATOM     10  C   UNL     1       1.209   3.038  -0.584  0.00  0.00    +0.033 A 
ATOM     11  C   UNL     1       2.529   3.771  -0.640  0.00  0.00    +0.247 C 
ATOM     12  H   UNL     1       2.294   0.403   1.035  0.00  0.00    +0.156 HD
ENDROOT
BRANCH   1  16
ATOM     13  C   UNL     1       7.432   4.931  -0.044  0.00  0.00    +0.000 A 
ATOM     14  C   UNL     1       6.520   5.242   0.948  0.00  0.00    +0.002 A 
ATOM     15  C   UNL     1       5.278   4.639   0.960  0.00  0.00    +0.024 A 
ATOM     16  C   UNL     1       4.944   3.719  -0.025  0.00  0.00    +0.041 A 
ATOM     17  C   UNL     1       5.864   3.405  -1.017  0.00  0.00    +0.024 A 
ATOM     18  C   UNL     1       7.103   4.015  -1.026  0.00  0.00    +0.002 A 
ENDBRANCH   1  16
BRANCH  11  19
ATOM     19  C   UNL     1       2.861   4.021  -2.088  0.00  0.00    +0.269 C 
ATOM     20  O   UNL     1       3.000   5.157  -2.491  0.00  0.00    -0.270 OA
ATOM     21  N   UNL     1       3.004   2.984  -2.936  0.00  0.00    -0.311 N 
ATOM     22  H   UNL     1       2.894   2.075  -2.614  0.00  0.00    +0.149 HD
BRANCH  21  23
ATOM     23  C   UNL     1       3.327   3.227  -4.344  0.00  0.00    +0.102 C 
BRANCH  23  24
ATOM     24  C   UNL     1       3.433   1.891  -5.081  0.00  0.00    +0.000 C 
BRANCH  24  25
ATOM     25  C   UNL     1       3.771   2.145  -6.552  0.00  0.00    -0.077 C 
BRANCH  25  30
ATOM     26  C   UNL     1       2.658   0.035  -7.040  0.00  0.00    -0.079 C 
ATOM     27  C   UNL     1       2.694  -0.969  -8.220  0.00  0.00    -0.020 C 
ATOM     28  C   UNL     1       3.225  -0.109  -9.389  0.00  0.00    -0.020 C 
ATOM     29  C   UNL     1       3.960   1.069  -8.722  0.00  0.00    -0.079 C 
ATOM     30  N   UNL     1       3.864   0.843  -7.279  0.00  0.00    +0.380 N 
ATOM     31  H   UNL     1       4.694   0.334  -6.952  0.00  0.00    -0.082 HD
ENDBRANCH  25  30
ENDBRANCH  24  25
ENDBRANCH  23  24
ENDBRANCH  21  23
ENDBRANCH  11  19
BRANCH  11  32
ATOM     32  O   UNL     1       2.355   5.040  -0.006  0.00  0.00    -0.360 OA
ATOM     33  H   UNL     1       1.685   5.599  -0.423  0.00  0.00    +0.213 HD
ENDBRANCH  11  32
TORSDOF 7
