REMARK  Name = ZINC41009994
REMARK  7 active torsions:
REMARK  status: ('A' for Active; 'I' for Inactive)
REMARK    1  A    between atoms: C_1  and  C_2
REMARK    2  A    between atoms: C_2  and  N_3
REMARK    3  A    between atoms: N_3  and  C_4
REMARK    4  A    between atoms: C_4  and  C_5
REMARK    5  A    between atoms: C_8  and  C_10
REMARK    6  A    between atoms: C_19  and  O_20
REMARK    7  A    between atoms: O_20  and  C_21
REMARK                            x       y       z     vdW  Elec       q    Type
REMARK                         _______ _______ _______ _____ _____    ______ ____
ROOT
ATOM      1  C   UNL     1       0.790  -3.188  -6.035  0.00  0.00    +0.056 A 
ATOM      2  C   UNL     1       1.631  -3.559  -7.113  0.00  0.00    -0.005 A 
ATOM      3  C   UNL     1       3.009  -3.743  -6.929  0.00  0.00    +0.009 A 
ATOM      4  C   UNL     1       3.789  -4.101  -7.987  0.00  0.00    +0.001 A 
ATOM      5  C   UNL     1       3.237  -4.288  -9.252  0.00  0.00    +0.001 A 
ATOM      6  C   UNL     1       1.903  -4.119  -9.467  0.00  0.00    +0.008 A 
ATOM      7  C   UNL     1       1.068  -3.750  -8.398  0.00  0.00    -0.017 A 
ATOM      8  C   UNL     1      -0.314  -3.568  -8.585  0.00  0.00    +0.012 A 
ATOM      9  C   UNL     1      -1.106  -3.212  -7.538  0.00  0.00    +0.047 A 
ATOM     10  C   UNL     1      -0.573  -3.023  -6.262  0.00  0.00    +0.130 A 
ENDROOT
BRANCH   1  14
ATOM     11  C   UNL     1       2.782  -2.220  -3.056  0.00  0.00    +0.032 A 
ATOM     12  C   UNL     1       2.047  -2.853  -2.104  0.00  0.00    +0.068 A 
ATOM     13  S   UNL     1       0.769  -3.595  -3.111  0.00  0.00    -0.075 S 
ATOM     14  C   UNL     1       1.351  -2.983  -4.687  0.00  0.00    +0.113 A 
ATOM     15  N   UNL     1       2.421  -2.292  -4.316  0.00  0.00    -0.246 NA
BRANCH  11  16
ATOM     16  C   UNL     1       4.005  -1.431  -2.665  0.00  0.00    -0.026 C 
BRANCH  16  17
ATOM     17  N   UNL     1       5.199  -2.275  -2.812  0.00  0.00    +0.383 N 
ATOM     18  H   UNL     1       5.284  -2.574  -3.772  0.00  0.00    -0.085 HD
ATOM     19  H   UNL     1       5.115  -3.084  -2.214  0.00  0.00    -0.085 HD
BRANCH  17  21
ATOM     20  C   UNL     1       7.635  -2.385  -2.583  0.00  0.00    -0.017 C 
ATOM     21  C   UNL     1       6.392  -1.507  -2.430  0.00  0.00    -0.086 C 
ENDBRANCH  17  21
ENDBRANCH  16  17
ENDBRANCH  11  16
ENDBRANCH   1  14
BRANCH  10  22
ATOM     22  O   UNL     1      -1.390  -2.673  -5.236  0.00  0.00    -0.494 OA
ATOM     23  C   UNL     1      -2.779  -2.520  -5.535  0.00  0.00    +0.277 C 
ENDBRANCH  10  22
TORSDOF 5
