REMARK  Name = ZINC50660162
REMARK  7 active torsions:
REMARK  status: ('A' for Active; 'I' for Inactive)
REMARK    1  A    between atoms: C_1  and  N_2
REMARK    2  A    between atoms: N_2  and  C_3
REMARK    3  A    between atoms: C_4  and  S_11
REMARK    4  A    between atoms: S_11  and  N_14
REMARK    5  A    between atoms: N_14  and  C_15
REMARK    6  A    between atoms: C_15  and  C_16
REMARK    7  A    between atoms: N_20  and  C_22
REMARK                            x       y       z     vdW  Elec       q    Type
REMARK                         _______ _______ _______ _____ _____    ______ ____
ROOT
ATOM      1  S   UNL     1       0.079  -3.228   0.017  0.00  0.00    +0.078 S 
ATOM      2  O   UNL     1      -0.032  -2.568  -1.237  0.00  0.00    -0.151 OA
ATOM      3  O   UNL     1       0.844  -4.413   0.188  0.00  0.00    -0.151 OA
ENDROOT
BRANCH   1   5
ATOM      4  C   UNL     1       0.629  -0.703   1.045  0.00  0.00    +0.166 A 
ATOM      5  C   UNL     1       0.722  -2.045   1.153  0.00  0.00    +0.221 A 
ATOM      6  N   UNL     1       1.420  -2.325   2.331  0.00  0.00    -0.276 N 
ATOM      7  C   UNL     1       1.854  -3.431   3.030  0.00  0.00    +0.102 A 
ATOM      8  C   UNL     1       2.523  -3.295   4.174  0.00  0.00    +0.067 A 
ATOM      9  S   UNL     1       2.591  -1.520   4.353  0.00  0.00    -0.058 S 
ATOM     10  C   UNL     1       1.709  -1.099   2.868  0.00  0.00    +0.181 A 
ATOM     11  N   UNL     1       1.246  -0.151   2.104  0.00  0.00    -0.204 NA
BRANCH   4  13
ATOM     12  C   UNL     1      -0.018   1.461   0.010  0.00  0.00    +0.127 C 
ATOM     13  N   UNL     1       0.002  -0.004   0.002  0.00  0.00    -0.329 N 
ATOM     14  H   UNL     1      -0.418  -0.491  -0.724  0.00  0.00    +0.147 HD
ENDBRANCH   4  13
ENDBRANCH   1   5
BRANCH   1  15
ATOM     15  N   UNL     1      -1.463  -3.585   0.502  0.00  0.00    -0.188 NA
ATOM     16  H   UNL     1      -1.680  -4.480   0.808  0.00  0.00    +0.148 HD
BRANCH  15  17
ATOM     17  C   UNL     1      -2.500  -2.551   0.470  0.00  0.00    +0.107 C 
BRANCH  17  18
ATOM     18  C   UNL     1      -3.877  -3.205   0.599  0.00  0.00    -0.014 C 
ATOM     19  C   UNL     1      -4.230  -4.012  -0.678  0.00  0.00    -0.016 C 
ATOM     20  C   UNL     1      -5.774  -4.000  -0.681  0.00  0.00    -0.079 C 
ATOM     21  N   UNL     1      -6.203  -2.847   0.132  0.00  0.00    +0.378 N 
ATOM     22  C   UNL     1      -4.999  -2.137   0.616  0.00  0.00    -0.075 C 
ATOM     23  C   UNL     1      -7.017  -1.940  -0.688  0.00  0.00    -0.096 C 
ATOM     24  H   UNL     1      -6.745  -3.170   0.919  0.00  0.00    -0.082 HD
ENDBRANCH  17  18
ENDBRANCH  15  17
ENDBRANCH   1  15
TORSDOF 5
