REMARK  Name = ZINC37620590
REMARK  11 active torsions:
REMARK  status: ('A' for Active; 'I' for Inactive)
REMARK    1  A    between atoms: C_1  and  C_2
REMARK    2  A    between atoms: C_2  and  C_3
REMARK    3  A    between atoms: C_3  and  C_4
REMARK    4  A    between atoms: C_4  and  C_5
REMARK    5  A    between atoms: C_5  and  C_7
REMARK    6  A    between atoms: C_5  and  N_22
REMARK    7  A    between atoms: N_9  and  C_10
REMARK    8  A    between atoms: C_10  and  C_12
REMARK    9  A    between atoms: C_10  and  C_13
REMARK   10  A    between atoms: C_16  and  O_20
REMARK   11  A    between atoms: O_20  and  C_21
REMARK                            x       y       z     vdW  Elec       q    Type
REMARK                         _______ _______ _______ _____ _____    ______ ____
ROOT
ATOM      1  C   UNL     1       1.584  -4.021  -2.473  0.00  0.00    +0.199 C 
ATOM      2  O   UNL     1       0.810  -4.718  -3.095  0.00  0.00    -0.278 OA
ATOM      3  N   UNL     1       2.559  -4.589  -1.736  0.00  0.00    -0.310 N 
ATOM      4  H   UNL     1       3.179  -4.032  -1.239  0.00  0.00    +0.149 HD
ENDROOT
BRANCH   3   5
ATOM      5  C   UNL     1       2.685  -6.048  -1.687  0.00  0.00    +0.100 C 
ATOM      6  C   UNL     1       3.509  -6.530  -2.882  0.00  0.00    +0.033 C 
BRANCH   5   7
ATOM      7  C   UNL     1       3.373  -6.450  -0.407  0.00  0.00    -0.026 A 
ATOM      8  C   UNL     1       4.432  -5.701   0.071  0.00  0.00    +0.009 A 
ATOM      9  C   UNL     1       5.065  -6.067   1.243  0.00  0.00    +0.047 A 
ATOM     10  C   UNL     1       4.637  -7.187   1.941  0.00  0.00    +0.134 A 
ATOM     11  C   UNL     1       3.573  -7.937   1.459  0.00  0.00    +0.060 A 
ATOM     12  C   UNL     1       2.940  -7.563   0.288  0.00  0.00    +0.024 A 
ATOM     13 BR   UNL     1       2.987  -9.465   2.406  0.00  0.00    -0.047 Br
BRANCH  10  14
ATOM     14  O   UNL     1       5.258  -7.549   3.094  0.00  0.00    -0.494 OA
ATOM     15  C   UNL     1       6.346  -6.731   3.530  0.00  0.00    +0.277 C 
ENDBRANCH  10  14
ENDBRANCH   5   7
ENDBRANCH   3   5
BRANCH   1  16
ATOM     16  C   UNL     1       1.455  -2.521  -2.524  0.00  0.00    +0.013 C 
BRANCH  16  17
ATOM     17  N   UNL     1       0.680  -2.136  -3.711  0.00  0.00    +0.386 N 
ATOM     18  H   UNL     1      -0.238  -2.551  -3.662  0.00  0.00    -0.089 HD
ATOM     19  H   UNL     1       0.593  -1.131  -3.745  0.00  0.00    -0.089 HD
ATOM     20  H   UNL     1       1.152  -2.462  -4.541  0.00  0.00    -0.089 HD
ENDBRANCH  16  17
BRANCH  16  21
ATOM     21  C   UNL     1       0.739  -2.027  -1.265  0.00  0.00    -0.007 C 
BRANCH  21  22
ATOM     22  C   UNL     1       0.718  -0.497  -1.257  0.00  0.00    -0.001 C 
BRANCH  22  24
ATOM     23  C   UNL     1      -0.019   1.526   0.010  0.00  0.00    +0.004 C 
ATOM     24  C   UNL     1       0.002  -0.004   0.002  0.00  0.00    -0.003 C 
ENDBRANCH  22  24
ENDBRANCH  21  22
ENDBRANCH  16  21
ENDBRANCH   1  16
TORSDOF 8
