REMARK  Name = ZINC35936880
REMARK  7 active torsions:
REMARK  status: ('A' for Active; 'I' for Inactive)
REMARK    1  A    between atoms: C_3  and  N_11
REMARK    2  A    between atoms: C_6  and  C_7
REMARK    3  A    between atoms: N_14  and  C_17
REMARK    4  A    between atoms: C_17  and  C_19
REMARK    5  A    between atoms: C_17  and  C_22
REMARK    6  A    between atoms: N_24  and  C_25
REMARK    7  A    between atoms: C_34  and  C_37
REMARK                            x       y       z     vdW  Elec       q    Type
REMARK                         _______ _______ _______ _____ _____    ______ ____
ROOT
ATOM      1  C   UNL     1       6.600   3.958  -2.107  0.00  0.00    +0.022 C 
ENDROOT
BRANCH   1   5
ATOM      2  N   UNL     1       2.782   3.885  -0.395  0.00  0.00    -0.319 N 
ATOM      3  C   UNL     1       2.856   4.000  -1.859  0.00  0.00    +0.088 C 
ATOM      4  C   UNL     1       4.262   4.474  -2.240  0.00  0.00    -0.059 C 
ATOM      5  N   UNL     1       5.258   3.568  -1.652  0.00  0.00    +0.389 N 
ATOM      6  C   UNL     1       5.199   3.642  -0.187  0.00  0.00    -0.059 C 
ATOM      7  C   UNL     1       3.841   3.132   0.295  0.00  0.00    +0.088 C 
ATOM      8  H   UNL     1       5.067   2.623  -1.948  0.00  0.00    -0.081 HD
BRANCH   2  11
ATOM      9  C   UNL     1       0.558   4.793   2.370  0.00  0.00    +0.017 A 
ATOM     10  C   UNL     1       1.595   4.198   1.673  0.00  0.00    +0.044 A 
ATOM     11  C   UNL     1       1.745   4.475   0.318  0.00  0.00    +0.121 A 
ATOM     12  N   UNL     1       0.909   5.295  -0.299  0.00  0.00    -0.240 NA
ATOM     13  C   UNL     1      -0.088   5.877   0.340  0.00  0.00    +0.125 A 
ATOM     14  C   UNL     1      -0.296   5.647   1.685  0.00  0.00    +0.073 A 
BRANCH  14  15
ATOM     15  C   UNL     1      -1.439   6.316   2.404  0.00  0.00    +0.419 C 
ATOM     16  F   UNL     1      -1.010   7.543   2.922  0.00  0.00    -0.166 F 
ATOM     17  F   UNL     1      -2.492   6.531   1.508  0.00  0.00    -0.166 F 
ATOM     18  F   UNL     1      -1.877   5.497   3.450  0.00  0.00    -0.166 F 
ENDBRANCH  14  15
ENDBRANCH   2  11
ENDBRANCH   1   5
BRANCH   1  19
ATOM     19  C   UNL     1       6.830   5.416  -1.802  0.00  0.00    +0.200 C 
ATOM     20  O   UNL     1       6.291   5.927  -0.843  0.00  0.00    -0.278 OA
ATOM     21  N   UNL     1       7.633   6.151  -2.596  0.00  0.00    -0.313 N 
ATOM     22  H   UNL     1       8.005   5.762  -3.403  0.00  0.00    +0.149 HD
BRANCH  21  23
ATOM     23  C   UNL     1       7.944   7.538  -2.240  0.00  0.00    +0.079 C 
ATOM     24  C   UNL     1       9.126   7.562  -1.269  0.00  0.00    +0.011 C 
ATOM     25  C   UNL     1       9.451   9.010  -0.897  0.00  0.00    +0.009 C 
ATOM     26  C   UNL     1       9.813   9.792  -2.161  0.00  0.00    -0.009 C 
ATOM     27  C   UNL     1       8.632   9.768  -3.132  0.00  0.00    +0.009 C 
ATOM     28  C   UNL     1       8.307   8.320  -3.504  0.00  0.00    +0.011 C 
ATOM     29  C   UNL     1       9.526   7.678  -4.169  0.00  0.00    +0.021 C 
ATOM     30  C   UNL     1      10.708   7.702  -3.197  0.00  0.00    +0.048 C 
ATOM     31  C   UNL     1      10.346   6.920  -1.933  0.00  0.00    +0.021 C 
ATOM     32  C   UNL     1      11.033   9.150  -2.826  0.00  0.00    +0.019 C 
BRANCH  30  33
ATOM     33  C   UNL     1      11.909   7.070  -3.852  0.00  0.00    +0.217 C 
ATOM     34  O   UNL     1      11.828   6.643  -4.984  0.00  0.00    -0.275 OA
ATOM     35  N   UNL     1      13.074   6.980  -3.180  0.00  0.00    -0.329 N 
ATOM     36  H   UNL     1      13.139   7.322  -2.275  0.00  0.00    +0.145 HD
ATOM     37  H   UNL     1      13.847   6.574  -3.601  0.00  0.00    +0.145 HD
ENDBRANCH  30  33
ENDBRANCH  21  23
ENDBRANCH   1  19
BRANCH   1  38
ATOM     38  C   UNL     1       7.649   3.114  -1.381  0.00  0.00    -0.016 C 
ATOM     39  C   UNL     1       8.777   2.513  -2.221  0.00  0.00    +0.002 C 
ATOM     40  C   UNL     1       7.671   1.611  -1.670  0.00  0.00    +0.002 C 
ENDBRANCH   1  38
TORSDOF 7
