REMARK  Name = ZINC37157315
REMARK  6 active torsions:
REMARK  status: ('A' for Active; 'I' for Inactive)
REMARK    1  A    between atoms: C_1  and  C_2
REMARK    2  A    between atoms: C_2  and  C_3
REMARK    3  A    between atoms: C_3  and  C_4
REMARK    4  A    between atoms: C_8  and  C_20
REMARK    5  A    between atoms: C_10  and  N_13
REMARK    6  A    between atoms: C_20  and  N_21
REMARK                            x       y       z     vdW  Elec       q    Type
REMARK                         _______ _______ _______ _____ _____    ______ ____
ROOT
ATOM      1  C   UNL     1       0.426  -2.067   1.413  0.00  0.00    -0.012 C 
ATOM      2  C   UNL     1      -0.915  -2.795   1.524  0.00  0.00    +0.003 C 
ATOM      3  C   UNL     1      -0.703  -4.293   1.299  0.00  0.00    +0.000 C 
ATOM      4  C   UNL     1       0.261  -4.836   2.356  0.00  0.00    -0.042 C 
ATOM      5  C   UNL     1       1.602  -4.108   2.245  0.00  0.00    -0.067 C 
ATOM      6  C   UNL     1       1.390  -2.610   2.470  0.00  0.00    -0.012 C 
ENDROOT
BRANCH   5   7
ATOM      7  N   UNL     1       2.527  -4.629   3.260  0.00  0.00    +0.382 N 
ATOM      8  C   UNL     1       1.975  -4.340   4.597  0.00  0.00    -0.078 C 
ATOM      9  C   UNL     1       2.542  -5.342   5.571  0.00  0.00    -0.019 C 
ATOM     10  C   UNL     1       3.771  -4.778   6.308  0.00  0.00    -0.002 C 
ATOM     11  C   UNL     1       4.686  -3.974   5.362  0.00  0.00    -0.002 C 
ATOM     12  C   UNL     1       4.845  -4.636   4.017  0.00  0.00    -0.019 C 
ATOM     13  C   UNL     1       3.787  -4.067   3.048  0.00  0.00    -0.078 C 
ATOM     14  H   UNL     1       2.597  -5.630   3.150  0.00  0.00    -0.081 HD
ENDBRANCH   5   7
BRANCH   1  15
ATOM     15  C   UNL     1       0.213  -0.569   1.637  0.00  0.00    +0.003 C 
BRANCH  15  17
ATOM     16  C   UNL     1      -0.862   1.498   0.734  0.00  0.00    +0.004 C 
ATOM     17  C   UNL     1      -0.650  -0.001   0.509  0.00  0.00    -0.003 C 
ENDBRANCH  15  17
ENDBRANCH   1  15
BRANCH   4  18
ATOM     18  C   UNL     1       0.473  -6.334   2.131  0.00  0.00    -0.085 C 
BRANCH  18  19
ATOM     19  N   UNL     1      -0.796  -7.045   2.334  0.00  0.00    +0.378 N 
ATOM     20  H   UNL     1      -1.121  -6.889   3.277  0.00  0.00    -0.090 HD
ATOM     21  H   UNL     1      -1.483  -6.700   1.680  0.00  0.00    -0.090 HD
ATOM     22  H   UNL     1      -0.656  -8.033   2.186  0.00  0.00    -0.090 HD
ENDBRANCH  18  19
ENDBRANCH   4  18
TORSDOF 5
