REMARK  Name = ZINC66528697
REMARK  8 active torsions:
REMARK  status: ('A' for Active; 'I' for Inactive)
REMARK    1  A    between atoms: C_1  and  C_2
REMARK    2  A    between atoms: C_2  and  C_23
REMARK    3  A    between atoms: N_8  and  C_9
REMARK    4  A    between atoms: C_9  and  C_10
REMARK    5  A    between atoms: C_10  and  C_12
REMARK    6  A    between atoms: C_10  and  O_22
REMARK    7  A    between atoms: C_12  and  O_13
REMARK    8  A    between atoms: O_13  and  C_14
REMARK                            x       y       z     vdW  Elec       q    Type
REMARK                         _______ _______ _______ _____ _____    ______ ____
ROOT
ATOM      1  C   UNL     1       2.829  -0.426   2.422  0.00  0.00    +0.135 C 
ENDROOT
BRANCH   1   2
ATOM      2  O   UNL     1       2.897  -1.837   2.640  0.00  0.00    -0.390 OA
ATOM      3  H   UNL     1       3.388  -2.317   1.960  0.00  0.00    +0.210 HD
ENDBRANCH   1   2
BRANCH   1   4
ATOM      4  C   UNL     1       2.138  -0.149   1.086  0.00  0.00    -0.042 C 
BRANCH   4  12
ATOM      5  C   UNL     1      -0.046   1.461  -0.034  0.00  0.00    -0.000 C 
ATOM      6  C   UNL     1       0.011  -0.068  -0.022  0.00  0.00    +0.007 C 
ATOM      7  C   UNL     1      -1.387  -0.618  -0.036  0.00  0.00    +0.202 C 
ATOM      8  O   UNL     1      -2.210  -0.098  -0.759  0.00  0.00    -0.277 OA
ATOM      9  N   UNL     1      -1.761  -1.660   0.716  0.00  0.00    -0.318 N 
ATOM     10  C   UNL     1      -0.848  -2.334   1.636  0.00  0.00    +0.085 C 
ATOM     11  C   UNL     1       0.599  -1.982   1.285  0.00  0.00    -0.058 C 
ATOM     12  N   UNL     1       0.720  -0.520   1.182  0.00  0.00    +0.392 N 
ATOM     13  C   UNL     1       0.758  -0.557  -1.264  0.00  0.00    -0.000 C 
ATOM     14  H   UNL     1      -2.674  -1.980   0.648  0.00  0.00    +0.149 HD
ATOM     15  H   UNL     1       0.311  -0.088   1.997  0.00  0.00    -0.080 HD
ENDBRANCH   4  12
ENDBRANCH   1   4
BRANCH   1  16
ATOM     16  C   UNL     1       4.245   0.154   2.394  0.00  0.00    +0.258 C 
BRANCH  16  17
ATOM     17  O   UNL     1       4.849  -0.002   3.680  0.00  0.00    -0.488 OA
BRANCH  17  18
ATOM     18  C   UNL     1       6.117   0.465   3.826  0.00  0.00    +0.139 A 
ATOM     19  C   UNL     1       6.765   1.065   2.756  0.00  0.00    +0.048 A 
ATOM     20  C   UNL     1       8.054   1.538   2.907  0.00  0.00    +0.023 A 
ATOM     21  C   UNL     1       8.700   1.414   4.124  0.00  0.00    +0.043 A 
ATOM     22  C   UNL     1       8.057   0.817   5.194  0.00  0.00    +0.043 A 
ATOM     23  C   UNL     1       6.765   0.347   5.049  0.00  0.00    +0.084 A 
ATOM     24 CL   UNL     1       5.955  -0.397   6.392  0.00  0.00    -0.080 Cl
ATOM     25 CL   UNL     1      10.320   2.010   4.310  0.00  0.00    -0.083 Cl
ENDBRANCH  17  18
ENDBRANCH  16  17
ENDBRANCH   1  16
TORSDOF 6
