REMARK  Name = ZINC63985207
REMARK  4 active torsions:
REMARK  status: ('A' for Active; 'I' for Inactive)
REMARK    1  A    between atoms: C_1  and  C_2
REMARK    2  A    between atoms: C_5  and  N_9
REMARK    3  A    between atoms: C_12  and  C_18
REMARK    4  A    between atoms: N_32  and  C_33
REMARK                            x       y       z     vdW  Elec       q    Type
REMARK                         _______ _______ _______ _____ _____    ______ ____
ROOT
ATOM      1  N   UNL     1       0.364  -6.185  -1.229  0.00  0.00    -0.229 N 
ATOM      2  C   UNL     1       0.279  -6.911  -0.096  0.00  0.00    +0.270 A 
ATOM      3  O   UNL     1       0.457  -8.116  -0.125  0.00  0.00    -0.267 OA
ATOM      4  C   UNL     1      -0.016  -6.268   1.119  0.00  0.00    +0.101 A 
ATOM      5  C   UNL     1      -0.210  -4.918   1.124  0.00  0.00    +0.263 A 
ATOM      6  N   UNL     1      -0.114  -4.218  -0.052  0.00  0.00    -0.274 N 
ATOM      7  C   UNL     1       0.174  -4.853  -1.202  0.00  0.00    +0.337 A 
ATOM      8  O   UNL     1       0.261  -4.215  -2.234  0.00  0.00    -0.246 OA
ATOM      9  O   UNL     1      -0.494  -4.276   2.277  0.00  0.00    -0.267 OA
ATOM     10  H   UNL     1      -0.252  -3.257  -0.053  0.00  0.00    +0.173 HD
ENDROOT
BRANCH   4  11
ATOM     11  C   UNL     1      -0.116  -7.059   2.397  0.00  0.00    +0.124 C 
ATOM     12  C   UNL     1      -1.479  -6.815   3.049  0.00  0.00    +0.128 C 
ATOM     13  C   UNL     1      -1.494  -5.349   3.469  0.00  0.00    -0.035 C 
ATOM     14  C   UNL     1      -2.581  -4.816   2.927  0.00  0.00    -0.001 A 
ATOM     15  C   UNL     1      -3.177  -3.475   3.041  0.00  0.00    +0.010 A 
ATOM     16  C   UNL     1      -4.311  -3.260   2.323  0.00  0.00    +0.001 A 
ATOM     17  C   UNL     1      -4.905  -4.233   1.514  0.00  0.00    +0.002 A 
ATOM     18  C   UNL     1      -4.429  -5.494   1.355  0.00  0.00    +0.026 A 
ATOM     19  C   UNL     1      -3.243  -5.842   2.064  0.00  0.00    +0.043 A 
ATOM     20  N   UNL     1      -2.589  -6.986   2.113  0.00  0.00    -0.376 N 
ATOM     21  C   UNL     1      -0.364  -4.741   4.263  0.00  0.00    +0.049 C 
ATOM     22  C   UNL     1       0.936  -5.173   3.561  0.00  0.00    +0.089 C 
ATOM     23  N   UNL     1       0.931  -6.622   3.334  0.00  0.00    -0.296 NA
ATOM     24  C   UNL     1       2.254  -7.093   2.903  0.00  0.00    +0.105 C 
ATOM     25  H   UNL     1      -2.796  -7.795   1.620  0.00  0.00    +0.160 HD
ENDBRANCH   4  11
BRANCH   1  30
ATOM     26  C   UNL     1       1.556  -8.765  -6.142  0.00  0.00    +0.045 C 
ATOM     27  C   UNL     1       1.239  -8.080  -4.838  0.00  0.00    -0.032 A 
ATOM     28  C   UNL     1       2.264  -7.600  -4.043  0.00  0.00    +0.007 A 
ATOM     29  C   UNL     1       1.977  -6.972  -2.847  0.00  0.00    +0.027 A 
ATOM     30  C   UNL     1       0.658  -6.822  -2.442  0.00  0.00    +0.056 A 
ATOM     31  C   UNL     1      -0.370  -7.303  -3.241  0.00  0.00    +0.046 A 
ATOM     32  C   UNL     1      -0.077  -7.926  -4.440  0.00  0.00    +0.046 A 
ATOM     33 CL   UNL     1      -1.362  -8.523  -5.444  0.00  0.00    -0.083 Cl
ENDBRANCH   1  30
TORSDOF 2
