REMARK  Name = ZINC37367847
REMARK  6 active torsions:
REMARK  status: ('A' for Active; 'I' for Inactive)
REMARK    1  A    between atoms: C_1  and  C_2
REMARK    2  A    between atoms: C_5  and  S_9
REMARK    3  A    between atoms: C_7  and  N_8
REMARK    4  A    between atoms: S_9  and  N_12
REMARK    5  A    between atoms: N_12  and  C_13
REMARK    6  A    between atoms: C_18  and  C_19
REMARK                            x       y       z     vdW  Elec       q    Type
REMARK                         _______ _______ _______ _____ _____    ______ ____
ROOT
ATOM      1  S   UNL     1       0.038  -4.630   0.022  0.00  0.00    +0.072 S 
ATOM      2  O   UNL     1      -0.446  -5.132   1.260  0.00  0.00    -0.150 OA
ATOM      3  O   UNL     1      -0.520  -5.016  -1.227  0.00  0.00    -0.150 OA
ENDROOT
BRANCH   1   8
ATOM      4  C   UNL     1      -0.389   1.387   0.301  0.00  0.00    +0.045 C 
ATOM      5  C   UNL     1      -0.282  -0.115   0.233  0.00  0.00    -0.030 A 
ATOM      6  C   UNL     1      -0.268  -0.752  -0.992  0.00  0.00    +0.007 A 
ATOM      7  C   UNL     1      -0.170  -2.130  -1.055  0.00  0.00    +0.029 A 
ATOM      8  C   UNL     1      -0.086  -2.874   0.108  0.00  0.00    +0.110 A 
ATOM      9  C   UNL     1      -0.099  -2.243   1.336  0.00  0.00    +0.051 A 
ATOM     10  C   UNL     1      -0.192  -0.859   1.403  0.00  0.00    +0.029 A 
BRANCH  10  11
ATOM     11  N   UNL     1      -0.201  -0.216   2.643  0.00  0.00    -0.358 N 
ATOM     12  H   UNL     1      -0.270   0.750   2.689  0.00  0.00    +0.142 HD
ATOM     13  H   UNL     1      -0.138  -0.737   3.459  0.00  0.00    +0.142 HD
ENDBRANCH  10  11
ENDBRANCH   1   8
BRANCH   1  14
ATOM     14  N   UNL     1       1.650  -5.004  -0.044  0.00  0.00    -0.216 N 
ATOM     15  H   UNL     1       2.006  -5.482  -0.809  0.00  0.00    +0.174 HD
BRANCH  14  16
ATOM     16  C   UNL     1       2.496  -4.632   1.003  0.00  0.00    +0.052 A 
ATOM     17  C   UNL     1       2.033  -4.649   2.313  0.00  0.00    +0.040 A 
ATOM     18  C   UNL     1       2.873  -4.280   3.346  0.00  0.00    +0.020 A 
ATOM     19  C   UNL     1       4.175  -3.894   3.076  0.00  0.00    +0.015 A 
ATOM     20  C   UNL     1       4.638  -3.877   1.774  0.00  0.00    +0.006 A 
ATOM     21  C   UNL     1       3.805  -4.250   0.737  0.00  0.00    -0.028 A 
ATOM     22  C   UNL     1       4.313  -4.236  -0.681  0.00  0.00    +0.046 C 
ATOM     23 BR   UNL     1       2.244  -4.303   5.129  0.00  0.00    -0.050 Br
ENDBRANCH  14  16
ENDBRANCH   1  14
TORSDOF 4
