REMARK  Name = ZINC39467550
REMARK  9 active torsions:
REMARK  status: ('A' for Active; 'I' for Inactive)
REMARK    1  A    between atoms: C_1  and  C_2
REMARK    2  A    between atoms: C_2  and  O_3
REMARK    3  A    between atoms: O_3  and  C_4
REMARK    4  A    between atoms: P_13  and  C_28
REMARK    5  A    between atoms: C_21  and  S_22
REMARK    6  A    between atoms: S_22  and  C_25
REMARK    7  A    between atoms: C_25  and  C_26
REMARK    8  A    between atoms: C_25  and  C_27
REMARK    9  A    between atoms: C_33  and  O_34
REMARK                            x       y       z     vdW  Elec       q    Type
REMARK                         _______ _______ _______ _____ _____    ______ ____
ROOT
ATOM      1  C   UNL     1       0.802  -1.824   1.306  0.00  0.00    +0.141 C 
ATOM      2  C   UNL     1       0.281  -2.642   0.388  0.00  0.00    +0.025 C 
ATOM      3  C   UNL     1       0.420  -4.137   0.559  0.00  0.00    +0.025 C 
ATOM      4  C   UNL     1      -0.668  -4.624   1.517  0.00  0.00    +0.031 C 
ATOM      5  C   UNL     1      -0.495  -6.117   1.815  0.00  0.00    +0.100 C 
ATOM      6  C   UNL     1      -1.608  -6.514   2.793  0.00  0.00    +0.189 C 
ATOM      7  O   UNL     1      -1.517  -7.919   3.087  0.00  0.00    -0.311 OA
ATOM      8  P   UNL     1      -0.072  -8.502   3.556  0.00  0.00    +0.318 P 
ATOM      9  O   UNL     1      -0.004  -9.960   3.311  0.00  0.00    -0.266 OA
ATOM     10  N   UNL     1       1.037  -7.713   2.623  0.00  0.00    -0.175 NA
ATOM     11  N   UNL     1       0.831  -6.369   2.387  0.00  0.00    -0.229 NA
ATOM     12  C   UNL     1       1.905  -5.920   1.485  0.00  0.00    +0.111 C 
ATOM     13  C   UNL     1       1.795  -4.435   1.164  0.00  0.00    +0.036 C 
ATOM     14  C   UNL     1       1.979  -3.627   2.420  0.00  0.00    +0.009 C 
ATOM     15  C   UNL     1       1.502  -2.389   2.476  0.00  0.00    +0.126 C 
ATOM     16  H   UNL     1       1.806  -8.178   2.256  0.00  0.00    +0.151 HD
ENDROOT
BRANCH   8  17
ATOM     17  C   UNL     1       0.211  -8.146   5.312  0.00  0.00    +0.094 A 
ATOM     18  C   UNL     1       0.828  -6.969   5.688  0.00  0.00    +0.018 A 
ATOM     19  C   UNL     1       1.045  -6.697   7.026  0.00  0.00    +0.001 A 
ATOM     20  C   UNL     1       0.643  -7.603   7.992  0.00  0.00    +0.004 A 
ATOM     21  C   UNL     1       0.025  -8.781   7.621  0.00  0.00    +0.046 A 
ATOM     22  C   UNL     1      -0.198  -9.053   6.279  0.00  0.00    +0.131 A 
BRANCH  22  23
ATOM     23  O   UNL     1      -0.811 -10.209   5.912  0.00  0.00    -0.506 OA
ATOM     24  H   UNL     1      -0.203 -10.946   5.760  0.00  0.00    +0.292 HD
ENDBRANCH  22  23
ENDBRANCH   8  17
BRANCH  15  25
ATOM     25  S   UNL     1       1.700  -1.429   3.941  0.00  0.00    +0.002 S 
ATOM     26  O   UNL     1       0.395  -0.952   4.241  0.00  0.00    -0.169 OA
ATOM     27  O   UNL     1       2.384  -2.285   4.845  0.00  0.00    -0.169 OA
BRANCH  25  28
ATOM     28  C   UNL     1       2.773  -0.050   3.454  0.00  0.00    +0.130 C 
ATOM     29  C   UNL     1       3.116   0.789   4.686  0.00  0.00    +0.032 C 
ATOM     30  C   UNL     1       4.060  -0.599   2.835  0.00  0.00    +0.032 C 
ENDBRANCH  25  28
ENDBRANCH  15  25
BRANCH   1  31
ATOM     31  O   UNL     1       0.693  -0.477   1.160  0.00  0.00    -0.491 OA
BRANCH  31  33
ATOM     32  C   UNL     1      -0.019   1.526   0.010  0.00  0.00    +0.048 C 
ATOM     33  C   UNL     1       0.002  -0.004   0.002  0.00  0.00    +0.226 C 
ENDBRANCH  31  33
ENDBRANCH   1  31
TORSDOF 6
