REMARK  Name = ZINC67132711
REMARK  6 active torsions:
REMARK  status: ('A' for Active; 'I' for Inactive)
REMARK    1  A    between atoms: C_1  and  C_2
REMARK    2  A    between atoms: C_2  and  C_4
REMARK    3  A    between atoms: C_2  and  N_12
REMARK    4  A    between atoms: N_12  and  C_13
REMARK    5  A    between atoms: C_13  and  C_14
REMARK    6  A    between atoms: C_17  and  C_19
REMARK                            x       y       z     vdW  Elec       q    Type
REMARK                         _______ _______ _______ _____ _____    ______ ____
ROOT
ATOM      1  N   UNL     1       0.713  -0.491   1.192  0.00  0.00    +0.387 N 
ATOM      2  H   UNL     1       0.290  -0.099   2.020  0.00  0.00    -0.085 HD
ATOM      3  H   UNL     1       0.655  -1.497   1.230  0.00  0.00    -0.085 HD
ENDROOT
BRANCH   1   5
ATOM      4  C   UNL     1      -0.019   1.526   0.010  0.00  0.00    -0.009 C 
ATOM      5  C   UNL     1       0.002  -0.004   0.002  0.00  0.00    -0.041 C 
BRANCH   5   6
ATOM      6  C   UNL     1      -1.412  -0.526   0.013  0.00  0.00    -0.026 A 
ATOM      7  C   UNL     1      -2.014  -0.864   1.210  0.00  0.00    +0.007 A 
ATOM      8  C   UNL     1      -3.311  -1.342   1.221  0.00  0.00    +0.039 A 
ATOM      9  C   UNL     1      -4.008  -1.483   0.033  0.00  0.00    +0.126 A 
ATOM     10  C   UNL     1      -3.405  -1.145  -1.166  0.00  0.00    +0.076 A 
ATOM     11  C   UNL     1      -2.108  -0.661  -1.176  0.00  0.00    +0.128 A 
ATOM     12  F   UNL     1      -1.521  -0.325  -2.345  0.00  0.00    -0.205 F 
ATOM     13  F   UNL     1      -5.275  -1.951   0.044  0.00  0.00    -0.205 F 
ENDBRANCH   5   6
ENDBRANCH   1   5
BRANCH   1  14
ATOM     14  C   UNL     1       2.122  -0.083   1.122  0.00  0.00    -0.025 C 
BRANCH  14  15
ATOM     15  C   UNL     1       2.851  -0.582   2.343  0.00  0.00    +0.032 A 
ATOM     16  C   UNL     1       3.530  -1.756   2.296  0.00  0.00    +0.068 A 
ATOM     17  S   UNL     1       4.170  -1.835   3.964  0.00  0.00    -0.075 S 
ATOM     18  C   UNL     1       3.463  -0.298   4.542  0.00  0.00    +0.109 A 
ATOM     19  N   UNL     1       2.834   0.122   3.453  0.00  0.00    -0.246 NA
BRANCH  18  20
ATOM     20  C   UNL     1       3.559   0.337   5.873  0.00  0.00    +0.014 A 
ATOM     21  C   UNL     1       4.286  -0.263   6.899  0.00  0.00    +0.018 A 
ATOM     22  C   UNL     1       4.350   0.348   8.102  0.00  0.00    +0.046 A 
ATOM     23  S   UNL     1       3.374   1.818   7.835  0.00  0.00    -0.104 S 
ATOM     24  C   UNL     1       2.941   1.532   6.127  0.00  0.00    +0.055 A 
ENDBRANCH  18  20
ENDBRANCH  14  15
ENDBRANCH   1  14
TORSDOF 5
