REMARK  Name = ZINC51444330
REMARK  8 active torsions:
REMARK  status: ('A' for Active; 'I' for Inactive)
REMARK    1  A    between atoms: C_1  and  C_2
REMARK    2  A    between atoms: C_6  and  C_10
REMARK    3  A    between atoms: C_15  and  C_17
REMARK    4  A    between atoms: C_17  and  N_18
REMARK    5  A    between atoms: N_18  and  C_19
REMARK    6  A    between atoms: C_19  and  C_20
REMARK    7  A    between atoms: C_19  and  C_21
REMARK    8  A    between atoms: C_19  and  C_22
REMARK                            x       y       z     vdW  Elec       q    Type
REMARK                         _______ _______ _______ _____ _____    ______ ____
ROOT
ATOM      1  C   UNL     1       0.403   1.320  -0.132  0.00  0.00    +0.039 C 
ATOM      2  C   UNL     1       0.242  -0.196  -0.004  0.00  0.00    +0.132 C 
ATOM      3  C   UNL     1      -1.242  -0.565  -0.116  0.00  0.00    +0.138 C 
ATOM      4  N   UNL     1      -1.389  -1.995   0.196  0.00  0.00    -0.308 N 
ATOM      5  C   UNL     1      -0.772  -2.501   1.433  0.00  0.00    +0.097 C 
ATOM      6  C   UNL     1       0.689  -2.038   1.469  0.00  0.00    +0.182 C 
ATOM      7  O   UNL     1       0.740  -0.624   1.266  0.00  0.00    -0.373 OA
ATOM      8  C   UNL     1      -1.520  -1.945   2.646  0.00  0.00    +0.030 C 
ATOM      9  C   UNL     1      -2.090  -2.845  -0.653  0.00  0.00    +0.122 A 
ATOM     10  C   UNL     1      -2.843  -2.310  -1.694  0.00  0.00    +0.045 A 
ATOM     11  C   UNL     1      -3.535  -3.166  -2.532  0.00  0.00    +0.025 A 
ATOM     12  C   UNL     1      -3.451  -4.534  -2.300  0.00  0.00    +0.060 A 
ATOM     13  C   UNL     1      -2.684  -4.994  -1.247  0.00  0.00    +0.045 A 
ATOM     14  N   UNL     1      -2.030  -4.154  -0.468  0.00  0.00    -0.237 NA
ATOM     15 CL   UNL     1      -4.300  -5.651  -3.321  0.00  0.00    -0.082 Cl
ENDROOT
BRANCH  13  16
ATOM     16  C   UNL     1      -2.588  -6.476  -0.990  0.00  0.00    -0.024 C 
BRANCH  16  17
ATOM     17  N   UNL     1      -1.455  -7.032  -1.742  0.00  0.00    +0.386 N 
ATOM     18  H   UNL     1      -1.594  -6.870  -2.728  0.00  0.00    -0.085 HD
ATOM     19  H   UNL     1      -0.601  -6.582  -1.444  0.00  0.00    -0.085 HD
BRANCH  17  20
ATOM     20  C   UNL     1      -1.361  -8.476  -1.491  0.00  0.00    -0.076 C 
ATOM     21  C   UNL     1      -2.655  -9.157  -1.941  0.00  0.00    -0.011 C 
ATOM     22  C   UNL     1      -0.181  -9.054  -2.274  0.00  0.00    -0.011 C 
ATOM     23  C   UNL     1      -1.150  -8.721   0.005  0.00  0.00    -0.011 C 
ENDBRANCH  17  20
ENDBRANCH  16  17
ENDBRANCH  13  16
TORSDOF 3
