REMARK  Name = ZINC46177192
REMARK  8 active torsions:
REMARK  status: ('A' for Active; 'I' for Inactive)
REMARK    1  A    between atoms: C_1  and  N_2
REMARK    2  A    between atoms: C_6  and  C_7
REMARK    3  A    between atoms: N_9  and  N_10
REMARK    4  A    between atoms: C_11  and  C_13
REMARK    5  A    between atoms: C_13  and  N_14
REMARK    6  A    between atoms: N_14  and  C_15
REMARK    7  A    between atoms: N_14  and  S_16
REMARK    8  A    between atoms: S_16  and  C_19
REMARK                            x       y       z     vdW  Elec       q    Type
REMARK                         _______ _______ _______ _____ _____    ______ ____
ROOT
ATOM      1  C   UNL     1      -0.188  -0.374   2.507  0.00  0.00    +0.277 C 
ATOM      2  O   UNL     1      -0.101  -1.183   3.412  0.00  0.00    -0.267 OA
ATOM      3  N   UNL     1      -0.392   0.929   2.785  0.00  0.00    -0.229 N 
ATOM      4  H   UNL     1      -0.535   1.562   2.065  0.00  0.00    +0.173 HD
ENDROOT
BRANCH   1  10
ATOM      5  C   UNL     1       0.070  -3.305   1.538  0.00  0.00    +0.149 C 
ATOM      6  N   UNL     1       0.043  -2.118   0.680  0.00  0.00    -0.345 N 
ATOM      7  C   UNL     1       0.121  -2.119  -0.674  0.00  0.00    +0.101 A 
ATOM      8  C   UNL     1       0.064  -0.840  -1.117  0.00  0.00    +0.036 A 
ATOM      9  C   UNL     1      -0.054  -0.004  -0.001  0.00  0.00    +0.047 A 
ATOM     10  C   UNL     1      -0.072  -0.817   1.113  0.00  0.00    +0.107 A 
ATOM     11 BR   UNL     1       0.133  -0.283  -2.922  0.00  0.00    -0.049 Br
ENDBRANCH   1  10
BRANCH   3  12
ATOM     12  N   UNL     1      -0.396   1.369   4.115  0.00  0.00    -0.233 N 
ATOM     13  C   UNL     1      -0.600   2.671   4.394  0.00  0.00    +0.245 C 
ATOM     14  O   UNL     1      -0.779   3.463   3.493  0.00  0.00    -0.273 OA
ATOM     15  H   UNL     1      -0.253   0.735   4.836  0.00  0.00    +0.173 HD
BRANCH  13  16
ATOM     16  C   UNL     1      -0.605   3.144   5.825  0.00  0.00    +0.205 C 
BRANCH  16  17
ATOM     17  N   UNL     1      -0.845   4.589   5.861  0.00  0.00    -0.176 NA
ATOM     18  C   UNL     1      -2.216   5.105   5.833  0.00  0.00    +0.131 C 
BRANCH  17  19
ATOM     19  S   UNL     1       0.433   5.639   5.933  0.00  0.00    +0.029 S 
ATOM     20  O   UNL     1      -0.090   6.805   6.555  0.00  0.00    -0.158 OA
ATOM     21  O   UNL     1       1.478   4.897   6.547  0.00  0.00    -0.158 OA
ATOM     22  C   UNL     1       0.849   5.988   4.202  0.00  0.00    +0.215 C 
ENDBRANCH  17  19
ENDBRANCH  16  17
ENDBRANCH  13  16
ENDBRANCH   3  12
TORSDOF 5
