REMARK  Name = ZINC20200674
REMARK  9 active torsions:
REMARK  status: ('A' for Active; 'I' for Inactive)
REMARK    1  A    between atoms: C_1  and  C_2
REMARK    2  A    between atoms: C_2  and  C_4
REMARK    3  A    between atoms: C_2  and  N_11
REMARK    4  A    between atoms: N_11  and  C_12
REMARK    5  A    between atoms: C_12  and  C_13
REMARK    6  A    between atoms: C_13  and  C_15
REMARK    7  A    between atoms: C_13  and  N_18
REMARK    8  A    between atoms: C_15  and  C_16
REMARK    9  A    between atoms: C_15  and  C_17
REMARK                            x       y       z     vdW  Elec       q    Type
REMARK                         _______ _______ _______ _____ _____    ______ ____
ROOT
ATOM      1  N   UNL     1       0.970  -0.401   0.830  0.00  0.00    +0.382 N 
ATOM      2  H   UNL     1       0.447   0.062   1.557  0.00  0.00    -0.085 HD
ATOM      3  H   UNL     1       0.818  -1.397   0.889  0.00  0.00    -0.085 HD
ENDROOT
BRANCH   1   5
ATOM      4  C   UNL     1       0.635   1.610  -0.526  0.00  0.00    -0.009 C 
ATOM      5  C   UNL     1       0.521   0.085  -0.482  0.00  0.00    -0.044 C 
BRANCH   5   6
ATOM      6  C   UNL     1      -0.913  -0.319  -0.704  0.00  0.00    -0.062 A 
ATOM      7  C   UNL     1      -1.819  -0.250   0.338  0.00  0.00    +0.003 A 
ATOM      8  C   UNL     1      -3.136  -0.620   0.135  0.00  0.00    +0.015 A 
ATOM      9  C   UNL     1      -3.546  -1.059  -1.111  0.00  0.00    +0.018 A 
ATOM     10  C   UNL     1      -2.639  -1.127  -2.153  0.00  0.00    +0.015 A 
ATOM     11  C   UNL     1      -1.324  -0.752  -1.950  0.00  0.00    +0.003 A 
ATOM     12 BR   UNL     1      -5.346  -1.566  -1.390  0.00  0.00    -0.050 Br
ENDBRANCH   5   6
ENDBRANCH   1   5
BRANCH   1  13
ATOM     13  C   UNL     1       2.401  -0.113   0.996  0.00  0.00    -0.097 C 
BRANCH  13  14
ATOM     14  C   UNL     1       2.833  -0.480   2.417  0.00  0.00    -0.083 C 
BRANCH  14  15
ATOM     15  N   UNL     1       2.753  -1.937   2.592  0.00  0.00    +0.381 N 
ATOM     16  C   UNL     1       3.252  -2.319   3.938  0.00  0.00    -0.079 C 
ATOM     17  C   UNL     1       2.601  -3.704   4.177  0.00  0.00    -0.020 C 
ATOM     18  C   UNL     1       1.200  -3.542   3.545  0.00  0.00    -0.020 C 
ATOM     19  C   UNL     1       1.343  -2.379   2.545  0.00  0.00    -0.079 C 
ATOM     20  H   UNL     1       3.289  -2.403   1.876  0.00  0.00    -0.082 HD
ENDBRANCH  14  15
BRANCH  14  21
ATOM     21  C   UNL     1       4.273  -0.017   2.648  0.00  0.00    -0.033 C 
ATOM     22  C   UNL     1       5.178  -0.605   1.563  0.00  0.00    +0.005 C 
ATOM     23  C   UNL     1       4.333   1.511   2.588  0.00  0.00    +0.005 C 
ENDBRANCH  14  21
ENDBRANCH  13  14
ENDBRANCH   1  13
TORSDOF 6
