REMARK  Name = ZINC20908257
REMARK  4 active torsions:
REMARK  status: ('A' for Active; 'I' for Inactive)
REMARK    1  A    between atoms: C_7  and  N_24
REMARK    2  A    between atoms: C_9  and  O_23
REMARK    3  A    between atoms: N_14  and  C_17
REMARK    4  A    between atoms: C_17  and  C_18
REMARK                            x       y       z     vdW  Elec       q    Type
REMARK                         _______ _______ _______ _____ _____    ______ ____
ROOT
ATOM      1  C   UNL     1      -0.017   1.377   0.010  0.00  0.00    +0.000 A 
ATOM      2  C   UNL     1       1.172   2.082   0.002  0.00  0.00    +0.000 A 
ATOM      3  C   UNL     1       2.376   1.405  -0.012  0.00  0.00    +0.004 A 
ATOM      4  C   UNL     1       2.397   0.020  -0.018  0.00  0.00    -0.037 A 
ATOM      5  C   UNL     1       1.208  -0.685  -0.013  0.00  0.00    -0.055 A 
ATOM      6  C   UNL     1       0.002  -0.004   0.002  0.00  0.00    +0.002 A 
ATOM      7  C   UNL     1       1.494  -2.172  -0.028  0.00  0.00    -0.007 C 
ATOM      8  C   UNL     1       2.973  -2.304   0.396  0.00  0.00    +0.116 C 
ATOM      9  C   UNL     1       3.558  -0.945  -0.028  0.00  0.00    +0.023 C 
ATOM     10  C   UNL     1       4.625  -0.501   0.970  0.00  0.00    +0.029 C 
ATOM     11  C   UNL     1       5.806  -1.474   0.916  0.00  0.00    +0.086 C 
ATOM     12  N   UNL     1       6.349  -1.508  -0.448  0.00  0.00    -0.297 NA
ATOM     13  C   UNL     1       5.351  -1.999  -1.406  0.00  0.00    +0.086 C 
ATOM     14  C   UNL     1       4.154  -1.045  -1.430  0.00  0.00    +0.029 C 
ENDROOT
BRANCH   7  15
ATOM     15  N   UNL     1       1.299  -2.715  -1.379  0.00  0.00    +0.388 N 
ATOM     16  C   UNL     1      -0.104  -2.533  -1.785  0.00  0.00    -0.073 C 
ATOM     17  C   UNL     1      -0.229  -2.875  -3.272  0.00  0.00    +0.008 C 
ATOM     18  C   UNL     1       0.423  -4.204  -3.540  0.00  0.00    -0.035 C 
ATOM     19  C   UNL     1       1.242  -4.763  -2.701  0.00  0.00    -0.050 C 
ATOM     20  C   UNL     1       1.614  -4.148  -1.383  0.00  0.00    -0.050 C 
ATOM     21  H   UNL     1       1.905  -2.234  -2.027  0.00  0.00    -0.080 HD
ENDBRANCH   7  15
BRANCH   8  22
ATOM     22  O   UNL     1       3.083  -2.490   1.808  0.00  0.00    -0.392 OA
ATOM     23  H   UNL     1       2.652  -3.293   2.133  0.00  0.00    +0.210 HD
ENDBRANCH   8  22
BRANCH  12  24
ATOM     24  C   UNL     1       7.576  -2.315  -0.506  0.00  0.00    +0.139 C 
BRANCH  24  25
ATOM     25  C   UNL     1       8.236  -2.130  -1.848  0.00  0.00    +0.047 A 
ATOM     26  C   UNL     1       8.079  -2.924  -2.924  0.00  0.00    +0.106 A 
ATOM     27  N   UNL     1       8.852  -2.397  -3.922  0.00  0.00    -0.352 N 
ATOM     28  C   UNL     1       9.456  -1.297  -3.421  0.00  0.00    +0.171 A 
ATOM     29  N   UNL     1       9.078  -1.141  -2.182  0.00  0.00    -0.349 N 
ATOM     30  H   UNL     1       8.949  -2.747  -4.821  0.00  0.00    +0.166 HD
ATOM     31  H   UNL     1       9.364  -0.424  -1.594  0.00  0.00    +0.166 HD
ENDBRANCH  24  25
ENDBRANCH  12  24
TORSDOF 4
