REMARK  Name = ZINC35209123
REMARK  4 active torsions:
REMARK  status: ('A' for Active; 'I' for Inactive)
REMARK    1  A    between atoms: C_5  and  C_8
REMARK    2  A    between atoms: C_8  and  O_9
REMARK    3  A    between atoms: C_10  and  C_12
REMARK    4  A    between atoms: C_18  and  C_20
REMARK                            x       y       z     vdW  Elec       q    Type
REMARK                         _______ _______ _______ _____ _____    ______ ____
ROOT
ATOM      1  C   UNL     1      -0.065   1.718   0.547  0.00  0.00    +0.003 C 
ATOM      2  C   UNL     1       1.382   2.216   0.565  0.00  0.00    +0.019 C 
ATOM      3  C   UNL     1       2.135   1.543   1.718  0.00  0.00    +0.108 C 
ATOM      4  N   UNL     1       1.999   0.086   1.584  0.00  0.00    -0.296 N 
ATOM      5  C   UNL     1       0.652  -0.490   1.467  0.00  0.00    +0.101 C 
ATOM      6  C   UNL     1      -0.083   0.205   0.318  0.00  0.00    +0.025 C 
ATOM      7  C   UNL     1       3.089  -0.707   1.569  0.00  0.00    +0.219 C 
ATOM      8  O   UNL     1       2.961  -1.912   1.538  0.00  0.00    -0.275 OA
ENDROOT
BRANCH   7   9
ATOM      9  C   UNL     1       4.466  -0.095   1.592  0.00  0.00    +0.078 C 
ATOM     10  C   UNL     1       4.681   0.725   0.318  0.00  0.00    +0.032 C 
ATOM     11  C   UNL     1       6.068   1.373   0.360  0.00  0.00    +0.108 C 
ATOM     12  N   UNL     1       7.074   0.324   0.580  0.00  0.00    -0.301 N 
ATOM     13  C   UNL     1       6.912  -0.579   1.727  0.00  0.00    +0.108 C 
ATOM     14  C   UNL     1       5.516  -1.206   1.669  0.00  0.00    +0.032 C 
ATOM     15  C   UNL     1       8.123   0.194  -0.255  0.00  0.00    +0.219 C 
ATOM     16  O   UNL     1       8.245   0.946  -1.199  0.00  0.00    -0.275 OA
BRANCH  15  17
ATOM     17  C   UNL     1       9.146  -0.887  -0.016  0.00  0.00    +0.075 C 
ATOM     18  C   UNL     1      10.547  -0.450   0.415  0.00  0.00    +0.013 C 
ATOM     19  C   UNL     1      10.314  -0.984  -0.999  0.00  0.00    +0.013 C 
ENDBRANCH  15  17
ENDBRANCH   7   9
BRANCH   5  20
ATOM     20  C   UNL     1       0.759  -1.989   1.179  0.00  0.00    +0.178 C 
BRANCH  20  21
ATOM     21  O   UNL     1       1.418  -2.188  -0.073  0.00  0.00    -0.393 OA
ATOM     22  H   UNL     1       1.521  -3.117  -0.320  0.00  0.00    +0.209 HD
ENDBRANCH  20  21
ENDBRANCH   5  20
TORSDOF 4
