REMARK  Name = ZINC40762194
REMARK  3 active torsions:
REMARK  status: ('A' for Active; 'I' for Inactive)
REMARK    1  A    between atoms: C_14  and  N_30
REMARK    2  A    between atoms: C_15  and  N_19
REMARK    3  A    between atoms: N_19  and  C_20
REMARK                            x       y       z     vdW  Elec       q    Type
REMARK                         _______ _______ _______ _____ _____    ______ ____
ROOT
ATOM      1  C   UNL     1       2.322   1.398   2.575  0.00  0.00    +0.005 A 
ATOM      2  C   UNL     1       2.317   2.084   1.368  0.00  0.00    +0.018 A 
ATOM      3  C   UNL     1       2.351   1.373   0.186  0.00  0.00    +0.084 A 
ATOM      4  N   UNL     1       2.389   0.054   0.190  0.00  0.00    -0.350 N 
ATOM      5  C   UNL     1       2.395  -0.636   1.320  0.00  0.00    +0.099 A 
ATOM      6  C   UNL     1       2.362   0.016   2.549  0.00  0.00    +0.042 A 
ATOM      7  N   UNL     1       2.435  -2.025   1.278  0.00  0.00    -0.314 N 
ATOM      8  C   UNL     1       2.585  -2.807   2.514  0.00  0.00    +0.125 C 
ATOM      9  C   UNL     1       1.425  -3.806   2.605  0.00  0.00    +0.125 C 
ATOM     10  N   UNL     1       1.318  -4.519   1.325  0.00  0.00    -0.311 N 
ATOM     11  C   UNL     1       1.167  -3.738   0.089  0.00  0.00    +0.125 C 
ATOM     12  C   UNL     1       2.322  -2.739  -0.002  0.00  0.00    +0.125 C 
ATOM     13  C   UNL     1       1.358  -5.908   1.283  0.00  0.00    +0.147 A 
ATOM     14  C   UNL     1       0.176  -6.651   1.281  0.00  0.00    +0.106 A 
ATOM     15  C   UNL     1       0.273  -8.043   1.238  0.00  0.00    +0.149 A 
ATOM     16  N   UNL     1       1.479  -8.604   1.200  0.00  0.00    -0.219 NA
ATOM     17  C   UNL     1       2.570  -7.866   1.203  0.00  0.00    +0.225 A 
ATOM     18  N   UNL     1       2.523  -6.549   1.238  0.00  0.00    -0.219 NA
ATOM     19  H   UNL     1       2.412  -0.421  -0.655  0.00  0.00    +0.166 HD
ENDROOT
BRANCH  14  20
ATOM     20  N   UNL     1      -1.076  -6.016   1.323  0.00  0.00    -0.353 N 
ATOM     21  H   UNL     1      -1.131  -5.049   1.279  0.00  0.00    +0.143 HD
ATOM     22  H   UNL     1      -1.886  -6.545   1.395  0.00  0.00    +0.143 HD
ENDBRANCH  14  20
BRANCH  15  23
ATOM     23  N   UNL     1      -0.873  -8.831   1.235  0.00  0.00    -0.298 N 
ATOM     24  H   UNL     1      -1.746  -8.417   1.313  0.00  0.00    +0.154 HD
BRANCH  23  25
ATOM     25  C   UNL     1      -0.765 -10.222   1.119  0.00  0.00    +0.036 A 
ATOM     26  C   UNL     1      -1.724 -10.937   0.413  0.00  0.00    +0.027 A 
ATOM     27  C   UNL     1      -1.619 -12.309   0.300  0.00  0.00    +0.051 A 
ATOM     28  C   UNL     1      -0.556 -12.978   0.889  0.00  0.00    +0.162 A 
ATOM     29  C   UNL     1       0.406 -12.265   1.595  0.00  0.00    +0.164 A 
ATOM     30  C   UNL     1       0.302 -10.887   1.706  0.00  0.00    +0.072 A 
ATOM     31  O   UNL     1       1.461 -12.903   2.173  0.00  0.00    -0.485 OA
ATOM     32  C   UNL     1       1.337 -14.318   2.355  0.00  0.00    +0.270 C 
ATOM     33  C   UNL     1       0.802 -14.924   1.050  0.00  0.00    +0.270 C 
ATOM     34  O   UNL     1      -0.471 -14.332   0.770  0.00  0.00    -0.485 OA
ENDBRANCH  23  25
ENDBRANCH  15  23
TORSDOF 3
