REMARK  Name = ZINC20244405
REMARK  3 active torsions:
REMARK  status: ('A' for Active; 'I' for Inactive)
REMARK    1  A    between atoms: C_3  and  C_19
REMARK    2  A    between atoms: C_5  and  N_7
REMARK    3  A    between atoms: C_13  and  N_18
REMARK                            x       y       z     vdW  Elec       q    Type
REMARK                         _______ _______ _______ _____ _____    ______ ____
ROOT
ATOM      1  N   UNL     1      -0.083   5.254   0.030  0.00  0.00    -0.202 N 
ATOM      2  C   UNL     1       1.010   6.038   0.029  0.00  0.00    +0.258 C 
ATOM      3  O   UNL     1       2.161   5.650   0.022  0.00  0.00    -0.269 OA
ATOM      4  C   UNL     1       0.578   7.449   0.034  0.00  0.00    +0.050 A 
ATOM      5  C   UNL     1       1.247   8.665   0.034  0.00  0.00    +0.015 A 
ATOM      6  C   UNL     1       0.528   9.845   0.048  0.00  0.00    +0.023 A 
ATOM      7  C   UNL     1      -0.862   9.822   0.061  0.00  0.00    +0.025 A 
ATOM      8  C   UNL     1      -1.546   8.605   0.060  0.00  0.00    +0.036 A 
ATOM      9  C   UNL     1      -0.833   7.421   0.048  0.00  0.00    +0.051 A 
ATOM     10  C   UNL     1      -1.208   5.990   0.044  0.00  0.00    +0.258 C 
ATOM     11  O   UNL     1      -2.342   5.554   0.052  0.00  0.00    -0.269 OA
ENDROOT
BRANCH   1  16
ATOM     12  C   UNL     1      -1.217   1.750   0.017  0.00  0.00    +0.003 A 
ATOM     13  C   UNL     1      -0.013   1.076   0.008  0.00  0.00    +0.019 A 
ATOM     14  C   UNL     1       1.187   1.791   0.000  0.00  0.00    +0.054 A 
ATOM     15  C   UNL     1       1.162   3.186   0.008  0.00  0.00    +0.042 A 
ATOM     16  C   UNL     1      -0.053   3.852   0.022  0.00  0.00    +0.046 A 
ATOM     17  C   UNL     1      -1.241   3.132   0.030  0.00  0.00    +0.024 A 
BRANCH  14  18
ATOM     18  C   UNL     1       2.438   1.094  -0.014  0.00  0.00    +0.099 C 
ATOM     19  N   UNL     1       3.431   0.542  -0.026  0.00  0.00    -0.191 NA
ENDBRANCH  14  18
ENDBRANCH   1  16
BRANCH   7  20
ATOM     20  N   UNL     1      -1.575  11.016   0.073  0.00  0.00    -0.358 N 
ATOM     21  H   UNL     1      -2.675  11.000   0.083  0.00  0.00    +0.142 HD
ATOM     22  H   UNL     1      -1.038  11.976   0.073  0.00  0.00    +0.142 HD
ENDBRANCH   7  20
TORSDOF 3
