REMARK  Name = ZINC66482990
REMARK  9 active torsions:
REMARK  status: ('A' for Active; 'I' for Inactive)
REMARK    1  A    between atoms: C_1  and  C_2
REMARK    2  A    between atoms: N_5  and  C_11
REMARK    3  A    between atoms: C_7  and  C_10
REMARK    4  A    between atoms: C_11  and  C_12
REMARK    5  A    between atoms: C_12  and  C_14
REMARK    6  A    between atoms: C_12  and  O_25
REMARK    7  A    between atoms: C_14  and  N_15
REMARK    8  A    between atoms: C_17  and  C_24
REMARK    9  A    between atoms: C_21  and  C_23
REMARK                            x       y       z     vdW  Elec       q    Type
REMARK                         _______ _______ _______ _____ _____    ______ ____
ROOT
ATOM      1  C   UNL     1      -2.695  -4.073  -0.148  0.00  0.00    +0.142 C 
ENDROOT
BRANCH   1   2
ATOM      2  O   UNL     1      -2.044  -4.340  -1.392  0.00  0.00    -0.389 OA
ATOM      3  H   UNL     1      -2.492  -3.958  -2.159  0.00  0.00    +0.210 HD
ENDBRANCH   1   2
BRANCH   1   4
ATOM      4  C   UNL     1      -2.766  -2.562   0.077  0.00  0.00    +0.117 C 
BRANCH   4   8
ATOM      5  C   UNL     1      -0.025   1.526   0.110  0.00  0.00    +0.039 C 
ATOM      6  C   UNL     1      -0.002  -0.003   0.054  0.00  0.00    +0.130 C 
ATOM      7  C   UNL     1      -1.437  -0.537   0.082  0.00  0.00    +0.115 C 
ATOM      8  N   UNL     1      -1.407  -2.006   0.106  0.00  0.00    -0.295 NA
ATOM      9  C   UNL     1      -0.664  -2.493   1.279  0.00  0.00    +0.115 C 
ATOM     10  C   UNL     1       0.762  -1.939   1.239  0.00  0.00    +0.130 C 
ATOM     11  O   UNL     1       0.713  -0.511   1.183  0.00  0.00    -0.371 OA
ATOM     12  C   UNL     1       1.483  -2.474  -0.000  0.00  0.00    +0.039 C 
ENDBRANCH   4   8
ENDBRANCH   1   4
BRANCH   1  13
ATOM     13  C   UNL     1      -4.111  -4.651  -0.179  0.00  0.00    +0.117 C 
BRANCH  13  14
ATOM     14  N   UNL     1      -4.042  -6.109  -0.348  0.00  0.00    -0.293 NA
ATOM     15  C   UNL     1      -5.322  -6.645  -0.832  0.00  0.00    +0.116 C 
ATOM     16  C   UNL     1      -5.188  -8.154  -1.051  0.00  0.00    +0.129 C 
ATOM     17  O   UNL     1      -4.768  -8.772   0.168  0.00  0.00    -0.374 OA
ATOM     18  C   UNL     1      -3.523  -8.274   0.667  0.00  0.00    +0.178 C 
ATOM     19  C   UNL     1      -3.641  -6.766   0.904  0.00  0.00    +0.079 C 
ATOM     20  C   UNL     1      -4.694  -6.499   1.981  0.00  0.00    +0.026 C 
ATOM     21  C   UNL     1      -6.539  -8.731  -1.478  0.00  0.00    +0.039 C 
ENDBRANCH  13  14
ENDBRANCH   1  13
TORSDOF 5
