REMARK  Name = ZINC64131337
REMARK  3 active torsions:
REMARK  status: ('A' for Active; 'I' for Inactive)
REMARK    1  A    between atoms: C_7  and  C_10
REMARK    2  A    between atoms: N_12  and  C_13
REMARK    3  A    between atoms: C_13  and  C_14
REMARK                            x       y       z     vdW  Elec       q    Type
REMARK                         _______ _______ _______ _____ _____    ______ ____
ROOT
ATOM      1  C   UNL     1       0.622  -3.174  -0.021  0.00  0.00    +0.242 C 
ATOM      2  O   UNL     1      -0.578  -2.973  -0.009  0.00  0.00    -0.270 OA
ATOM      3  N   UNL     1       1.094  -4.436  -0.033  0.00  0.00    -0.309 N 
ATOM      4  H   UNL     1       2.051  -4.596  -0.043  0.00  0.00    +0.149 HD
ENDROOT
BRANCH   1  11
ATOM      5  C   UNL     1      -0.016   1.346   0.009  0.00  0.00    +0.001 A 
ATOM      6  C   UNL     1       1.158   2.116   0.002  0.00  0.00    +0.002 A 
ATOM      7  C   UNL     1       2.384   1.551  -0.013  0.00  0.00    +0.026 A 
ATOM      8  C   UNL     1       2.495   0.083  -0.022  0.00  0.00    +0.043 A 
ATOM      9  N   UNL     1       3.529  -0.711  -0.036  0.00  0.00    -0.380 N 
ATOM     10  C   UNL     1       3.066  -2.103  -0.039  0.00  0.00    +0.154 C 
ATOM     11  C   UNL     1       1.555  -2.042  -0.024  0.00  0.00    +0.042 C 
ATOM     12  C   UNL     1       1.237  -0.701  -0.013  0.00  0.00    +0.008 A 
ATOM     13  C   UNL     1       0.002  -0.004   0.002  0.00  0.00    +0.010 A 
ATOM     14  H   UNL     1       4.456  -0.427  -0.044  0.00  0.00    +0.160 HD
ENDBRANCH   1  11
BRANCH   3  15
ATOM     15  C   UNL     1       0.163  -5.567  -0.031  0.00  0.00    +0.138 C 
BRANCH  15  16
ATOM     16  C   UNL     1       0.952  -6.878  -0.046  0.00  0.00    +0.150 C 
ATOM     17  N   UNL     1       1.860  -6.935  -1.199  0.00  0.00    -0.330 N 
ATOM     18  C   UNL     1       3.227  -7.017  -0.940  0.00  0.00    +0.042 A 
ATOM     19  C   UNL     1       4.242  -7.081  -1.911  0.00  0.00    +0.024 A 
ATOM     20  C   UNL     1       5.567  -7.160  -1.552  0.00  0.00    +0.002 A 
ATOM     21  C   UNL     1       5.947  -7.180  -0.223  0.00  0.00    +0.001 A 
ATOM     22  C   UNL     1       4.969  -7.119   0.755  0.00  0.00    +0.016 A 
ATOM     23  C   UNL     1       3.643  -7.039   0.395  0.00  0.00    +0.031 A 
ATOM     24  S   UNL     1       2.144  -6.947   1.351  0.00  0.00    -0.099 S 
ATOM     25  H   UNL     1       1.520  -6.916  -2.108  0.00  0.00    +0.147 HD
ENDBRANCH  15  16
ENDBRANCH   3  15
TORSDOF 3
