REMARK  Name = ZINC42483108
REMARK  11 active torsions:
REMARK  status: ('A' for Active; 'I' for Inactive)
REMARK    1  A    between atoms: C_1  and  N_2
REMARK    2  A    between atoms: N_2  and  C_3
REMARK    3  A    between atoms: N_2  and  C_10
REMARK    4  A    between atoms: C_3  and  C_4
REMARK    5  A    between atoms: C_4  and  C_6
REMARK    6  A    between atoms: C_4  and  O_9
REMARK    7  A    between atoms: C_6  and  O_7
REMARK    8  A    between atoms: O_7  and  C_8
REMARK    9  A    between atoms: C_10  and  C_11
REMARK   10  A    between atoms: N_13  and  C_14
REMARK   11  A    between atoms: C_19  and  N_20
REMARK                            x       y       z     vdW  Elec       q    Type
REMARK                         _______ _______ _______ _____ _____    ______ ____
ROOT
ATOM      1  C   UNL     1       2.151  -0.434  -1.043  0.00  0.00    +0.201 C 
ATOM      2  O   UNL     1       2.628   0.295  -0.199  0.00  0.00    -0.278 OA
ATOM      3  N   UNL     1       2.938  -0.960  -2.002  0.00  0.00    -0.286 N 
ATOM      4  H   UNL     1       2.574  -1.605  -2.629  0.00  0.00    +0.155 HD
ENDROOT
BRANCH   3   5
ATOM      5  C   UNL     1       4.283  -0.576  -2.094  0.00  0.00    +0.054 A 
ATOM      6  C   UNL     1       4.692   0.649  -1.590  0.00  0.00    +0.028 A 
ATOM      7  C   UNL     1       6.018   1.027  -1.681  0.00  0.00    +0.040 A 
ATOM      8  C   UNL     1       6.943   0.184  -2.275  0.00  0.00    +0.125 A 
ATOM      9  C   UNL     1       6.543  -1.040  -2.780  0.00  0.00    +0.063 A 
ATOM     10  C   UNL     1       5.215  -1.428  -2.687  0.00  0.00    +0.049 A 
ATOM     11  F   UNL     1       8.238   0.559  -2.361  0.00  0.00    -0.205 F 
BRANCH  10  12
ATOM     12  N   UNL     1       4.809  -2.668  -3.191  0.00  0.00    -0.356 N 
ATOM     13  H   UNL     1       3.879  -2.937  -3.128  0.00  0.00    +0.142 HD
ATOM     14  H   UNL     1       5.458  -3.260  -3.603  0.00  0.00    +0.142 HD
ENDBRANCH  10  12
ENDBRANCH   3   5
BRANCH   1  15
ATOM     15  C   UNL     1       0.678  -0.752  -1.019  0.00  0.00    +0.019 C 
BRANCH  15  17
ATOM     16  C   UNL     1       0.127   1.390  -0.089  0.00  0.00    -0.095 C 
ATOM     17  N   UNL     1       0.046  -0.063   0.115  0.00  0.00    +0.385 N 
ATOM     18  H   UNL     1       0.526  -0.310   0.968  0.00  0.00    -0.081 HD
BRANCH  17  19
ATOM     19  C   UNL     1      -1.363  -0.466   0.210  0.00  0.00    -0.045 C 
BRANCH  19  20
ATOM     20  C   UNL     1      -1.445  -1.950   0.576  0.00  0.00    +0.124 C 
BRANCH  20  21
ATOM     21  O   UNL     1      -0.915  -2.146   1.889  0.00  0.00    -0.391 OA
ATOM     22  H   UNL     1      -1.382  -1.656   2.579  0.00  0.00    +0.210 HD
ENDBRANCH  20  21
BRANCH  20  23
ATOM     23  C   UNL     1      -2.906  -2.403   0.542  0.00  0.00    +0.188 C 
BRANCH  23  24
ATOM     24  O   UNL     1      -2.973  -3.812   0.770  0.00  0.00    -0.381 OA
ATOM     25  C   UNL     1      -4.300  -4.340   0.758  0.00  0.00    +0.194 C 
ENDBRANCH  23  24
ENDBRANCH  20  23
ENDBRANCH  19  20
ENDBRANCH  17  19
ENDBRANCH  15  17
ENDBRANCH   1  15
TORSDOF 9
