REMARK  Name = ZINC18196377
REMARK  4 active torsions:
REMARK  status: ('A' for Active; 'I' for Inactive)
REMARK    1  A    between atoms: C_4  and  N_7
REMARK    2  A    between atoms: C_17  and  C_19
REMARK    3  A    between atoms: C_24  and  C_25
REMARK    4  A    between atoms: C_31  and  C_34
REMARK                            x       y       z     vdW  Elec       q    Type
REMARK                         _______ _______ _______ _____ _____    ______ ____
ROOT
ATOM      1  N   UNL     1       0.335  -4.392  -2.906  0.00  0.00    -0.218 N 
ATOM      2  C   UNL     1       1.389  -4.871  -2.208  0.00  0.00    +0.278 A 
ATOM      3  O   UNL     1       1.606  -6.043  -1.950  0.00  0.00    -0.265 OA
ATOM      4  C   UNL     1       2.186  -3.787  -1.838  0.00  0.00    +0.070 A 
ATOM      5  C   UNL     1       1.598  -2.644  -2.319  0.00  0.00    +0.125 A 
ATOM      6  N   UNL     1       0.465  -2.996  -2.984  0.00  0.00    -0.277 N 
ATOM      7  H   UNL     1      -0.147  -2.390  -3.431  0.00  0.00    +0.189 HD
ATOM      8  N   UNL     1       2.156  -1.406  -2.104  0.00  0.00    -0.303 N 
ATOM      9  C   UNL     1       3.143  -1.282  -1.154  0.00  0.00    +0.017 C 
ATOM     10  C   UNL     1       3.780  -2.349  -0.629  0.00  0.00    +0.024 C 
ATOM     11  C   UNL     1       3.471  -3.767  -1.059  0.00  0.00    +0.093 C 
ATOM     12  C   UNL     1       4.771  -2.186   0.357  0.00  0.00    +0.162 C 
ATOM     13  O   UNL     1       5.336  -3.168   0.798  0.00  0.00    -0.292 OA
ATOM     14  C   UNL     1       5.148  -0.828   0.878  0.00  0.00    +0.088 C 
ATOM     15  C   UNL     1       3.940   0.106   0.749  0.00  0.00    +0.039 C 
ATOM     16  C   UNL     1       3.498   0.121  -0.715  0.00  0.00    +0.060 C 
ATOM     17  H   UNL     1       1.859  -0.635  -2.612  0.00  0.00    +0.153 HD
ENDROOT
BRANCH   1  21
ATOM     18  C   UNL     1      -2.746  -6.661  -4.551  0.00  0.00    +0.000 A 
ATOM     19  C   UNL     1      -2.744  -5.287  -4.703  0.00  0.00    +0.002 A 
ATOM     20  C   UNL     1      -1.724  -4.532  -4.159  0.00  0.00    +0.028 A 
ATOM     21  C   UNL     1      -0.699  -5.154  -3.458  0.00  0.00    +0.067 A 
ATOM     22  C   UNL     1      -0.705  -6.535  -3.305  0.00  0.00    +0.028 A 
ATOM     23  C   UNL     1      -1.728  -7.284  -3.853  0.00  0.00    +0.002 A 
ENDBRANCH   1  21
BRANCH  11  24
ATOM     24  C   UNL     1       4.591  -4.285  -1.925  0.00  0.00    -0.021 A 
ATOM     25  C   UNL     1       4.994  -3.571  -3.034  0.00  0.00    +0.005 A 
ATOM     26  C   UNL     1       6.022  -4.044  -3.830  0.00  0.00    +0.000 A 
ATOM     27  C   UNL     1       6.653  -5.237  -3.519  0.00  0.00    +0.001 A 
ATOM     28  C   UNL     1       6.261  -5.961  -2.414  0.00  0.00    +0.015 A 
ATOM     29  C   UNL     1       5.227  -5.486  -1.602  0.00  0.00    +0.067 A 
BRANCH  29  30
ATOM     30  C   UNL     1       4.806  -6.252  -0.413  0.00  0.00    +0.387 C 
ATOM     31  O   UNL     1       4.442  -7.413  -0.532  0.00  0.00    -0.241 OA
ATOM     32  O   UNL     1       4.821  -5.725   0.690  0.00  0.00    -0.241 OA
ENDBRANCH  29  30
ENDBRANCH  11  24
BRANCH  15  33
ATOM     33  C   UNL     1       4.326   1.498   1.178  0.00  0.00    -0.006 A 
ATOM     34  C   UNL     1       3.816   2.255   2.180  0.00  0.00    +0.011 A 
ATOM     35  C   UNL     1       4.332   3.520   2.394  0.00  0.00    +0.008 A 
ATOM     36  C   UNL     1       5.332   3.966   1.595  0.00  0.00    +0.045 A 
ATOM     37  S   UNL     1       5.579   2.576   0.502  0.00  0.00    -0.101 S 
ENDBRANCH  15  33
TORSDOF 4
