REMARK  Name = ZINC66829419
REMARK  8 active torsions:
REMARK  status: ('A' for Active; 'I' for Inactive)
REMARK    1  A    between atoms: C_1  and  C_2
REMARK    2  A    between atoms: C_2  and  C_3
REMARK    3  A    between atoms: C_3  and  C_4
REMARK    4  A    between atoms: C_4  and  N_5
REMARK    5  A    between atoms: N_8  and  N_9
REMARK    6  A    between atoms: C_10  and  C_12
REMARK    7  A    between atoms: C_13  and  C_27
REMARK    8  A    between atoms: N_14  and  C_17
REMARK                            x       y       z     vdW  Elec       q    Type
REMARK                         _______ _______ _______ _____ _____    ______ ____
ROOT
ATOM      1  C   UNL     1       3.845  -2.804  -6.828  0.00  0.00    +0.172 A 
ATOM      2  C   UNL     1       4.483  -3.100  -7.999  0.00  0.00    +0.074 A 
ATOM      3  N   UNL     1       4.855  -1.924  -8.549  0.00  0.00    -0.216 N 
ATOM      4  N   UNL     1       4.422  -0.915  -7.677  0.00  0.00    -0.060 NA
ATOM      5  N   UNL     1       3.828  -1.469  -6.678  0.00  0.00    -0.124 NA
ATOM      6  C   UNL     1       4.726  -4.475  -8.567  0.00  0.00    +0.068 C 
ENDROOT
BRANCH   3   7
ATOM      7  C   UNL     1       5.541  -1.746  -9.758  0.00  0.00    +0.068 A 
ATOM      8  C   UNL     1       5.185  -2.510 -10.875  0.00  0.00    +0.030 A 
ATOM      9  C   UNL     1       5.832  -2.361 -12.061  0.00  0.00    +0.030 A 
ATOM     10  C   UNL     1       6.877  -1.426 -12.175  0.00  0.00    +0.071 A 
ATOM     11  C   UNL     1       7.238  -0.651 -11.044  0.00  0.00    +0.002 A 
ATOM     12  C   UNL     1       6.548  -0.825  -9.835  0.00  0.00    +0.038 A 
ATOM     13  C   UNL     1       8.284   0.283 -11.163  0.00  0.00    +0.011 A 
ATOM     14  C   UNL     1       8.908   0.402 -12.373  0.00  0.00    +0.020 A 
ATOM     15  C   UNL     1       8.503  -0.390 -13.444  0.00  0.00    +0.111 A 
ATOM     16  N   UNL     1       7.528  -1.259 -13.330  0.00  0.00    -0.255 NA
ENDBRANCH   3   7
BRANCH   1  18
ATOM     17  N   UNL     1       2.654  -3.362  -4.766  0.00  0.00    -0.228 N 
ATOM     18  C   UNL     1       3.266  -3.785  -5.890  0.00  0.00    +0.282 C 
ATOM     19  O   UNL     1       3.341  -4.974  -6.130  0.00  0.00    -0.267 OA
ATOM     20  H   UNL     1       2.594  -2.413  -4.574  0.00  0.00    +0.173 HD
BRANCH  17  24
ATOM     21  N   UNL     1       1.409  -2.552  -2.484  0.00  0.00    -0.298 N 
ATOM     22  C   UNL     1       1.492  -3.870  -2.751  0.00  0.00    +0.316 C 
ATOM     23  O   UNL     1       1.015  -4.678  -1.978  0.00  0.00    -0.251 OA
ATOM     24  N   UNL     1       2.104  -4.293  -3.875  0.00  0.00    -0.218 N 
ATOM     25  H   UNL     1       1.790  -1.907  -3.101  0.00  0.00    +0.150 HD
ATOM     26  H   UNL     1       2.164  -5.242  -4.067  0.00  0.00    +0.174 HD
BRANCH  21  27
ATOM     27  C   UNL     1       0.744  -2.092  -1.262  0.00  0.00    +0.106 C 
BRANCH  27  28
ATOM     28  C   UNL     1       0.787  -0.564  -1.202  0.00  0.00    +0.018 C 
BRANCH  28  30
ATOM     29  C   UNL     1       0.136   1.444   0.134  0.00  0.00    +0.004 C 
ATOM     30  C   UNL     1       0.092  -0.084   0.074  0.00  0.00    -0.002 C 
ENDBRANCH  28  30
ENDBRANCH  27  28
ENDBRANCH  21  27
ENDBRANCH  17  24
ENDBRANCH   1  18
TORSDOF 6
