REMARK  Name = ZINC01320002
REMARK  15 active torsions:
REMARK  status: ('A' for Active; 'I' for Inactive)
REMARK    1  A    between atoms: C_1  and  C_2
REMARK    2  A    between atoms: C_2  and  C_3
REMARK    3  A    between atoms: C_3  and  C_4
REMARK    4  A    between atoms: C_7  and  C_12
REMARK    5  A    between atoms: N_9  and  C_11
REMARK    6  A    between atoms: N_14  and  C_15
REMARK    7  A    between atoms: C_15  and  C_17
REMARK    8  A    between atoms: C_15  and  C_33
REMARK    9  A    between atoms: C_19  and  O_32
REMARK   10  A    between atoms: C_21  and  O_31
REMARK   11  A    between atoms: C_23  and  O_30
REMARK   12  A    between atoms: C_25  and  S_28
REMARK   13  A    between atoms: S_28  and  C_29
REMARK   14  A    between atoms: C_33  and  C_35
REMARK   15  A    between atoms: C_33  and  O_36
REMARK                            x       y       z     vdW  Elec       q    Type
REMARK                         _______ _______ _______ _____ _____    ______ ____
ROOT
ATOM      1  C   UNL     1       0.002  -0.004   0.002  0.00  0.00    +0.132 C 
ENDROOT
BRANCH   1   2
ATOM      2  C   UNL     1       0.631  -0.513   1.301  0.00  0.00    +0.173 C 
ATOM      3  C   UNL     1       0.652  -2.043   1.292  0.00  0.00    +0.176 C 
ATOM      4  C   UNL     1       1.337  -2.544   2.568  0.00  0.00    +0.177 C 
ATOM      5  C   UNL     1       2.744  -1.944   2.648  0.00  0.00    +0.184 C 
ATOM      6  C   UNL     1       2.642  -0.417   2.603  0.00  0.00    +0.207 C 
ATOM      7  O   UNL     1       1.968  -0.020   1.408  0.00  0.00    -0.356 OA
BRANCH   6   8
ATOM      8  S   UNL     1       4.308   0.301   2.626  0.00  0.00    -0.131 S 
ATOM      9  C   UNL     1       4.018   2.074   2.876  0.00  0.00    +0.087 C 
ENDBRANCH   6   8
BRANCH   5  10
ATOM     10  O   UNL     1       3.367  -2.347   3.869  0.00  0.00    -0.386 OA
ATOM     11  H   UNL     1       4.388  -2.011   4.103  0.00  0.00    +0.210 HD
ENDBRANCH   5  10
BRANCH   4  12
ATOM     12  O   UNL     1       1.427  -3.970   2.534  0.00  0.00    -0.386 OA
ATOM     13  H   UNL     1       1.892  -4.511   3.371  0.00  0.00    +0.210 HD
ENDBRANCH   4  12
BRANCH   3  14
ATOM     14  O   UNL     1      -0.688  -2.539   1.244  0.00  0.00    -0.387 OA
ATOM     15  H   UNL     1      -0.873  -3.623   1.231  0.00  0.00    +0.210 HD
ENDBRANCH   3  14
ENDBRANCH   1   2
BRANCH   1  18
ATOM     16  C   UNL     1      -1.943  -0.640  -1.320  0.00  0.00    +0.200 C 
ATOM     17  O   UNL     1      -1.327  -0.338  -2.319  0.00  0.00    -0.278 OA
ATOM     18  N   UNL     1      -1.368  -0.510  -0.108  0.00  0.00    -0.309 N 
ATOM     19  H   UNL     1      -1.928  -0.785   0.798  0.00  0.00    +0.149 HD
BRANCH  16  22
ATOM     20  C   UNL     1      -3.978  -3.183  -2.670  0.00  0.00    -0.029 C 
ATOM     21  C   UNL     1      -3.353  -2.698  -1.341  0.00  0.00    -0.005 C 
ATOM     22  C   UNL     1      -3.353  -1.161  -1.433  0.00  0.00    +0.019 C 
ATOM     23  N   UNL     1      -3.917  -0.806  -2.753  0.00  0.00    +0.386 N 
ATOM     24  C   UNL     1      -4.783  -1.947  -3.144  0.00  0.00    -0.075 C 
ATOM     25  C   UNL     1      -4.691   0.441  -2.677  0.00  0.00    -0.095 C 
ATOM     26  H   UNL     1      -3.125  -0.621  -3.494  0.00  0.00    -0.081 HD
BRANCH  20  27
ATOM     27  C   UNL     1      -4.906  -4.375  -2.429  0.00  0.00    +0.001 C 
BRANCH  27  29
ATOM     28  C   UNL     1      -6.437  -6.021  -3.519  0.00  0.00    +0.004 C 
ATOM     29  C   UNL     1      -5.508  -4.829  -3.760  0.00  0.00    -0.003 C 
ENDBRANCH  27  29
ENDBRANCH  20  27
ENDBRANCH  16  22
ENDBRANCH   1  18
BRANCH   1  30
ATOM     30  C   UNL     1      -0.019   1.526   0.010  0.00  0.00    +0.134 C 
ATOM     31  C   UNL     1      -0.759   2.033  -1.229  0.00  0.00    +0.039 C 
BRANCH  30  32
ATOM     32  O   UNL     1      -0.688   1.987   1.186  0.00  0.00    -0.390 OA
ATOM     33  H   UNL     1      -0.801   3.066   1.367  0.00  0.00    +0.210 HD
ENDBRANCH  30  32
ENDBRANCH   1  30
TORSDOF 11
