REMARK  Name = ZINC53142367
REMARK  6 active torsions:
REMARK  status: ('A' for Active; 'I' for Inactive)
REMARK    1  A    between atoms: C_1  and  C_2
REMARK    2  A    between atoms: C_5  and  C_24
REMARK    3  A    between atoms: C_6  and  C_8
REMARK    4  A    between atoms: C_8  and  C_9
REMARK    5  A    between atoms: C_9  and  C_11
REMARK    6  A    between atoms: C_9  and  N_23
REMARK                            x       y       z     vdW  Elec       q    Type
REMARK                         _______ _______ _______ _____ _____    ______ ____
ROOT
ATOM      1  C   UNL     1       1.497  -3.192   2.858  0.00  0.00    -0.040 C 
ENDROOT
BRANCH   1   2
ATOM      2  C   UNL     1       1.506  -4.056   4.092  0.00  0.00    -0.059 A 
ATOM      3  C   UNL     1       1.355  -3.477   5.340  0.00  0.00    +0.004 A 
ATOM      4  C   UNL     1       1.362  -4.261   6.477  0.00  0.00    +0.028 A 
ATOM      5  C   UNL     1       1.520  -5.635   6.368  0.00  0.00    +0.067 A 
ATOM      6  C   UNL     1       1.672  -6.219   5.109  0.00  0.00    +0.067 A 
ATOM      7  C   UNL     1       1.658  -5.424   3.973  0.00  0.00    +0.029 A 
ATOM      8  N   UNL     1       1.807  -7.590   5.315  0.00  0.00    -0.306 N 
ATOM      9  H   UNL     1       1.928  -8.258   4.623  0.00  0.00    +0.170 HD
ATOM     10  C   UNL     1       1.740  -7.828   6.638  0.00  0.00    +0.325 A 
ATOM     11  O   UNL     1       1.823  -8.926   7.157  0.00  0.00    -0.247 OA
ATOM     12  N   UNL     1       1.567  -6.669   7.300  0.00  0.00    -0.306 N 
ATOM     13  H   UNL     1       1.489  -6.570   8.262  0.00  0.00    +0.170 HD
ENDBRANCH   1   2
BRANCH   1  14
ATOM     14  N   UNL     1       2.246  -1.956   3.121  0.00  0.00    +0.383 N 
ATOM     15  H   UNL     1       1.815  -1.457   3.884  0.00  0.00    -0.089 HD
ATOM     16  H   UNL     1       3.198  -2.185   3.365  0.00  0.00    -0.089 HD
ATOM     17  H   UNL     1       2.241  -1.377   2.295  0.00  0.00    -0.089 HD
ENDBRANCH   1  14
BRANCH   1  18
ATOM     18  C   UNL     1       0.054  -2.845   2.489  0.00  0.00    +0.024 C 
BRANCH  18  24
ATOM     19  C   UNL     1      -0.018   1.503   0.010  0.00  0.00    +0.044 C 
ATOM     20  C   UNL     1       0.002  -0.004   0.002  0.00  0.00    -0.050 A 
ATOM     21  C   UNL     1       0.006  -0.689  -1.199  0.00  0.00    +0.003 A 
ATOM     22  C   UNL     1       0.025  -2.071  -1.207  0.00  0.00    +0.004 A 
ATOM     23  C   UNL     1       0.040  -2.768  -0.013  0.00  0.00    -0.047 A 
ATOM     24  C   UNL     1       0.037  -2.084   1.188  0.00  0.00    -0.045 A 
ATOM     25  C   UNL     1       0.023  -0.702   1.195  0.00  0.00    +0.007 A 
ATOM     26  C   UNL     1       0.059  -4.275  -0.021  0.00  0.00    +0.044 C 
ENDBRANCH  18  24
ENDBRANCH   1  18
TORSDOF 4
