REMARK  Name = ZINC00081448
REMARK  4 active torsions:
REMARK  status: ('A' for Active; 'I' for Inactive)
REMARK    1  A    between atoms: C_4  and  N_11
REMARK    2  A    between atoms: C_5  and  C_7
REMARK    3  A    between atoms: C_15  and  C_17
REMARK    4  A    between atoms: C_20  and  N_23
REMARK                            x       y       z     vdW  Elec       q    Type
REMARK                         _______ _______ _______ _____ _____    ______ ____
ROOT
ATOM      1  N   UNL     1       1.163   3.483   0.010  0.00  0.00    -0.292 N 
ATOM      2  C   UNL     1      -0.042   4.164  -0.080  0.00  0.00    +0.186 A 
ATOM      3  N   UNL     1      -1.285   3.699  -0.090  0.00  0.00    -0.125 NA
ATOM      4  N   UNL     1      -2.283   4.466  -0.178  0.00  0.00    -0.140 NA
ATOM      5  C   UNL     1      -2.148   5.784  -0.266  0.00  0.00    +0.134 A 
ATOM      6  S   UNL     1      -0.364   5.921  -0.206  0.00  0.00    -0.030 S 
ATOM      7  H   UNL     1       2.000   3.965  -0.081  0.00  0.00    +0.154 HD
ENDROOT
BRANCH   1  11
ATOM      8  C   UNL     1       1.187  -0.629   0.668  0.00  0.00    +0.001 A 
ATOM      9  C   UNL     1       0.002   0.078   0.763  0.00  0.00    +0.002 A 
ATOM     10  C   UNL     1      -0.010   1.442   0.545  0.00  0.00    +0.024 A 
ATOM     11  C   UNL     1       1.171   2.103   0.231  0.00  0.00    +0.045 A 
ATOM     12  C   UNL     1       2.359   1.390   0.136  0.00  0.00    +0.076 A 
ATOM     13  C   UNL     1       2.364   0.027   0.355  0.00  0.00    +0.014 A 
BRANCH  12  14
ATOM     14  C   UNL     1       3.642   2.104  -0.206  0.00  0.00    +0.419 C 
ATOM     15  F   UNL     1       4.693   1.181  -0.243  0.00  0.00    -0.166 F 
ATOM     16  F   UNL     1       3.515   2.717  -1.458  0.00  0.00    -0.166 F 
ATOM     17  F   UNL     1       3.908   3.075   0.764  0.00  0.00    -0.166 F 
ENDBRANCH  12  14
ENDBRANCH   1  11
BRANCH   5  18
ATOM     18  C   UNL     1      -3.178   6.838  -0.374  0.00  0.00    +0.009 A 
ATOM     19  C   UNL     1      -2.801   8.180  -0.449  0.00  0.00    +0.012 A 
ATOM     20  C   UNL     1      -3.763   9.161  -0.555  0.00  0.00    +0.023 A 
ATOM     21  C   UNL     1      -5.110   8.815  -0.578  0.00  0.00    +0.025 A 
ATOM     22  C   UNL     1      -5.489   7.480  -0.498  0.00  0.00    +0.023 A 
ATOM     23  C   UNL     1      -4.532   6.495  -0.397  0.00  0.00    +0.012 A 
BRANCH  21  24
ATOM     24  N   UNL     1      -6.083   9.811  -0.680  0.00  0.00    -0.358 N 
ATOM     25  H   UNL     1      -7.022   9.571  -0.695  0.00  0.00    +0.142 HD
ATOM     26  H   UNL     1      -5.819  10.743  -0.735  0.00  0.00    +0.142 HD
ENDBRANCH  21  24
ENDBRANCH   5  18
TORSDOF 4
