REMARK  Name = ZINC33729450
REMARK  12 active torsions:
REMARK  status: ('A' for Active; 'I' for Inactive)
REMARK    1  A    between atoms: C_4  and  C_7
REMARK    2  A    between atoms: C_7  and  O_9
REMARK    3  A    between atoms: O_9  and  C_10
REMARK    4  A    between atoms: C_10  and  C_11
REMARK    5  A    between atoms: C_13  and  O_42
REMARK    6  A    between atoms: C_15  and  O_41
REMARK    7  A    between atoms: C_17  and  O_32
REMARK    8  A    between atoms: C_19  and  O_22
REMARK    9  A    between atoms: O_22  and  C_23
REMARK   10  A    between atoms: C_26  and  N_29
REMARK   11  A    between atoms: O_32  and  C_33
REMARK   12  A    between atoms: C_33  and  C_35
REMARK                            x       y       z     vdW  Elec       q    Type
REMARK                         _______ _______ _______ _____ _____    ______ ____
ROOT
ATOM      1  C   UNL     1      -3.428  -2.858  -1.484  0.00  0.00    +0.191 C 
ATOM      2  C   UNL     1      -3.544  -2.364  -0.040  0.00  0.00    +0.179 C 
ATOM      3  C   UNL     1      -2.271  -2.740   0.724  0.00  0.00    +0.192 C 
ATOM      4  C   UNL     1      -1.060  -2.142   0.001  0.00  0.00    +0.276 C 
ATOM      5  C   UNL     1      -1.040  -2.645  -1.445  0.00  0.00    +0.352 C 
ATOM      6  O   UNL     1      -2.265  -2.289  -2.089  0.00  0.00    -0.329 OA
ENDROOT
BRANCH   3   7
ATOM      7  O   UNL     1      -2.339  -2.218   2.053  0.00  0.00    -0.385 OA
ATOM      8  H   UNL     1      -1.508  -2.389   2.754  0.00  0.00    +0.210 HD
ENDBRANCH   3   7
BRANCH   2   9
ATOM      9  O   UNL     1      -3.704  -0.944  -0.032  0.00  0.00    -0.386 OA
ATOM     10  H   UNL     1      -3.804  -0.407   0.922  0.00  0.00    +0.210 HD
ENDBRANCH   2   9
BRANCH   1  11
ATOM     11  C   UNL     1      -4.671  -2.434  -2.270  0.00  0.00    +0.266 C 
BRANCH  11  12
ATOM     12  O   UNL     1      -4.616  -3.002  -3.605  0.00  0.00    -0.458 OA
BRANCH  12  13
ATOM     13  C   UNL     1      -5.643  -2.722  -4.431  0.00  0.00    +0.339 C 
ATOM     14  O   UNL     1      -6.559  -2.024  -4.046  0.00  0.00    -0.245 OA
BRANCH  13  18
ATOM     15  C   UNL     1      -5.676  -4.283  -8.380  0.00  0.00    +0.000 A 
ATOM     16  C   UNL     1      -6.722  -3.488  -7.945  0.00  0.00    +0.001 A 
ATOM     17  C   UNL     1      -6.717  -2.978  -6.664  0.00  0.00    +0.015 A 
ATOM     18  C   UNL     1      -5.654  -3.266  -5.805  0.00  0.00    +0.059 A 
ATOM     19  C   UNL     1      -4.600  -4.064  -6.252  0.00  0.00    +0.015 A 
ATOM     20  C   UNL     1      -4.620  -4.572  -7.535  0.00  0.00    +0.001 A 
ENDBRANCH  13  18
ENDBRANCH  12  13
ENDBRANCH  11  12
ENDBRANCH   1  11
BRANCH   5  21
ATOM     21  O   UNL     1       0.056  -2.048  -2.142  0.00  0.00    -0.460 OA
BRANCH  21  22
ATOM     22  C   UNL     1       0.280  -2.469  -3.415  0.00  0.00    +0.124 A 
ATOM     23  C   UNL     1      -0.533  -3.441  -3.979  0.00  0.00    +0.048 A 
ATOM     24  C   UNL     1      -0.306  -3.864  -5.274  0.00  0.00    +0.036 A 
ATOM     25  C   UNL     1       0.738  -3.326  -6.005  0.00  0.00    +0.126 A 
ATOM     26  C   UNL     1       1.553  -2.361  -5.443  0.00  0.00    +0.036 A 
ATOM     27  C   UNL     1       1.327  -1.931  -4.150  0.00  0.00    +0.048 A 
BRANCH  25  28
ATOM     28  N   UNL     1       0.983  -3.786  -7.390  0.00  0.00    +0.056 N 
ATOM     29  O   UNL     1       1.903  -3.313  -8.035  0.00  0.00    -0.126 OA
ATOM     30  O   UNL     1       0.266  -4.636  -7.886  0.00  0.00    -0.126 OA
ENDBRANCH  25  28
ENDBRANCH  21  22
ENDBRANCH   5  21
BRANCH   4  31
ATOM     31  O   UNL     1      -1.155  -0.693   0.009  0.00  0.00    -0.449 OA
BRANCH  31  32
ATOM     32  C   UNL     1       0.002  -0.004   0.002  0.00  0.00    +0.340 C 
ATOM     33  O   UNL     1       1.062  -0.597  -0.011  0.00  0.00    -0.245 OA
BRANCH  32  34
ATOM     34  C   UNL     1      -0.018   1.473   0.010  0.00  0.00    +0.059 A 
ATOM     35  C   UNL     1      -1.235   2.158   0.020  0.00  0.00    +0.015 A 
ATOM     36  C   UNL     1      -1.246   3.537   0.033  0.00  0.00    +0.001 A 
ATOM     37  C   UNL     1      -0.056   4.242   0.025  0.00  0.00    +0.000 A 
ATOM     38  C   UNL     1       1.154   3.570   0.010  0.00  0.00    +0.001 A 
ATOM     39  C   UNL     1       1.180   2.191   0.003  0.00  0.00    +0.015 A 
ENDBRANCH  32  34
ENDBRANCH  31  32
ENDBRANCH   4  31
TORSDOF 12
