REMARK  Name = ZINC53859170
REMARK  9 active torsions:
REMARK  status: ('A' for Active; 'I' for Inactive)
REMARK    1  A    between atoms: C_1  and  C_2
REMARK    2  A    between atoms: C_2  and  N_3
REMARK    3  A    between atoms: N_3  and  C_4
REMARK    4  A    between atoms: C_10  and  C_12
REMARK    5  A    between atoms: C_12  and  N_13
REMARK    6  A    between atoms: N_13  and  C_14
REMARK    7  A    between atoms: N_13  and  C_17
REMARK    8  A    between atoms: C_14  and  C_15
REMARK    9  A    between atoms: C_15  and  O_16
REMARK                            x       y       z     vdW  Elec       q    Type
REMARK                         _______ _______ _______ _____ _____    ______ ____
ROOT
ATOM      1  C   UNL     1      -3.588  -1.734   1.749  0.00  0.00    -0.076 C 
ENDROOT
BRANCH   1   7
ATOM      2  C   UNL     1      -1.281  -2.123   0.872  0.00  0.00    -0.070 C 
ATOM      3  C   UNL     1      -0.461  -2.486  -0.367  0.00  0.00    -0.016 C 
ATOM      4  C   UNL     1      -0.701  -1.445  -1.462  0.00  0.00    -0.002 C 
ATOM      5  C   UNL     1      -2.188  -1.420  -1.824  0.00  0.00    +0.000 C 
ATOM      6  C   UNL     1      -3.008  -1.056  -0.585  0.00  0.00    -0.000 C 
ATOM      7  C   UNL     1      -2.768  -2.098   0.510  0.00  0.00    -0.042 C 
BRANCH   2   8
ATOM      8  N   UNL     1      -0.873  -0.798   1.358  0.00  0.00    +0.381 N 
ATOM      9  H   UNL     1      -1.470  -0.522   2.124  0.00  0.00    -0.086 HD
ATOM     10  H   UNL     1      -0.955  -0.126   0.611  0.00  0.00    -0.086 HD
BRANCH   8  12
ATOM     11  C   UNL     1       0.946   0.527   2.325  0.00  0.00    -0.017 C 
ATOM     12  C   UNL     1       0.521  -0.853   1.818  0.00  0.00    -0.086 C 
ENDBRANCH   8  12
ENDBRANCH   2   8
ENDBRANCH   1   7
BRANCH   1  13
ATOM     13  N   UNL     1      -4.891  -2.411   1.690  0.00  0.00    +0.383 N 
ATOM     14  H   UNL     1      -5.458  -2.119   2.472  0.00  0.00    -0.081 HD
BRANCH  13  15
ATOM     15  C   UNL     1      -5.569  -2.058   0.435  0.00  0.00    -0.068 C 
ATOM     16  C   UNL     1      -5.838  -0.552   0.406  0.00  0.00    -0.015 C 
ATOM     17  C   UNL     1      -6.544  -0.186  -0.901  0.00  0.00    -0.002 C 
ATOM     18  C   UNL     1      -7.870  -0.943  -0.994  0.00  0.00    -0.000 C 
ATOM     19  C   UNL     1      -7.601  -2.449  -0.965  0.00  0.00    -0.002 C 
ATOM     20  C   UNL     1      -6.895  -2.816   0.342  0.00  0.00    -0.015 C 
ENDBRANCH  13  15
BRANCH  13  21
ATOM     21  C   UNL     1      -4.690  -3.865   1.746  0.00  0.00    -0.050 C 
BRANCH  21  22
ATOM     22  C   UNL     1      -4.117  -4.248   3.112  0.00  0.00    +0.137 C 
BRANCH  22  23
ATOM     23  O   UNL     1      -5.069  -3.938   4.132  0.00  0.00    -0.397 OA
ATOM     24  H   UNL     1      -4.772  -4.155   5.026  0.00  0.00    +0.209 HD
ENDBRANCH  22  23
ENDBRANCH  21  22
ENDBRANCH  13  21
ENDBRANCH   1  13
TORSDOF 8
