REMARK  Name = ZINC48274022
REMARK  3 active torsions:
REMARK  status: ('A' for Active; 'I' for Inactive)
REMARK    1  A    between atoms: C_4  and  N_7
REMARK    2  A    between atoms: C_9  and  C_12
REMARK    3  A    between atoms: C_12  and  C_13
REMARK                            x       y       z     vdW  Elec       q    Type
REMARK                         _______ _______ _______ _____ _____    ______ ____
ROOT
ATOM      1  C   UNL     1       5.959  -4.053  -1.510  0.00  0.00    +0.220 C 
ATOM      2  O   UNL     1       5.616  -3.331  -2.422  0.00  0.00    -0.275 OA
ATOM      3  N   UNL     1       6.522  -5.249  -1.772  0.00  0.00    -0.301 N 
ATOM      4  C   UNL     1       6.937  -6.136  -0.676  0.00  0.00    +0.110 C 
ATOM      5  C   UNL     1       8.411  -6.508  -0.875  0.00  0.00    +0.054 C 
ATOM      6  C   UNL     1       8.603  -7.083  -2.275  0.00  0.00    +0.115 C 
ATOM      7  C   UNL     1       8.206  -6.064  -3.338  0.00  0.00    +0.054 C 
ATOM      8  C   UNL     1       6.725  -5.692  -3.158  0.00  0.00    +0.110 C 
ATOM      9  C   UNL     1      10.036  -7.521  -2.473  0.00  0.00    +0.244 C 
ATOM     10  O   UNL     1      11.028  -6.826  -2.430  0.00  0.00    -0.273 OA
ATOM     11  N   UNL     1       9.977  -8.848  -2.707  0.00  0.00    -0.238 N 
ATOM     12  C   UNL     1       8.717  -9.299  -2.683  0.00  0.00    +0.307 C 
ATOM     13  O   UNL     1       8.411 -10.460  -2.866  0.00  0.00    -0.252 OA
ATOM     14  N   UNL     1       7.827  -8.320  -2.433  0.00  0.00    -0.285 N 
ATOM     15  H   UNL     1      10.753  -9.407  -2.872  0.00  0.00    +0.159 HD
ATOM     16  H   UNL     1       6.863  -8.413  -2.369  0.00  0.00    +0.151 HD
ENDROOT
BRANCH   1  17
ATOM     17  C   UNL     1       5.757  -3.612  -0.083  0.00  0.00    +0.134 C 
BRANCH  17  20
ATOM     18  N   UNL     1       3.624  -0.652  -0.037  0.00  0.00    -0.240 N 
ATOM     19  C   UNL     1       3.786  -1.994  -0.052  0.00  0.00    +0.118 A 
ATOM     20  C   UNL     1       5.115  -2.248  -0.065  0.00  0.00    -0.001 A 
ATOM     21  C   UNL     1       5.788  -1.022  -0.059  0.00  0.00    +0.138 A 
ATOM     22  N   UNL     1       4.895  -0.065  -0.048  0.00  0.00    -0.175 NA
BRANCH  18  26
ATOM     23  C   UNL     1      -0.017   1.379   0.010  0.00  0.00    +0.000 A 
ATOM     24  C   UNL     1       1.170   2.089   0.002  0.00  0.00    +0.002 A 
ATOM     25  C   UNL     1       2.377   1.419  -0.013  0.00  0.00    +0.028 A 
ATOM     26  C   UNL     1       2.399   0.031  -0.021  0.00  0.00    +0.065 A 
ATOM     27  C   UNL     1       1.207  -0.680  -0.013  0.00  0.00    +0.028 A 
ATOM     28  C   UNL     1       0.002  -0.004   0.002  0.00  0.00    +0.002 A 
ENDBRANCH  18  26
ENDBRANCH  17  20
ENDBRANCH   1  17
TORSDOF 3
