REMARK  Name = ZINC40857327
REMARK  7 active torsions:
REMARK  status: ('A' for Active; 'I' for Inactive)
REMARK    1  A    between atoms: C_1  and  C_2
REMARK    2  A    between atoms: C_2  and  C_3
REMARK    3  A    between atoms: C_3  and  C_4
REMARK    4  A    between atoms: C_4  and  C_5
REMARK    5  A    between atoms: C_5  and  C_7
REMARK    6  A    between atoms: C_5  and  N_23
REMARK    7  A    between atoms: C_11  and  C_20
REMARK                            x       y       z     vdW  Elec       q    Type
REMARK                         _______ _______ _______ _____ _____    ______ ____
ROOT
ATOM      1  C   UNL     1       1.417  -4.051   2.529  0.00  0.00    +0.206 C 
ATOM      2  O   UNL     1       1.515  -2.842   2.557  0.00  0.00    -0.277 OA
ATOM      3  N   UNL     1       0.265  -4.643   2.899  0.00  0.00    -0.266 N 
ATOM      4  C   UNL     1       0.150  -6.110   2.970  0.00  0.00    +0.168 C 
ATOM      5  C   UNL     1      -1.211  -6.498   2.374  0.00  0.00    +0.276 C 
ATOM      6  O   UNL     1      -2.242  -5.840   3.113  0.00  0.00    -0.476 OA
ATOM      7  C   UNL     1      -2.113  -4.504   3.328  0.00  0.00    +0.143 A 
ATOM      8  C   UNL     1      -0.868  -3.883   3.235  0.00  0.00    +0.078 A 
ATOM      9  C   UNL     1      -0.748  -2.522   3.467  0.00  0.00    +0.027 A 
ATOM     10  C   UNL     1      -1.867  -1.778   3.795  0.00  0.00    +0.002 A 
ATOM     11  C   UNL     1      -3.102  -2.390   3.891  0.00  0.00    +0.004 A 
ATOM     12  C   UNL     1      -3.230  -3.749   3.651  0.00  0.00    +0.047 A 
ENDROOT
BRANCH   5  13
ATOM     13  C   UNL     1      -1.395  -7.991   2.466  0.00  0.00    +0.253 C 
ATOM     14  O   UNL     1      -2.271  -8.452   3.166  0.00  0.00    -0.272 OA
ATOM     15  N   UNL     1      -0.586  -8.814   1.769  0.00  0.00    -0.326 N 
ATOM     16  H   UNL     1       0.115  -8.445   1.209  0.00  0.00    +0.145 HD
ATOM     17  H   UNL     1      -0.705  -9.775   1.828  0.00  0.00    +0.145 HD
ENDBRANCH   5  13
BRANCH   1  18
ATOM     18  C   UNL     1       2.586  -4.891   2.080  0.00  0.00    +0.013 C 
BRANCH  18  19
ATOM     19  N   UNL     1       3.453  -4.093   1.202  0.00  0.00    +0.386 N 
ATOM     20  H   UNL     1       3.792  -3.287   1.706  0.00  0.00    -0.089 HD
ATOM     21  H   UNL     1       4.235  -4.655   0.902  0.00  0.00    -0.089 HD
ATOM     22  H   UNL     1       2.928  -3.790   0.396  0.00  0.00    -0.089 HD
ENDBRANCH  18  19
BRANCH  18  23
ATOM     23  C   UNL     1       3.382  -5.351   3.302  0.00  0.00    -0.007 C 
BRANCH  23  24
ATOM     24  C   UNL     1       4.494  -6.304   2.858  0.00  0.00    -0.001 C 
BRANCH  24  26
ATOM     25  C   UNL     1       6.402  -7.717   3.635  0.00  0.00    +0.004 C 
ATOM     26  C   UNL     1       5.290  -6.764   4.080  0.00  0.00    -0.003 C 
ENDBRANCH  24  26
ENDBRANCH  23  24
ENDBRANCH  18  23
ENDBRANCH   1  18
TORSDOF 6
