REMARK  Name = ZINC13282219
REMARK  9 active torsions:
REMARK  status: ('A' for Active; 'I' for Inactive)
REMARK    1  A    between atoms: C_1  and  O_2
REMARK    2  A    between atoms: O_2  and  C_3
REMARK    3  A    between atoms: C_6  and  C_11
REMARK    4  A    between atoms: C_8  and  O_9
REMARK    5  A    between atoms: O_9  and  C_10
REMARK    6  A    between atoms: C_12  and  C_25
REMARK    7  A    between atoms: C_14  and  C_17
REMARK    8  A    between atoms: C_20  and  O_24
REMARK    9  A    between atoms: C_21  and  O_23
REMARK                            x       y       z     vdW  Elec       q    Type
REMARK                         _______ _______ _______ _____ _____    ______ ____
ROOT
ATOM      1  C   UNL     1       0.312  -6.324  -0.716  0.00  0.00    +0.074 A 
ATOM      2  C   UNL     1       0.144  -6.312   0.658  0.00  0.00    +0.097 A 
ATOM      3  N   UNL     1      -0.111  -5.047   1.029  0.00  0.00    -0.227 NA
ATOM      4  C   UNL     1      -0.121  -4.272  -0.031  0.00  0.00    +0.139 A 
ATOM      5  N   UNL     1       0.141  -5.026  -1.139  0.00  0.00    -0.337 N 
ATOM      6  H   UNL     1       0.199  -4.696  -2.082  0.00  0.00    +0.167 HD
ENDROOT
BRANCH   1  10
ATOM      7  C   UNL     1       1.189  -9.701  -3.143  0.00  0.00    +0.162 A 
ATOM      8  C   UNL     1       1.911  -9.477  -1.980  0.00  0.00    +0.050 A 
ATOM      9  C   UNL     1       1.633  -8.379  -1.193  0.00  0.00    +0.014 A 
ATOM     10  C   UNL     1       0.615  -7.496  -1.560  0.00  0.00    +0.004 A 
ATOM     11  C   UNL     1      -0.113  -7.723  -2.731  0.00  0.00    +0.059 A 
ATOM     12  C   UNL     1       0.176  -8.822  -3.518  0.00  0.00    +0.162 A 
BRANCH   7  14
ATOM     13  C   UNL     1       2.522 -11.643  -3.474  0.00  0.00    +0.277 C 
ATOM     14  O   UNL     1       1.471 -10.782  -3.918  0.00  0.00    -0.491 OA
ENDBRANCH   7  14
BRANCH  12  15
ATOM     15  O   UNL     1      -0.530  -9.046  -4.659  0.00  0.00    -0.491 OA
ATOM     16  C   UNL     1      -1.555  -8.104  -4.982  0.00  0.00    +0.277 C 
ENDBRANCH  12  15
ENDBRANCH   1  10
BRANCH   4  17
ATOM     17  C   UNL     1      -0.371  -2.815  -0.025  0.00  0.00    +0.021 A 
ATOM     18  C   UNL     1      -0.350  -2.097  -1.222  0.00  0.00    +0.015 A 
ATOM     19  C   UNL     1      -0.589  -0.739  -1.215  0.00  0.00    +0.050 A 
ATOM     20  C   UNL     1      -0.840  -0.081  -0.020  0.00  0.00    +0.158 A 
ATOM     21  C   UNL     1      -0.863  -0.792   1.178  0.00  0.00    +0.159 A 
ATOM     22  C   UNL     1      -0.629  -2.155   1.178  0.00  0.00    +0.060 A 
BRANCH  21  23
ATOM     23  O   UNL     1      -1.114  -0.145   2.348  0.00  0.00    -0.503 OA
ATOM     24  H   UNL     1      -2.051  -0.106   2.582  0.00  0.00    +0.292 HD
ENDBRANCH  21  23
BRANCH  20  25
ATOM     25  O   UNL     1      -1.070   1.259  -0.018  0.00  0.00    -0.503 OA
ATOM     26  H   UNL     1      -0.272   1.794   0.087  0.00  0.00    +0.292 HD
ENDBRANCH  20  25
ENDBRANCH   4  17
BRANCH   2  27
ATOM     27  C   UNL     1       0.236  -7.485   1.559  0.00  0.00    +0.002 A 
ATOM     28  C   UNL     1      -0.341  -8.699   1.189  0.00  0.00    +0.010 A 
ATOM     29  C   UNL     1      -0.247  -9.790   2.030  0.00  0.00    +0.001 A 
ATOM     30  C   UNL     1       0.408  -9.676   3.243  0.00  0.00    +0.000 A 
ATOM     31  C   UNL     1       0.978  -8.473   3.618  0.00  0.00    +0.001 A 
ATOM     32  C   UNL     1       0.896  -7.377   2.783  0.00  0.00    +0.010 A 
ENDBRANCH   2  27
TORSDOF 7
