REMARK  Name = ZINC51104135
REMARK  8 active torsions:
REMARK  status: ('A' for Active; 'I' for Inactive)
REMARK    1  A    between atoms: C_1  and  C_2
REMARK    2  A    between atoms: C_2  and  C_4
REMARK    3  A    between atoms: C_2  and  N_19
REMARK    4  A    between atoms: C_4  and  N_5
REMARK    5  A    between atoms: C_6  and  C_8
REMARK    6  A    between atoms: C_8  and  N_9
REMARK    7  A    between atoms: C_13  and  C_16
REMARK    8  A    between atoms: N_22  and  C_25
REMARK                            x       y       z     vdW  Elec       q    Type
REMARK                         _______ _______ _______ _____ _____    ______ ____
ROOT
ATOM      1  C   UNL     1       0.570  -0.572   1.304  0.00  0.00    +0.089 C 
ENDROOT
BRANCH   1   2
ATOM      2  N   UNL     1       0.391  -2.026   1.339  0.00  0.00    -0.316 N 
ATOM      3  C   UNL     1       0.705  -2.717   2.453  0.00  0.00    +0.227 C 
ATOM      4  O   UNL     1       1.136  -2.135   3.426  0.00  0.00    -0.274 OA
ATOM      5  H   UNL     1       0.046  -2.491   0.560  0.00  0.00    +0.149 HD
BRANCH   3   6
ATOM      6  C   UNL     1       0.521  -4.212   2.489  0.00  0.00    +0.180 C 
BRANCH   6   7
ATOM      7  N   UNL     1       0.931  -4.725   3.803  0.00  0.00    -0.289 NA
ATOM      8  C   UNL     1       2.377  -4.552   4.007  0.00  0.00    +0.113 C 
ATOM      9  C   UNL     1       2.751  -5.043   5.408  0.00  0.00    +0.176 C 
ATOM     10  O   UNL     1       2.342  -6.406   5.555  0.00  0.00    -0.365 OA
ATOM     11  C   UNL     1       0.940  -6.610   5.363  0.00  0.00    +0.217 C 
ATOM     12  C   UNL     1       0.547  -6.135   3.962  0.00  0.00    +0.126 C 
BRANCH  11  13
ATOM     13  C   UNL     1       0.620  -8.076   5.506  0.00  0.00    +0.241 C 
ATOM     14  O   UNL     1       1.516  -8.880   5.658  0.00  0.00    -0.273 OA
ATOM     15  N   UNL     1      -0.660  -8.494   5.465  0.00  0.00    -0.327 N 
ATOM     16  H   UNL     1      -1.377  -7.851   5.343  0.00  0.00    +0.145 HD
ATOM     17  H   UNL     1      -0.866  -9.438   5.557  0.00  0.00    +0.145 HD
ENDBRANCH  11  13
ENDBRANCH   6   7
ENDBRANCH   3   6
ENDBRANCH   1   2
BRANCH   1  19
ATOM     18  C   UNL     1       0.340   1.472  -0.114  0.00  0.00    -0.012 C 
ATOM     19  C   UNL     1       0.033  -0.024  -0.019  0.00  0.00    -0.054 C 
BRANCH  19  20
ATOM     20  N   UNL     1       0.675  -0.727  -1.138  0.00  0.00    +0.384 N 
ATOM     21  C   UNL     1       0.094  -0.263  -2.404  0.00  0.00    -0.059 C 
ATOM     22  C   UNL     1       0.681  -1.076  -3.562  0.00  0.00    +0.086 C 
ATOM     23  N   UNL     1       2.148  -0.987  -3.499  0.00  0.00    -0.333 N 
ATOM     24  C   UNL     1       2.805  -1.278  -2.215  0.00  0.00    +0.086 C 
ATOM     25  C   UNL     1       2.118  -0.455  -1.120  0.00  0.00    -0.059 C 
ATOM     26  H   UNL     1       0.520  -1.719  -1.043  0.00  0.00    -0.081 HD
BRANCH  23  27
ATOM     27  C   UNL     1       2.896  -0.636  -4.625  0.00  0.00    +0.030 A 
ATOM     28  C   UNL     1       4.268  -0.453  -4.520  0.00  0.00    +0.023 A 
ATOM     29  C   UNL     1       5.005  -0.107  -5.636  0.00  0.00    +0.002 A 
ATOM     30  C   UNL     1       4.377   0.058  -6.857  0.00  0.00    +0.000 A 
ATOM     31  C   UNL     1       3.010  -0.124  -6.965  0.00  0.00    +0.002 A 
ATOM     32  C   UNL     1       2.269  -0.476  -5.855  0.00  0.00    +0.023 A 
ENDBRANCH  23  27
ENDBRANCH  19  20
ENDBRANCH   1  19
TORSDOF 7
