REMARK  Name = ZINC39936870
REMARK  3 active torsions:
REMARK  status: ('A' for Active; 'I' for Inactive)
REMARK    1  A    between atoms: C_9  and  C_12
REMARK    2  A    between atoms: N_14  and  C_15
REMARK    3  A    between atoms: C_17  and  C_26
REMARK                            x       y       z     vdW  Elec       q    Type
REMARK                         _______ _______ _______ _____ _____    ______ ____
ROOT
ATOM      1  C   UNL     1       0.146  -2.905  -0.017  0.00  0.00    +0.242 C 
ATOM      2  O   UNL     1      -0.947  -2.384   0.088  0.00  0.00    -0.270 OA
ATOM      3  N   UNL     1       0.247  -4.244  -0.127  0.00  0.00    -0.298 N 
ATOM      4  H   UNL     1       1.119  -4.660  -0.211  0.00  0.00    +0.150 HD
ENDROOT
BRANCH   1  13
ATOM      5  C   UNL     1      -0.017   1.352  -0.044  0.00  0.00    +0.001 A 
ATOM      6  C   UNL     1       1.168   2.099  -0.051  0.00  0.00    +0.002 A 
ATOM      7  C   UNL     1       2.396   1.526  -0.048  0.00  0.00    +0.024 A 
ATOM      8  C   UNL     1       2.529   0.120  -0.039  0.00  0.00    +0.041 A 
ATOM      9  N   UNL     1       3.733  -0.433  -0.036  0.00  0.00    -0.285 N 
ATOM     10  C   UNL     1       3.932  -1.746  -0.028  0.00  0.00    +0.222 C 
ATOM     11  O   UNL     1       5.063  -2.190  -0.026  0.00  0.00    -0.275 OA
ATOM     12  C   UNL     1       2.749  -2.688  -0.021  0.00  0.00    +0.137 C 
ATOM     13  C   UNL     1       1.365  -2.069  -0.024  0.00  0.00    +0.032 C 
ATOM     14  C   UNL     1       1.293  -0.692  -0.032  0.00  0.00    +0.005 A 
ATOM     15  C   UNL     1       0.002  -0.004  -0.035  0.00  0.00    +0.010 A 
ATOM     16  H   UNL     1       4.508   0.150  -0.041  0.00  0.00    +0.155 HD
ENDBRANCH   1  13
BRANCH   3  17
ATOM     17  C   UNL     1      -0.961  -5.073  -0.121  0.00  0.00    +0.152 C 
ATOM     18  C   UNL     1      -0.868  -6.221  -1.153  0.00  0.00    +0.132 C 
ATOM     19  C   UNL     1      -1.490  -7.491  -0.630  0.00  0.00    -0.046 C 
ATOM     20  C   UNL     1      -1.664  -7.596   0.682  0.00  0.00    -0.013 C 
ATOM     21  S   UNL     1      -1.080  -6.083   1.415  0.00  0.00    -0.106 S 
ATOM     22  C   UNL     1      -2.245  -8.765   1.427  0.00  0.00    +0.042 C 
ATOM     23  C   UNL     1      -2.971  -9.675   0.429  0.00  0.00    +0.005 C 
ATOM     24  C   UNL     1      -2.049  -9.914  -0.771  0.00  0.00    +0.005 C 
ATOM     25  C   UNL     1      -1.908  -8.619  -1.571  0.00  0.00    +0.032 C 
BRANCH  18  26
ATOM     26  C   UNL     1       0.582  -6.481  -1.471  0.00  0.00    +0.220 C 
ATOM     27  O   UNL     1       1.071  -7.564  -1.229  0.00  0.00    -0.275 OA
ATOM     28  N   UNL     1       1.336  -5.510  -2.023  0.00  0.00    -0.329 N 
ATOM     29  H   UNL     1       0.945  -4.644  -2.216  0.00  0.00    +0.145 HD
ATOM     30  H   UNL     1       2.269  -5.677  -2.228  0.00  0.00    +0.145 HD
ENDBRANCH  18  26
ENDBRANCH   3  17
TORSDOF 3
