REMARK  Name = ZINC39665170
REMARK  10 active torsions:
REMARK  status: ('A' for Active; 'I' for Inactive)
REMARK    1  A    between atoms: C_1  and  C_2
REMARK    2  A    between atoms: C_2  and  C_4
REMARK    3  A    between atoms: C_2  and  O_31
REMARK    4  A    between atoms: C_4  and  N_5
REMARK    5  A    between atoms: C_6  and  C_8
REMARK    6  A    between atoms: C_19  and  C_21
REMARK    7  A    between atoms: C_21  and  C_23
REMARK    8  A    between atoms: C_21  and  O_24
REMARK    9  A    between atoms: O_24  and  C_25
REMARK   10  A    between atoms: O_31  and  C_32
REMARK                            x       y       z     vdW  Elec       q    Type
REMARK                         _______ _______ _______ _____ _____    ______ ____
ROOT
ATOM      1  C   UNL     1       0.941  -3.929   3.067  0.00  0.00    +0.100 C 
ATOM      2  C   UNL     1       1.910  -4.615   2.079  0.00  0.00    +0.121 C 
ATOM      3  N   UNL     1       3.184  -4.734   2.826  0.00  0.00    -0.297 N 
ATOM      4  C   UNL     1       2.771  -5.092   4.205  0.00  0.00    +0.115 C 
ATOM      5  C   UNL     1       1.507  -4.247   4.461  0.00  0.00    -0.004 C 
ATOM      6  C   UNL     1       0.493  -5.048   5.273  0.00  0.00    -0.010 C 
ATOM      7  C   UNL     1       1.055  -5.301   6.675  0.00  0.00    -0.082 C 
ATOM      8  N   UNL     1       1.335  -4.019   7.332  0.00  0.00    +0.379 N 
ATOM      9  C   UNL     1       2.379  -3.296   6.594  0.00  0.00    -0.082 C 
ATOM     10  C   UNL     1       1.873  -2.958   5.189  0.00  0.00    -0.010 C 
ATOM     11  C   UNL     1       4.436  -4.558   2.359  0.00  0.00    +0.256 C 
ATOM     12  O   UNL     1       4.610  -4.182   1.219  0.00  0.00    -0.272 OA
ATOM     13  H   UNL     1       0.493  -3.462   7.352  0.00  0.00    -0.086 HD
ATOM     14  H   UNL     1       1.647  -4.187   8.276  0.00  0.00    -0.086 HD
ENDROOT
BRANCH   1  16
ATOM     15  N   UNL     1      -0.136  -1.709   3.239  0.00  0.00    -0.312 N 
ATOM     16  C   UNL     1       0.922  -2.441   2.835  0.00  0.00    +0.218 C 
ATOM     17  O   UNL     1       1.858  -1.901   2.285  0.00  0.00    -0.275 OA
ATOM     18  H   UNL     1      -0.884  -2.141   3.679  0.00  0.00    +0.149 HD
BRANCH  15  19
ATOM     19  C   UNL     1      -0.154  -0.262   3.014  0.00  0.00    +0.148 C 
BRANCH  19  21
ATOM     20  C   UNL     1      -1.532   1.812   3.218  0.00  0.00    +0.053 C 
ATOM     21  C   UNL     1      -1.456   0.324   3.563  0.00  0.00    +0.187 C 
BRANCH  21  22
ATOM     22  O   UNL     1      -1.491   0.161   4.982  0.00  0.00    -0.488 OA
BRANCH  22  23
ATOM     23  C   UNL     1      -2.715   0.150   5.573  0.00  0.00    +0.121 A 
ATOM     24  C   UNL     1      -3.862   0.230   4.796  0.00  0.00    +0.045 A 
ATOM     25  C   UNL     1      -5.105   0.218   5.398  0.00  0.00    +0.004 A 
ATOM     26  C   UNL     1      -5.207   0.126   6.774  0.00  0.00    +0.000 A 
ATOM     27  C   UNL     1      -4.065   0.046   7.551  0.00  0.00    +0.004 A 
ATOM     28  C   UNL     1      -2.820   0.052   6.952  0.00  0.00    +0.045 A 
ENDBRANCH  22  23
ENDBRANCH  21  22
ENDBRANCH  19  21
ENDBRANCH  15  19
ENDBRANCH   1  16
BRANCH  11  29
ATOM     29  C   UNL     1       5.619  -4.829   3.252  0.00  0.00    +0.256 C 
ATOM     30  C   UNL     1       5.699  -6.327   3.553  0.00  0.00    +0.062 C 
BRANCH  29  31
ATOM     31  O   UNL     1       6.817  -4.411   2.596  0.00  0.00    -0.480 OA
BRANCH  31  32
ATOM     32  C   UNL     1       7.874  -4.087   3.387  0.00  0.00    +0.122 A 
ATOM     33  C   UNL     1       9.034  -3.578   2.822  0.00  0.00    +0.045 A 
ATOM     34  C   UNL     1      10.107  -3.249   3.629  0.00  0.00    +0.004 A 
ATOM     35  C   UNL     1      10.024  -3.427   4.998  0.00  0.00    +0.000 A 
ATOM     36  C   UNL     1       8.868  -3.934   5.563  0.00  0.00    +0.004 A 
ATOM     37  C   UNL     1       7.791  -4.259   4.761  0.00  0.00    +0.045 A 
ENDBRANCH  31  32
ENDBRANCH  29  31
ENDBRANCH  11  29
TORSDOF 8
