REMARK  Name = ZINC43685632
REMARK  7 active torsions:
REMARK  status: ('A' for Active; 'I' for Inactive)
REMARK    1  A    between atoms: C_3  and  C_18
REMARK    2  A    between atoms: C_5  and  C_6
REMARK    3  A    between atoms: C_6  and  S_7
REMARK    4  A    between atoms: S_7  and  C_8
REMARK    5  A    between atoms: N_12  and  C_13
REMARK    6  A    between atoms: C_19  and  C_20
REMARK    7  A    between atoms: C_20  and  N_21
REMARK                            x       y       z     vdW  Elec       q    Type
REMARK                         _______ _______ _______ _____ _____    ______ ____
ROOT
ATOM      1  C   UNL     1      -0.016   1.354   0.009  0.00  0.00    +0.013 A 
ATOM      2  C   UNL     1       1.176   2.042   0.002  0.00  0.00    +0.025 A 
ATOM      3  C   UNL     1       2.348   1.328  -0.013  0.00  0.00    +0.062 A 
ATOM      4  S   UNL     1       1.752  -0.355  -0.017  0.00  0.00    -0.084 S 
ATOM      5  C   UNL     1       0.002  -0.004   0.002  0.00  0.00    +0.001 A 
ENDROOT
BRANCH   3   6
ATOM      6  C   UNL     1       3.697   1.808  -0.024  0.00  0.00    -0.061 C 
ATOM      7  C   UNL     1       4.803   2.201  -0.033  0.00  0.00    -0.116 C 
BRANCH   7   8
ATOM      8  C   UNL     1       6.190   2.695  -0.044  0.00  0.00    +0.005 C 
BRANCH   8   9
ATOM      9  N   UNL     1       7.115   1.554  -0.059  0.00  0.00    +0.385 N 
ATOM     10  H   UNL     1       8.066   1.892  -0.067  0.00  0.00    -0.089 HD
ATOM     11  H   UNL     1       6.966   0.989   0.763  0.00  0.00    -0.089 HD
ATOM     12  H   UNL     1       6.950   0.997  -0.884  0.00  0.00    -0.089 HD
ENDBRANCH   8   9
ENDBRANCH   7   8
ENDBRANCH   3   6
BRANCH   5  13
ATOM     13  C   UNL     1      -1.157  -0.967   0.008  0.00  0.00    +0.119 C 
BRANCH  13  14
ATOM     14  S   UNL     1      -1.639  -1.344  -1.700  0.00  0.00    -0.079 S 
BRANCH  14  15
ATOM     15  C   UNL     1      -2.986  -2.466  -1.525  0.00  0.00    +0.210 A 
ATOM     16  N   UNL     1      -3.500  -2.900  -0.395  0.00  0.00    -0.102 NA
ATOM     17  N   UNL     1      -4.472  -3.707  -0.623  0.00  0.00    -0.022 NA
ATOM     18  N   UNL     1      -4.650  -3.847  -1.892  0.00  0.00    -0.043 NA
ATOM     19  N   UNL     1      -3.692  -3.038  -2.529  0.00  0.00    -0.217 N 
BRANCH  19  20
ATOM     20  C   UNL     1      -3.497  -2.857  -3.969  0.00  0.00    +0.112 C 
ATOM     21  C   UNL     1      -3.243  -4.221  -4.644  0.00  0.00    +0.027 C 
ATOM     22  C   UNL     1      -4.637  -4.653  -5.162  0.00  0.00    +0.002 C 
ATOM     23  C   UNL     1      -5.252  -3.316  -5.646  0.00  0.00    +0.002 C 
ATOM     24  C   UNL     1      -4.774  -2.282  -4.606  0.00  0.00    +0.027 C 
ENDBRANCH  19  20
ENDBRANCH  14  15
ENDBRANCH  13  14
ENDBRANCH   5  13
TORSDOF 7
