REMARK  Name = ZINC42193344
REMARK  5 active torsions:
REMARK  status: ('A' for Active; 'I' for Inactive)
REMARK    1  A    between atoms: C_1  and  C_2
REMARK    2  A    between atoms: C_2  and  C_4
REMARK    3  A    between atoms: C_2  and  S_13
REMARK    4  A    between atoms: S_13  and  C_16
REMARK    5  A    between atoms: C_19  and  N_22
REMARK                            x       y       z     vdW  Elec       q    Type
REMARK                         _______ _______ _______ _____ _____    ______ ____
ROOT
ATOM      1  S   UNL     1       0.904  -0.289   1.550  0.00  0.00    +0.008 S 
ATOM      2  O   UNL     1       0.295   0.432   2.612  0.00  0.00    -0.169 OA
ATOM      3  O   UNL     1       1.206  -1.670   1.692  0.00  0.00    -0.169 OA
ENDROOT
BRANCH   1   4
ATOM      4  C   UNL     1       2.466   0.491   1.314  0.00  0.00    +0.089 A 
ATOM      5  C   UNL     1       3.518  -0.223   0.770  0.00  0.00    +0.029 A 
ATOM      6  C   UNL     1       4.744   0.386   0.584  0.00  0.00    +0.024 A 
ATOM      7  C   UNL     1       4.919   1.716   0.944  0.00  0.00    +0.025 A 
ATOM      8  C   UNL     1       3.860   2.430   1.490  0.00  0.00    +0.024 A 
ATOM      9  C   UNL     1       2.635   1.817   1.668  0.00  0.00    +0.029 A 
BRANCH   7  10
ATOM     10  N   UNL     1       6.158   2.334   0.758  0.00  0.00    -0.358 N 
ATOM     11  H   UNL     1       6.897   1.834   0.377  0.00  0.00    +0.142 HD
ATOM     12  H   UNL     1       6.279   3.263   1.010  0.00  0.00    +0.142 HD
ENDBRANCH   7  10
ENDBRANCH   1   4
BRANCH   1  14
ATOM     13  C   UNL     1      -0.038   1.497  -0.295  0.00  0.00    +0.042 C 
ATOM     14  C   UNL     1       0.002  -0.003   0.002  0.00  0.00    +0.218 C 
BRANCH  14  15
ATOM     15  C   UNL     1      -1.405  -0.526   0.137  0.00  0.00    +0.240 C 
ATOM     16  O   UNL     1      -1.870  -0.742   1.236  0.00  0.00    -0.274 OA
ATOM     17  N   UNL     1      -2.147  -0.755  -0.965  0.00  0.00    -0.300 N 
ATOM     18  C   UNL     1      -3.530  -1.145  -0.801  0.00  0.00    +0.108 C 
ATOM     19  C   UNL     1      -3.626  -2.688  -0.701  0.00  0.00    +0.019 C 
ATOM     20  C   UNL     1      -3.350  -3.302  -2.008  0.00  0.00    +0.002 C 
ATOM     21  C   UNL     1      -1.944  -3.045  -2.540  0.00  0.00    +0.002 C 
ATOM     22  C   UNL     1      -1.916  -1.721  -3.262  0.00  0.00    +0.019 C 
ATOM     23  C   UNL     1      -1.517  -0.591  -2.290  0.00  0.00    +0.108 C 
ENDBRANCH  14  15
ENDBRANCH   1  14
TORSDOF 4
