REMARK  Name = ZINC46950440
REMARK  17 active torsions:
REMARK  status: ('A' for Active; 'I' for Inactive)
REMARK    1  A    between atoms: C_1  and  C_2
REMARK    2  A    between atoms: C_2  and  C_3
REMARK    3  A    between atoms: C_3  and  C_4
REMARK    4  A    between atoms: C_3  and  C_6
REMARK    5  A    between atoms: C_3  and  N_26
REMARK    6  A    between atoms: C_4  and  C_5
REMARK    7  A    between atoms: C_6  and  N_7
REMARK    8  A    between atoms: N_10  and  N_11
REMARK    9  A    between atoms: C_12  and  C_14
REMARK   10  A    between atoms: C_17  and  O_22
REMARK   11  A    between atoms: C_18  and  O_20
REMARK   12  A    between atoms: O_20  and  C_21
REMARK   13  A    between atoms: O_22  and  C_23
REMARK   14  A    between atoms: C_23  and  C_24
REMARK   15  A    between atoms: C_23  and  C_25
REMARK   16  A    between atoms: N_26  and  C_27
REMARK   17  A    between atoms: N_26  and  C_28
REMARK                            x       y       z     vdW  Elec       q    Type
REMARK                         _______ _______ _______ _____ _____    ______ ____
ROOT
ATOM      1  N   UNL     1      -2.973  -1.564  -2.674  0.00  0.00    -0.300 N 
ATOM      2  C   UNL     1      -2.909  -0.798  -3.781  0.00  0.00    +0.316 C 
ATOM      3  O   UNL     1      -3.662   0.148  -3.910  0.00  0.00    -0.251 OA
ATOM      4  N   UNL     1      -2.010  -1.081  -4.745  0.00  0.00    -0.218 N 
ATOM      5  H   UNL     1      -2.372  -2.319  -2.571  0.00  0.00    +0.150 HD
ATOM      6  H   UNL     1      -1.964  -0.529  -5.541  0.00  0.00    +0.174 HD
ENDROOT
BRANCH   4   7
ATOM      7  N   UNL     1      -1.143  -2.171  -4.596  0.00  0.00    -0.229 N 
ATOM      8  C   UNL     1      -0.244  -2.453  -5.560  0.00  0.00    +0.260 C 
ATOM      9  O   UNL     1      -0.186  -1.762  -6.559  0.00  0.00    -0.269 OA
ATOM     10  H   UNL     1      -1.189  -2.722  -3.799  0.00  0.00    +0.173 HD
BRANCH   8  11
ATOM     11  C   UNL     1       0.670  -3.601  -5.403  0.00  0.00    +0.042 A 
ATOM     12  C   UNL     1       0.601  -4.400  -4.259  0.00  0.00    +0.017 A 
ATOM     13  C   UNL     1       1.455  -5.471  -4.114  0.00  0.00    +0.050 A 
ATOM     14  C   UNL     1       2.385  -5.761  -5.103  0.00  0.00    +0.162 A 
ATOM     15  C   UNL     1       2.459  -4.968  -6.248  0.00  0.00    +0.162 A 
ATOM     16  C   UNL     1       1.602  -3.896  -6.402  0.00  0.00    +0.062 A 
BRANCH  15  17
ATOM     17  O   UNL     1       3.371  -5.254  -7.215  0.00  0.00    -0.491 OA
ATOM     18  C   UNL     1       3.391  -4.400  -8.361  0.00  0.00    +0.277 C 
ENDBRANCH  15  17
BRANCH  14  19
ATOM     19  O   UNL     1       3.225  -6.817  -4.955  0.00  0.00    -0.486 OA
BRANCH  19  20
ATOM     20  C   UNL     1       3.128  -7.558  -3.737  0.00  0.00    +0.167 C 
ATOM     21  C   UNL     1       1.994  -8.578  -3.849  0.00  0.00    +0.051 C 
ATOM     22  C   UNL     1       4.448  -8.287  -3.477  0.00  0.00    +0.051 C 
ENDBRANCH  19  20
ENDBRANCH  14  19
ENDBRANCH   8  11
ENDBRANCH   4   7
BRANCH   1  23
ATOM     23  C   UNL     1      -3.950  -1.257  -1.626  0.00  0.00    +0.094 C 
BRANCH  23  24
ATOM     24  C   UNL     1      -3.920  -2.357  -0.563  0.00  0.00    -0.051 C 
BRANCH  24  25
ATOM     25  N   UNL     1      -4.407  -3.615  -1.146  0.00  0.00    +0.381 N 
ATOM     26  C   UNL     1      -3.472  -4.066  -2.186  0.00  0.00    -0.096 C 
ATOM     27  C   UNL     1      -4.501  -4.637  -0.096  0.00  0.00    -0.096 C 
ATOM     28  H   UNL     1      -5.317  -3.466  -1.554  0.00  0.00    -0.082 HD
ENDBRANCH  24  25
BRANCH  24  30
ATOM     29  C   UNL     1      -1.980  -1.237   0.542  0.00  0.00    +0.002 C 
ATOM     30  C   UNL     1      -2.486  -2.547  -0.065  0.00  0.00    -0.014 C 
ENDBRANCH  24  30
BRANCH  24  31
ATOM     31  C   UNL     1      -4.819  -1.958   0.609  0.00  0.00    -0.014 C 
ATOM     32  C   UNL     1      -6.272  -1.888   0.137  0.00  0.00    +0.002 C 
ENDBRANCH  24  31
ENDBRANCH  23  24
ENDBRANCH   1  23
TORSDOF 10
