REMARK  Name = ZINC66561209
REMARK  8 active torsions:
REMARK  status: ('A' for Active; 'I' for Inactive)
REMARK    1  A    between atoms: C_1  and  C_2
REMARK    2  A    between atoms: C_5  and  N_9
REMARK    3  A    between atoms: C_7  and  C_8
REMARK    4  A    between atoms: C_13  and  C_15
REMARK    5  A    between atoms: C_15  and  N_16
REMARK    6  A    between atoms: N_16  and  C_17
REMARK    7  A    between atoms: N_16  and  C_20
REMARK    8  A    between atoms: C_17  and  C_18
REMARK                            x       y       z     vdW  Elec       q    Type
REMARK                         _______ _______ _______ _____ _____    ______ ____
ROOT
ATOM      1  N   UNL     1       0.124  -4.825   0.526  0.00  0.00    -0.269 N 
ATOM      2  C   UNL     1      -0.033  -5.319  -0.718  0.00  0.00    +0.310 C 
ATOM      3  O   UNL     1      -0.124  -4.562  -1.665  0.00  0.00    -0.252 OA
ATOM      4  N   UNL     1      -0.089  -6.651  -0.913  0.00  0.00    -0.241 N 
ATOM      5  C   UNL     1      -0.246  -7.144  -2.157  0.00  0.00    +0.204 C 
ATOM      6  O   UNL     1      -0.337  -6.389  -3.102  0.00  0.00    -0.277 OA
ATOM      7  H   UNL     1       0.269  -5.428   1.272  0.00  0.00    +0.156 HD
ATOM      8  H   UNL     1      -0.017  -7.255  -0.157  0.00  0.00    +0.159 HD
ENDROOT
BRANCH   1  13
ATOM      9  C   UNL     1      -0.069   0.776   1.404  0.00  0.00    +0.044 C 
ATOM     10  C   UNL     1      -0.018  -0.712   1.171  0.00  0.00    -0.047 A 
ATOM     11  C   UNL     1      -0.796  -1.282   0.180  0.00  0.00    +0.005 A 
ATOM     12  C   UNL     1      -0.752  -2.646  -0.036  0.00  0.00    +0.023 A 
ATOM     13  C   UNL     1       0.076  -3.444   0.742  0.00  0.00    +0.035 A 
ATOM     14  C   UNL     1       0.857  -2.868   1.736  0.00  0.00    +0.027 A 
ATOM     15  C   UNL     1       0.811  -1.503   1.944  0.00  0.00    -0.046 A 
ATOM     16  C   UNL     1       1.662  -0.876   3.018  0.00  0.00    +0.044 C 
ENDBRANCH   1  13
BRANCH   5  17
ATOM     17  C   UNL     1      -0.309  -8.634  -2.375  0.00  0.00    +0.020 C 
BRANCH  17  18
ATOM     18  N   UNL     1      -0.482  -8.913  -3.807  0.00  0.00    +0.391 N 
ATOM     19  H   UNL     1      -1.294  -8.422  -4.149  0.00  0.00    -0.080 HD
BRANCH  18  20
ATOM     20  C   UNL     1      -0.663 -10.357  -4.006  0.00  0.00    -0.045 C 
ATOM     21  C   UNL     1      -1.930 -10.820  -3.267  0.00  0.00    +0.009 C 
ATOM     22  C   UNL     1      -2.270 -12.260  -3.744  0.00  0.00    +0.164 C 
ATOM     23  S   UNL     1      -1.921 -12.110  -5.547  0.00  0.00    -0.033 S 
ATOM     24  O   UNL     1      -3.120 -11.755  -6.222  0.00  0.00    -0.174 OA
ATOM     25  O   UNL     1      -1.190 -13.251  -5.973  0.00  0.00    -0.174 OA
ATOM     26  C   UNL     1      -0.798 -10.654  -5.519  0.00  0.00    +0.151 C 
ENDBRANCH  18  20
BRANCH  18  27
ATOM     27  C   UNL     1       0.708  -8.463  -4.541  0.00  0.00    -0.051 C 
BRANCH  27  28
ATOM     28  C   UNL     1       1.908  -9.254  -4.086  0.00  0.00    -0.053 C 
ATOM     29  C   UNL     1       2.643  -9.891  -4.963  0.00  0.00    +0.002 C 
ENDBRANCH  27  28
ENDBRANCH  18  27
ENDBRANCH  17  18
ENDBRANCH   5  17
TORSDOF 6
