REMARK  Name = ZINC58982665
REMARK  5 active torsions:
REMARK  status: ('A' for Active; 'I' for Inactive)
REMARK    1  A    between atoms: C_3  and  C_4
REMARK    2  A    between atoms: C_4  and  N_5
REMARK    3  A    between atoms: C_11  and  C_13
REMARK    4  A    between atoms: C_13  and  C_14
REMARK    5  A    between atoms: C_14  and  C_15
REMARK                            x       y       z     vdW  Elec       q    Type
REMARK                         _______ _______ _______ _____ _____    ______ ____
ROOT
ATOM      1  N   UNL     1      -0.441  -2.161  -1.070  0.00  0.00    +0.382 N 
ATOM      2  C   UNL     1       0.915  -2.638  -0.769  0.00  0.00    -0.060 C 
ATOM      3  C   UNL     1       0.865  -4.131  -0.425  0.00  0.00    +0.089 C 
ATOM      4  N   UNL     1       0.202  -4.842  -1.529  0.00  0.00    -0.305 N 
ATOM      5  C   UNL     1      -1.092  -4.329  -2.006  0.00  0.00    +0.089 C 
ATOM      6  C   UNL     1      -0.950  -2.827  -2.276  0.00  0.00    -0.060 C 
ATOM      7  C   UNL     1       0.764  -5.932  -2.087  0.00  0.00    +0.216 C 
ATOM      8  O   UNL     1       1.831  -6.340  -1.681  0.00  0.00    -0.276 OA
ATOM      9  H   UNL     1      -1.048  -2.367  -0.291  0.00  0.00    -0.082 HD
ENDROOT
BRANCH   1  10
ATOM     10  C   UNL     1      -0.408  -0.709  -1.292  0.00  0.00    -0.075 C 
BRANCH  10  13
ATOM     11  C   UNL     1      -0.019   1.526   0.010  0.00  0.00    +0.002 C 
ATOM     12  C   UNL     1       1.317   0.779  -0.006  0.00  0.00    +0.002 C 
ATOM     13  C   UNL     1       0.002  -0.004   0.002  0.00  0.00    -0.028 C 
ENDBRANCH  10  13
ENDBRANCH   1  10
BRANCH   7  14
ATOM     14  C   UNL     1       0.066  -6.644  -3.217  0.00  0.00    +0.098 C 
BRANCH  14  15
ATOM     15  C   UNL     1       0.910  -7.839  -3.666  0.00  0.00    +0.041 C 
BRANCH  15  16
ATOM     16  C   UNL     1       0.201  -8.562  -4.813  0.00  0.00    +0.161 C 
ATOM     17  C   UNL     1       1.007  -9.764  -5.264  0.00  0.00    +0.241 C 
ATOM     18  O   UNL     1       2.129  -9.763  -5.724  0.00  0.00    -0.273 OA
ATOM     19  N   UNL     1       0.218 -10.835  -5.046  0.00  0.00    -0.239 N 
ATOM     20  C   UNL     1      -0.963 -10.480  -4.526  0.00  0.00    +0.307 C 
ATOM     21  O   UNL     1      -1.842 -11.270  -4.244  0.00  0.00    -0.252 OA
ATOM     22  N   UNL     1      -1.068  -9.150  -4.350  0.00  0.00    -0.288 N 
ATOM     23  H   UNL     1       0.473 -11.749  -5.243  0.00  0.00    +0.159 HD
ATOM     24  H   UNL     1      -1.830  -8.672  -3.988  0.00  0.00    +0.151 HD
ENDBRANCH  15  16
ENDBRANCH  14  15
ENDBRANCH   7  14
TORSDOF 5
