REMARK  Name = ZINC63162908
REMARK  6 active torsions:
REMARK  status: ('A' for Active; 'I' for Inactive)
REMARK    1  A    between atoms: C_6  and  C_10
REMARK    2  A    between atoms: C_10  and  S_11
REMARK    3  A    between atoms: S_11  and  C_12
REMARK    4  A    between atoms: C_16  and  C_25
REMARK    5  A    between atoms: N_18  and  C_19
REMARK    6  A    between atoms: C_19  and  C_20
REMARK                            x       y       z     vdW  Elec       q    Type
REMARK                         _______ _______ _______ _____ _____    ______ ____
ROOT
ATOM      1  C   UNL     1       3.546  -2.895  -4.159  0.00  0.00    +0.200 C 
ATOM      2  N   UNL     1       5.024  -2.959  -4.098  0.00  0.00    -0.229 NA
ATOM      3  N   UNL     1       5.309  -4.231  -3.417  0.00  0.00    -0.233 NA
ATOM      4  C   UNL     1       4.266  -5.142  -3.955  0.00  0.00    +0.178 C 
ATOM      5  N   UNL     1       3.060  -4.287  -4.069  0.00  0.00    -0.250 NA
ATOM      6  H   UNL     1       5.424  -2.947  -5.025  0.00  0.00    +0.143 HD
ATOM      7  H   UNL     1       5.223  -4.132  -2.416  0.00  0.00    +0.143 HD
ENDROOT
BRANCH   4   8
ATOM      8  C   UNL     1       4.019  -6.283  -3.001  0.00  0.00    +0.022 A 
ATOM      9  C   UNL     1       4.885  -6.887  -2.151  0.00  0.00    +0.014 A 
ATOM     10  C   UNL     1       4.432  -7.926  -1.360  0.00  0.00    +0.008 A 
ATOM     11  C   UNL     1       3.136  -8.311  -1.459  0.00  0.00    +0.045 A 
ATOM     12  S   UNL     1       2.509  -7.184  -2.693  0.00  0.00    -0.099 S 
ENDBRANCH   4   8
BRANCH   1  13
ATOM     13  S   UNL     1       2.908  -1.923  -2.766  0.00  0.00    -0.121 S 
BRANCH  13  14
ATOM     14  C   UNL     1       3.542  -2.787  -1.302  0.00  0.00    +0.118 C 
BRANCH  14  20
ATOM     15  C   UNL     1      -0.016   1.344   0.009  0.00  0.00    +0.002 A 
ATOM     16  C   UNL     1       1.158   2.118   0.002  0.00  0.00    +0.002 A 
ATOM     17  C   UNL     1       2.389   1.570  -0.013  0.00  0.00    +0.027 A 
ATOM     18  C   UNL     1       2.533   0.108  -0.022  0.00  0.00    +0.060 A 
ATOM     19  N   UNL     1       3.569  -0.680  -0.036  0.00  0.00    -0.363 N 
ATOM     20  C   UNL     1       3.071  -2.062  -0.039  0.00  0.00    +0.184 C 
ATOM     21  N   UNL     1       1.606  -1.974  -0.024  0.00  0.00    -0.363 N 
ATOM     22  C   UNL     1       1.290  -0.712  -0.014  0.00  0.00    +0.060 A 
ATOM     23  C   UNL     1       0.002  -0.004   0.002  0.00  0.00    +0.027 A 
ATOM     24  H   UNL     1       4.499  -0.405  -0.045  0.00  0.00    +0.162 HD
ATOM     25  H   UNL     1       0.987  -2.721  -0.022  0.00  0.00    +0.162 HD
ENDBRANCH  14  20
ENDBRANCH  13  14
ENDBRANCH   1  13
BRANCH   5  26
ATOM     26  C   UNL     1       2.269  -4.646  -5.254  0.00  0.00    +0.163 C 
BRANCH  26  27
ATOM     27  C   UNL     1       0.963  -3.896  -5.232  0.00  0.00    +0.119 A 
ATOM     28  C   UNL     1       0.740  -2.688  -5.781  0.00  0.00    +0.046 A 
ATOM     29  C   UNL     1      -0.613  -2.365  -5.527  0.00  0.00    +0.041 A 
ATOM     30  C   UNL     1      -1.136  -3.395  -4.837  0.00  0.00    +0.195 A 
ATOM     31  O   UNL     1      -0.179  -4.322  -4.667  0.00  0.00    -0.467 OA
ENDBRANCH  26  27
ENDBRANCH   5  26
TORSDOF 6
