REMARK  Name = ZINC16102520
REMARK  6 active torsions:
REMARK  status: ('A' for Active; 'I' for Inactive)
REMARK    1  A    between atoms: C_4  and  C_7
REMARK    2  A    between atoms: C_13  and  C_15
REMARK    3  A    between atoms: N_17  and  N_18
REMARK    4  A    between atoms: C_19  and  C_20
REMARK    5  A    between atoms: C_23  and  O_27
REMARK    6  A    between atoms: C_25  and  O_26
REMARK                            x       y       z     vdW  Elec       q    Type
REMARK                         _______ _______ _______ _____ _____    ______ ____
ROOT
ATOM      1  C   UNL     1       5.423   4.281   1.020  0.00  0.00    +0.245 C 
ATOM      2  O   UNL     1       6.176   3.441   0.575  0.00  0.00    -0.273 OA
ATOM      3  N   UNL     1       5.710   4.894   2.186  0.00  0.00    -0.206 N 
ATOM      4  H   UNL     1       5.107   5.566   2.541  0.00  0.00    +0.177 HD
ENDROOT
BRANCH   1  10
ATOM      5  C   UNL     1       4.057   3.810  -1.031  0.00  0.00    +0.057 C 
ATOM      6  C   UNL     1       4.697   4.760  -2.068  0.00  0.00    +0.113 C 
ATOM      7  N   UNL     1       4.518   6.112  -1.522  0.00  0.00    -0.314 N 
ATOM      8  C   UNL     1       4.225   6.074  -0.211  0.00  0.00    +0.226 C 
ATOM      9  O   UNL     1       4.035   7.048   0.487  0.00  0.00    -0.275 OA
ATOM     10  C   UNL     1       4.167   4.641   0.269  0.00  0.00    +0.171 C 
ATOM     11  H   UNL     1       4.601   6.927  -2.041  0.00  0.00    +0.149 HD
BRANCH   5  15
ATOM     12  C   UNL     1      -0.028   3.020  -1.999  0.00  0.00    +0.000 A 
ATOM     13  C   UNL     1       0.407   4.323  -1.847  0.00  0.00    +0.000 A 
ATOM     14  C   UNL     1       1.728   4.579  -1.533  0.00  0.00    +0.004 A 
ATOM     15  C   UNL     1       2.616   3.531  -1.373  0.00  0.00    -0.042 A 
ATOM     16  C   UNL     1       2.181   2.228  -1.524  0.00  0.00    +0.004 A 
ATOM     17  C   UNL     1       0.859   1.972  -1.837  0.00  0.00    +0.000 A 
ENDBRANCH   5  15
ENDBRANCH   1  10
BRANCH   3  18
ATOM     18  N   UNL     1       6.877   4.560   2.884  0.00  0.00    -0.188 NA
ATOM     19  C   UNL     1       7.101   5.069   4.057  0.00  0.00    +0.142 C 
BRANCH  19  20
ATOM     20  C   UNL     1       6.027   5.788   4.764  0.00  0.00    +0.036 A 
ATOM     21  C   UNL     1       4.688   5.493   4.493  0.00  0.00    +0.016 A 
ATOM     22  C   UNL     1       3.687   6.167   5.157  0.00  0.00    +0.046 A 
ATOM     23  C   UNL     1       4.003   7.140   6.097  0.00  0.00    +0.120 A 
ATOM     24  C   UNL     1       5.329   7.440   6.374  0.00  0.00    +0.091 A 
ATOM     25  C   UNL     1       6.344   6.766   5.717  0.00  0.00    +0.129 A 
BRANCH  25  26
ATOM     26  O   UNL     1       7.642   7.056   5.991  0.00  0.00    -0.506 OA
ATOM     27  H   UNL     1       8.036   7.702   5.389  0.00  0.00    +0.292 HD
ENDBRANCH  25  26
BRANCH  23  28
ATOM     28  O   UNL     1       3.010   7.799   6.749  0.00  0.00    -0.507 OA
ATOM     29  H   UNL     1       2.730   7.375   7.571  0.00  0.00    +0.292 HD
ENDBRANCH  23  28
ENDBRANCH  19  20
ENDBRANCH   3  18
TORSDOF 6
