REMARK  Name = ZINC39337525
REMARK  7 active torsions:
REMARK  status: ('A' for Active; 'I' for Inactive)
REMARK    1  A    between atoms: C_1  and  O_2
REMARK    2  A    between atoms: O_2  and  C_3
REMARK    3  A    between atoms: C_3  and  C_5
REMARK    4  A    between atoms: C_8  and  C_11
REMARK    5  A    between atoms: C_14  and  C_16
REMARK    6  A    between atoms: C_16  and  N_17
REMARK    7  A    between atoms: N_17  and  C_18
REMARK                            x       y       z     vdW  Elec       q    Type
REMARK                         _______ _______ _______ _____ _____    ______ ____
ROOT
ATOM      1  C   UNL     1      -1.412  -6.342  -0.018  0.00  0.00    +0.135 A 
ATOM      2  C   UNL     1      -2.544  -7.097  -0.023  0.00  0.00    +0.050 A 
ATOM      3  C   UNL     1      -2.133  -8.444  -0.031  0.00  0.00    +0.046 A 
ATOM      4  C   UNL     1      -0.784  -8.445  -0.031  0.00  0.00    +0.120 A 
ATOM      5  O   UNL     1      -0.353  -7.174  -0.029  0.00  0.00    -0.458 OA
ENDROOT
BRANCH   1   9
ATOM      6  C   UNL     1      -1.247  -2.105   0.003  0.00  0.00    +0.059 A 
ATOM      7  C   UNL     1      -0.064  -2.851  -0.007  0.00  0.00    +0.015 A 
ATOM      8  C   UNL     1      -0.117  -4.216  -0.013  0.00  0.00    +0.012 A 
ATOM      9  C   UNL     1      -1.355  -4.867  -0.011  0.00  0.00    +0.017 A 
ATOM     10  C   UNL     1      -2.538  -4.122  -0.001  0.00  0.00    +0.012 A 
ATOM     11  C   UNL     1      -2.485  -2.757   0.011  0.00  0.00    +0.015 A 
BRANCH   6  12
ATOM     12  C   UNL     1      -1.190  -0.632   0.010  0.00  0.00    +0.339 C 
ATOM     13  O   UNL     1      -2.218   0.016   0.023  0.00  0.00    -0.245 OA
BRANCH  12  15
ATOM     14  C   UNL     1      -0.017   1.425   0.010  0.00  0.00    +0.280 C 
ATOM     15  O   UNL     1       0.002  -0.004   0.002  0.00  0.00    -0.464 OA
ENDBRANCH  12  15
ENDBRANCH   6  12
ENDBRANCH   1   9
BRANCH   4  16
ATOM     16  C   UNL     1       0.093  -9.671  -0.038  0.00  0.00    +0.158 C 
BRANCH  16  17
ATOM     17  N   UNL     1       0.377 -10.061  -1.426  0.00  0.00    -0.273 NA
ATOM     18  H   UNL     1      -0.477 -10.207  -1.943  0.00  0.00    +0.126 HD
BRANCH  17  19
ATOM     19  C   UNL     1       1.232 -11.255  -1.472  0.00  0.00    +0.284 C 
ATOM     20  N   UNL     1       1.271 -11.821  -2.847  0.00  0.00    -0.207 NA
ATOM     21  N   UNL     1       2.679 -12.228  -2.943  0.00  0.00    -0.271 NA
ATOM     22  N   UNL     1       3.366 -11.453  -2.053  0.00  0.00    -0.089 NA
ATOM     23  N   UNL     1       2.639 -10.899  -1.219  0.00  0.00    -0.135 NA
ATOM     24  H   UNL     1       0.658 -12.618  -2.927  0.00  0.00    +0.147 HD
ATOM     25  H   UNL     1       2.775 -13.203  -2.700  0.00  0.00    +0.163 HD
ATOM     26  H   UNL     1       3.022 -12.068  -3.878  0.00  0.00    +0.163 HD
ENDBRANCH  17  19
ENDBRANCH  16  17
ENDBRANCH   4  16
TORSDOF 6
