REMARK  Name = ZINC67133521
REMARK  5 active torsions:
REMARK  status: ('A' for Active; 'I' for Inactive)
REMARK    1  A    between atoms: C_1  and  C_2
REMARK    2  A    between atoms: C_3  and  C_17
REMARK    3  A    between atoms: N_6  and  C_7
REMARK    4  A    between atoms: N_19  and  N_20
REMARK    5  A    between atoms: C_21  and  C_23
REMARK                            x       y       z     vdW  Elec       q    Type
REMARK                         _______ _______ _______ _____ _____    ______ ____
ROOT
ATOM      1  C   UNL     1      -0.018   1.503   0.010  0.00  0.00    +0.068 C 
ATOM      2  C   UNL     1       0.002  -0.004   0.002  0.00  0.00    +0.074 A 
ATOM      3  C   UNL     1       0.009  -0.813  -1.099  0.00  0.00    +0.172 A 
ATOM      4  N   UNL     1       0.028  -2.092  -0.688  0.00  0.00    -0.124 NA
ATOM      5  N   UNL     1       0.033  -2.131   0.599  0.00  0.00    -0.060 NA
ATOM      6  N   UNL     1       0.023  -0.815   1.082  0.00  0.00    -0.216 N 
ENDROOT
BRANCH   6   7
ATOM      7  C   UNL     1       0.031  -0.417   2.427  0.00  0.00    +0.071 A 
ATOM      8  C   UNL     1       0.704   0.736   2.806  0.00  0.00    +0.031 A 
ATOM      9  C   UNL     1       0.713   1.128   4.130  0.00  0.00    +0.051 A 
ATOM     10  C   UNL     1       0.049   0.372   5.085  0.00  0.00    +0.162 A 
ATOM     11  C   UNL     1      -0.627  -0.783   4.708  0.00  0.00    +0.164 A 
ATOM     12  C   UNL     1      -0.639  -1.173   3.378  0.00  0.00    +0.077 A 
ATOM     13  O   UNL     1      -1.291  -1.534   5.630  0.00  0.00    -0.485 OA
ATOM     14  C   UNL     1      -0.952  -1.314   7.003  0.00  0.00    +0.270 C 
ATOM     15  C   UNL     1      -0.914   0.199   7.253  0.00  0.00    +0.270 C 
ATOM     16  O   UNL     1       0.072   0.772   6.387  0.00  0.00    -0.485 OA
ENDBRANCH   6   7
BRANCH   3  17
ATOM     17  C   UNL     1      -0.003  -0.358  -2.503  0.00  0.00    +0.282 C 
ATOM     18  O   UNL     1      -0.020   0.831  -2.757  0.00  0.00    -0.267 OA
ATOM     19  N   UNL     1       0.005  -1.261  -3.503  0.00  0.00    -0.229 N 
ATOM     20  H   UNL     1       0.019  -2.210  -3.301  0.00  0.00    +0.173 HD
BRANCH  19  21
ATOM     21  N   UNL     1      -0.006  -0.830  -4.836  0.00  0.00    -0.234 N 
ATOM     22  C   UNL     1       0.002  -1.732  -5.837  0.00  0.00    +0.226 C 
ATOM     23  O   UNL     1       0.019  -2.918  -5.584  0.00  0.00    -0.275 OA
ATOM     24  C   UNL     1      -0.010  -1.268  -7.271  0.00  0.00    +0.110 C 
ATOM     25  H   UNL     1      -0.020   0.119  -5.039  0.00  0.00    +0.173 HD
ENDBRANCH  19  21
ENDBRANCH   3  17
TORSDOF 3
