REMARK  Name = ZINC50287666
REMARK  5 active torsions:
REMARK  status: ('A' for Active; 'I' for Inactive)
REMARK    1  A    between atoms: C_1  and  N_2
REMARK    2  A    between atoms: C_9  and  C_11
REMARK    3  A    between atoms: C_11  and  C_13
REMARK    4  A    between atoms: C_11  and  N_15
REMARK    5  A    between atoms: N_15  and  C_16
REMARK                            x       y       z     vdW  Elec       q    Type
REMARK                         _______ _______ _______ _____ _____    ______ ____
ROOT
ATOM      1  C   UNL     1       0.223  -3.732   4.313  0.00  0.00    +0.065 C 
ENDROOT
BRANCH   1  10
ATOM      2  C   UNL     1       0.556   1.726   0.387  0.00  0.00    +0.129 C 
ATOM      3  N   UNL     1       0.592   0.264   0.309  0.00  0.00    -0.332 N 
ATOM      4  C   UNL     1       0.751  -0.507  -0.927  0.00  0.00    +0.109 C 
ATOM      5  C   UNL     1       0.728  -1.980  -0.489  0.00  0.00    +0.056 C 
ATOM      6  C   UNL     1       0.552  -1.927   1.012  0.00  0.00    -0.025 A 
ATOM      7  C   UNL     1       0.487  -0.598   1.402  0.00  0.00    +0.033 A 
ATOM      8  C   UNL     1       0.330  -0.296   2.756  0.00  0.00    +0.023 A 
ATOM      9  C   UNL     1       0.245  -1.307   3.689  0.00  0.00    +0.005 A 
ATOM     10  C   UNL     1       0.315  -2.629   3.291  0.00  0.00    -0.047 A 
ATOM     11  C   UNL     1       0.462  -2.937   1.950  0.00  0.00    +0.008 A 
ENDBRANCH   1  10
BRANCH   1  12
ATOM     12  N   UNL     1      -0.791  -3.385   5.318  0.00  0.00    +0.394 N 
ATOM     13  H   UNL     1      -0.496  -2.563   5.823  0.00  0.00    -0.083 HD
ATOM     14  H   UNL     1      -1.670  -3.200   4.858  0.00  0.00    -0.083 HD
BRANCH  12  15
ATOM     15  C   UNL     1      -0.956  -4.504   6.255  0.00  0.00    -0.070 C 
ATOM     16  C   UNL     1      -1.507  -5.722   5.487  0.00  0.00    -0.016 C 
ATOM     17  C   UNL     1      -1.200  -6.965   6.277  0.00  0.00    -0.002 C 
ATOM     18  C   UNL     1      -2.363  -7.380   7.198  0.00  0.00    -0.000 C 
ATOM     19  C   UNL     1      -3.020  -6.181   7.909  0.00  0.00    -0.000 C 
ATOM     20  C   UNL     1      -2.010  -5.184   8.408  0.00  0.00    -0.002 C 
ATOM     21  C   UNL     1      -1.834  -4.087   7.338  0.00  0.00    -0.016 C 
ENDBRANCH  12  15
ENDBRANCH   1  12
BRANCH   1  22
ATOM     22  C   UNL     1       1.528  -3.901   4.972  0.00  0.00    +0.051 C 
ATOM     23  N   UNL     1       2.536  -4.031   5.481  0.00  0.00    -0.198 NA
ENDBRANCH   1  22
TORSDOF 4
