REMARK  Name = ZINC11947334
REMARK  13 active torsions:
REMARK  status: ('A' for Active; 'I' for Inactive)
REMARK    1  A    between atoms: C_1  and  C_2
REMARK    2  A    between atoms: C_3  and  C_32
REMARK    3  A    between atoms: C_4  and  O_30
REMARK    4  A    between atoms: C_7  and  C_8
REMARK    5  A    between atoms: C_8  and  N_65
REMARK    6  A    between atoms: C_14  and  C_16
REMARK    7  A    between atoms: C_16  and  C_17
REMARK    8  A    between atoms: N_19  and  C_20
REMARK    9  A    between atoms: N_19  and  C_23
REMARK   10  A    between atoms: C_20  and  C_21
REMARK   11  A    between atoms: C_21  and  O_22
REMARK   12  A    between atoms: C_23  and  C_24
REMARK   13  A    between atoms: O_30  and  C_31
REMARK                            x       y       z     vdW  Elec       q    Type
REMARK                         _______ _______ _______ _____ _____    ______ ____
ROOT
ATOM      1  C   UNL     1      -2.332   0.286  -2.606  0.00  0.00    -0.058 C 
ATOM      2  C   UNL     1      -3.014   0.291  -3.976  0.00  0.00    +0.085 C 
ATOM      3  N   UNL     1      -4.400  -0.148  -3.846  0.00  0.00    -0.318 N 
ATOM      4  C   UNL     1      -5.054  -0.157  -2.680  0.00  0.00    +0.200 C 
ATOM      5  O   UNL     1      -6.214  -0.509  -2.667  0.00  0.00    -0.278 OA
ATOM      6  C   UNL     1      -4.411   0.251  -1.385  0.00  0.00    +0.028 C 
ATOM      7  H   UNL     1      -4.867  -0.447  -4.642  0.00  0.00    +0.149 HD
ATOM      8  N   UNL     1      -3.191   1.031  -1.665  0.00  0.00    +0.391 N 
ATOM      9  H   UNL     1      -3.457   1.927  -2.090  0.00  0.00    -0.080 HD
ENDROOT
BRANCH   8  10
ATOM     10  C   UNL     1      -2.458   1.294  -0.406  0.00  0.00    -0.042 C 
BRANCH  10  17
ATOM     11  C   UNL     1      -2.925   4.131  -0.677  0.00  0.00    +0.044 C 
ATOM     12  C   UNL     1      -1.530   3.580  -0.824  0.00  0.00    -0.043 A 
ATOM     13  C   UNL     1      -0.477   4.433  -1.094  0.00  0.00    -0.006 A 
ATOM     14  C   UNL     1       0.807   3.926  -1.229  0.00  0.00    +0.123 A 
ATOM     15  C   UNL     1       1.030   2.563  -1.093  0.00  0.00    +0.046 A 
ATOM     16  C   UNL     1      -0.026   1.715  -0.824  0.00  0.00    +0.005 A 
ATOM     17  C   UNL     1      -1.306   2.222  -0.694  0.00  0.00    -0.061 A 
ATOM     18  C   UNL     1      -0.723   5.912  -1.241  0.00  0.00    +0.048 C 
BRANCH  14  19
ATOM     19  O   UNL     1       1.845   4.762  -1.494  0.00  0.00    -0.495 OA
ATOM     20  C   UNL     1       3.140   4.170  -1.620  0.00  0.00    +0.277 C 
ENDBRANCH  14  19
ENDBRANCH  10  17
ENDBRANCH   8  10
BRANCH   6  21
ATOM     21  C   UNL     1      -5.385   1.119  -0.586  0.00  0.00    +0.090 C 
BRANCH  21  22
ATOM     22  C   UNL     1      -5.686   2.377  -1.358  0.00  0.00    +0.215 C 
ATOM     23  O   UNL     1      -5.215   2.537  -2.465  0.00  0.00    -0.276 OA
ATOM     24  N   UNL     1      -6.478   3.325  -0.819  0.00  0.00    -0.295 N 
BRANCH  24  25
ATOM     25  C   UNL     1      -7.046   3.133   0.517  0.00  0.00    +0.136 C 
BRANCH  25  26
ATOM     26  C   UNL     1      -6.087   3.700   1.566  0.00  0.00    +0.174 C 
BRANCH  26  27
ATOM     27  O   UNL     1      -5.983   5.116   1.400  0.00  0.00    -0.393 OA
ATOM     28  H   UNL     1      -5.390   5.543   2.032  0.00  0.00    +0.209 HD
ENDBRANCH  26  27
ENDBRANCH  25  26
ENDBRANCH  24  25
BRANCH  24  29
ATOM     29  C   UNL     1      -6.770   4.549  -1.570  0.00  0.00    +0.143 C 
BRANCH  29  30
ATOM     30  C   UNL     1      -8.010   4.343  -2.402  0.00  0.00    -0.030 A 
ATOM     31  C   UNL     1      -7.904   3.859  -3.692  0.00  0.00    +0.005 A 
ATOM     32  C   UNL     1      -9.041   3.666  -4.454  0.00  0.00    +0.000 A 
ATOM     33  C   UNL     1     -10.284   3.967  -3.928  0.00  0.00    +0.000 A 
ATOM     34  C   UNL     1     -10.390   4.456  -2.640  0.00  0.00    +0.000 A 
ATOM     35  C   UNL     1      -9.253   4.644  -1.877  0.00  0.00    +0.005 A 
ENDBRANCH  29  30
ENDBRANCH  24  29
ENDBRANCH  21  22
ENDBRANCH   6  21
TORSDOF 10
