REMARK  Name = ZINC65422295
REMARK  6 active torsions:
REMARK  status: ('A' for Active; 'I' for Inactive)
REMARK    1  A    between atoms: C_1  and  C_2
REMARK    2  A    between atoms: N_4  and  C_5
REMARK    3  A    between atoms: C_8  and  C_20
REMARK    4  A    between atoms: C_11  and  C_14
REMARK    5  A    between atoms: C_25  and  N_26
REMARK    6  A    between atoms: N_26  and  C_27
REMARK                            x       y       z     vdW  Elec       q    Type
REMARK                         _______ _______ _______ _____ _____    ______ ____
ROOT
ATOM      1  C   UNL     1       0.020  -2.136  -1.177  0.00  0.00    +0.078 C 
ATOM      2  C   UNL     1      -1.410  -2.669  -1.045  0.00  0.00    +0.059 C 
ATOM      3  C   UNL     1      -1.387  -4.197  -1.133  0.00  0.00    +0.154 C 
ATOM      4  O   UNL     1      -0.791  -4.593  -2.370  0.00  0.00    -0.368 OA
ATOM      5  C   UNL     1       0.563  -4.163  -2.529  0.00  0.00    +0.124 C 
ATOM      6  C   UNL     1       0.620  -2.634  -2.495  0.00  0.00    +0.054 C 
ENDROOT
BRANCH   3   7
ATOM      7  C   UNL     1      -2.797  -4.726  -1.063  0.00  0.00    +0.019 A 
ATOM      8  C   UNL     1      -3.499  -5.007  -2.221  0.00  0.00    +0.011 A 
ATOM      9  C   UNL     1      -4.795  -5.492  -2.110  0.00  0.00    +0.018 A 
ATOM     10  C   UNL     1      -5.342  -5.678  -0.856  0.00  0.00    +0.084 A 
ATOM     11  N   UNL     1      -4.649  -5.401   0.232  0.00  0.00    -0.350 N 
ATOM     12  C   UNL     1      -3.408  -4.943   0.168  0.00  0.00    +0.102 A 
ATOM     13  H   UNL     1      -5.057  -5.541   1.101  0.00  0.00    +0.167 HD
BRANCH  12  14
ATOM     14  N   UNL     1      -2.712  -4.670   1.340  0.00  0.00    -0.333 N 
ATOM     15  C   UNL     1      -3.350  -4.896   2.639  0.00  0.00    +0.127 C 
ATOM     16  H   UNL     1      -1.805  -4.330   1.297  0.00  0.00    +0.147 HD
ENDBRANCH  12  14
ENDBRANCH   3   7
BRANCH   5  17
ATOM     17  C   UNL     1       1.103  -4.665  -3.869  0.00  0.00    +0.018 C 
ATOM     18  C   UNL     1       0.252  -4.099  -5.007  0.00  0.00    +0.006 C 
ATOM     19  C   UNL     1       0.793  -4.601  -6.347  0.00  0.00    +0.000 C 
ATOM     20  C   UNL     1       0.736  -6.130  -6.380  0.00  0.00    +0.000 C 
ATOM     21  C   UNL     1       1.587  -6.696  -5.242  0.00  0.00    +0.000 C 
ATOM     22  C   UNL     1       1.046  -6.194  -3.901  0.00  0.00    +0.006 C 
ENDBRANCH   5  17
BRANCH   1  26
ATOM     23  C   UNL     1      -0.018   1.503   0.010  0.00  0.00    +0.109 C 
ATOM     24  C   UNL     1       0.002  -0.004   0.002  0.00  0.00    +0.210 C 
ATOM     25  O   UNL     1       0.020  -0.616   1.049  0.00  0.00    -0.276 OA
ATOM     26  N   UNL     1       0.000  -0.672  -1.169  0.00  0.00    -0.313 N 
ATOM     27  H   UNL     1      -0.015  -0.182  -2.006  0.00  0.00    +0.149 HD
ENDBRANCH   1  26
TORSDOF 4
