REMARK  Name = ZINC66481180
REMARK  5 active torsions:
REMARK  status: ('A' for Active; 'I' for Inactive)
REMARK    1  A    between atoms: C_5  and  C_8
REMARK    2  A    between atoms: C_16  and  C_18
REMARK    3  A    between atoms: C_18  and  C_19
REMARK    4  A    between atoms: C_19  and  N_20
REMARK    5  A    between atoms: C_21  and  C_23
REMARK                            x       y       z     vdW  Elec       q    Type
REMARK                         _______ _______ _______ _____ _____    ______ ____
ROOT
ATOM      1  C   UNL     1       0.292   1.677   0.211  0.00  0.00    +0.004 C 
ATOM      2  C   UNL     1       1.792   1.910   0.020  0.00  0.00    +0.019 C 
ATOM      3  C   UNL     1       2.225   1.337  -1.333  0.00  0.00    +0.108 C 
ATOM      4  N   UNL     1       1.820  -0.074  -1.401  0.00  0.00    -0.290 N 
ATOM      5  C   UNL     1       0.415  -0.418  -1.142  0.00  0.00    +0.162 C 
ATOM      6  C   UNL     1       0.002   0.174   0.209  0.00  0.00    +0.032 C 
ATOM      7  C   UNL     1       2.719  -1.033  -1.694  0.00  0.00    +0.218 C 
ATOM      8  O   UNL     1       2.388  -2.200  -1.682  0.00  0.00    -0.276 OA
ENDROOT
BRANCH   5   9
ATOM      9  C   UNL     1       0.261  -1.917  -1.108  0.00  0.00    +0.236 C 
ATOM     10  O   UNL     1       0.768  -2.559  -0.212  0.00  0.00    -0.274 OA
ATOM     11  N   UNL     1      -0.441  -2.545  -2.072  0.00  0.00    -0.296 N 
ATOM     12  C   UNL     1      -0.962  -1.805  -3.233  0.00  0.00    +0.136 C 
ATOM     13  C   UNL     1      -0.546  -2.550  -4.507  0.00  0.00    +0.179 C 
ATOM     14  O   UNL     1      -0.937  -3.920  -4.400  0.00  0.00    -0.377 OA
ATOM     15  C   UNL     1      -0.306  -4.628  -3.330  0.00  0.00    +0.179 C 
ATOM     16  C   UNL     1      -0.705  -3.990  -1.998  0.00  0.00    +0.136 C 
ENDBRANCH   5   9
BRANCH   7  17
ATOM     17  C   UNL     1       4.138  -0.657  -2.038  0.00  0.00    +0.114 C 
BRANCH  17  18
ATOM     18  C   UNL     1       4.946  -1.924  -2.328  0.00  0.00    +0.113 C 
BRANCH  18  19
ATOM     19  N   UNL     1       6.324  -1.558  -2.662  0.00  0.00    -0.315 N 
ATOM     20  C   UNL     1       7.224  -2.517  -2.956  0.00  0.00    +0.216 C 
ATOM     21  O   UNL     1       6.892  -3.684  -2.943  0.00  0.00    -0.276 OA
ATOM     22  H   UNL     1       6.590  -0.625  -2.672  0.00  0.00    +0.149 HD
BRANCH  20  23
ATOM     23  C   UNL     1       8.642  -2.141  -3.299  0.00  0.00    +0.075 C 
ATOM     24  C   UNL     1       8.666  -1.290  -4.586  0.00  0.00    +0.013 C 
ATOM     25  C   UNL     1       9.944  -1.757  -5.326  0.00  0.00    +0.001 C 
ATOM     26  C   UNL     1       9.963  -3.281  -5.048  0.00  0.00    +0.001 C 
ATOM     27  C   UNL     1       9.467  -3.406  -3.593  0.00  0.00    +0.013 C 
ENDBRANCH  20  23
ENDBRANCH  18  19
ENDBRANCH  17  18
ENDBRANCH   7  17
TORSDOF 5
