REMARK  Name = ZINC03995920
REMARK  17 active torsions:
REMARK  status: ('A' for Active; 'I' for Inactive)
REMARK    1  A    between atoms: C_1  and  C_2
REMARK    2  A    between atoms: C_2  and  C_3
REMARK    3  A    between atoms: C_2  and  C_4
REMARK    4  A    between atoms: C_2  and  O_40
REMARK    5  A    between atoms: C_4  and  C_5
REMARK    6  A    between atoms: C_5  and  C_6
REMARK    7  A    between atoms: C_6  and  C_7
REMARK    8  A    between atoms: C_7  and  C_8
REMARK    9  A    between atoms: C_7  and  C_13
REMARK   10  A    between atoms: C_7  and  O_39
REMARK   11  A    between atoms: C_8  and  C_9
REMARK   12  A    between atoms: C_9  and  O_11
REMARK   13  A    between atoms: O_11  and  C_12
REMARK   14  A    between atoms: C_13  and  O_15
REMARK   15  A    between atoms: O_15  and  C_16
REMARK   16  A    between atoms: C_33  and  O_34
REMARK   17  A    between atoms: O_34  and  C_35
REMARK                            x       y       z     vdW  Elec       q    Type
REMARK                         _______ _______ _______ _____ _____    ______ ____
ROOT
ATOM      1  C   UNL     1      -0.282   2.767   3.921  0.00  0.00    +0.247 C 
ATOM      2  C   UNL     1       0.299   1.701   2.960  0.00  0.00    +0.061 C 
ATOM      3  C   UNL     1       0.062   0.327   3.435  0.00  0.00    -0.035 A 
ATOM      4  C   UNL     1       1.086  -0.165   4.272  0.00  0.00    +0.053 A 
ATOM      5  C   UNL     1       0.882  -1.338   4.966  0.00  0.00    +0.167 A 
ATOM      6  C   UNL     1      -0.327  -2.041   4.839  0.00  0.00    +0.167 A 
ATOM      7  C   UNL     1      -1.301  -1.593   3.971  0.00  0.00    +0.053 A 
ATOM      8  C   UNL     1      -1.069  -0.416   3.239  0.00  0.00    -0.042 A 
ATOM      9  C   UNL     1      -2.144  -0.092   2.251  0.00  0.00    +0.017 C 
ATOM     10  C   UNL     1      -1.637   0.509   0.982  0.00  0.00    -0.073 C 
ATOM     11  C   UNL     1      -0.047   2.252   1.624  0.00  0.00    -0.032 C 
ATOM     12  C   UNL     1       0.978   1.904   0.523  0.00  0.00    -0.009 C 
ATOM     13  C   UNL     1       0.248   2.385  -0.757  0.00  0.00    -0.020 C 
ATOM     14  C   UNL     1      -1.245   2.432  -0.373  0.00  0.00    -0.078 C 
ATOM     15  C   UNL     1      -0.014   3.768   1.832  0.00  0.00    +0.007 C 
ATOM     16  C   UNL     1      -0.143   4.047   3.114  0.00  0.00    +0.133 C 
ATOM     17  O   UNL     1      -0.295  -3.118   5.655  0.00  0.00    -0.453 OA
ATOM     18  C   UNL     1       0.794  -2.878   6.570  0.00  0.00    +0.466 C 
ATOM     19  O   UNL     1       1.675  -1.996   5.843  0.00  0.00    -0.453 OA
ATOM     20  N   UNL     1      -1.327   1.964   0.995  0.00  0.00    +0.387 N 
ATOM     21  H   UNL     1      -2.072   2.462   1.495  0.00  0.00    -0.081 HD
ENDROOT
BRANCH  16  22
ATOM     22  O   UNL     1      -0.152   5.299   3.637  0.00  0.00    -0.496 OA
ATOM     23  C   UNL     1      -0.009   6.386   2.721  0.00  0.00    +0.276 C 
ENDBRANCH  16  22
BRANCH   1  24
ATOM     24  O   UNL     1      -1.677   2.491   4.215  0.00  0.00    -0.451 OA
BRANCH  24  25
ATOM     25  C   UNL     1      -2.135   2.881   5.415  0.00  0.00    +0.340 C 
ATOM     26  O   UNL     1      -1.395   3.434   6.194  0.00  0.00    -0.248 OA
BRANCH  25  27
ATOM     27  C   UNL     1      -3.572   2.628   5.792  0.00  0.00    +0.172 C 
BRANCH  27  28
ATOM     28  O   UNL     1      -4.001   1.387   5.228  0.00  0.00    -0.377 OA
ATOM     29  H   UNL     1      -3.489   0.622   5.526  0.00  0.00    +0.211 HD
ENDBRANCH  27  28
BRANCH  27  30
ATOM     30  C   UNL     1      -3.697   2.567   7.315  0.00  0.00    +0.047 C 
BRANCH  30  31
ATOM     31  C   UNL     1      -5.152   2.287   7.696  0.00  0.00    +0.006 C 
BRANCH  31  32
ATOM     32  C   UNL     1      -5.255   2.094   9.211  0.00  0.00    +0.034 C 
BRANCH  32  34
ATOM     33  C   UNL     1      -7.187   0.545   8.884  0.00  0.00    +0.041 C 
ATOM     34  C   UNL     1      -6.710   1.814   9.592  0.00  0.00    +0.061 C 
ATOM     35  C   UNL     1      -6.812   1.622  11.107  0.00  0.00    +0.041 C 
BRANCH  34  36
ATOM     36  O   UNL     1      -7.527   2.917   9.195  0.00  0.00    -0.389 OA
ATOM     37  H   UNL     1      -7.281   3.757   9.607  0.00  0.00    +0.210 HD
ENDBRANCH  34  36
ENDBRANCH  32  34
ENDBRANCH  31  32
ENDBRANCH  30  31
ENDBRANCH  27  30
BRANCH  27  38
ATOM     38  C   UNL     1      -4.447   3.762   5.253  0.00  0.00    +0.166 C 
BRANCH  38  39
ATOM     39  C   UNL     1      -4.398   3.762   3.747  0.00  0.00    +0.310 C 
ATOM     40  O   UNL     1      -3.835   2.868   3.160  0.00  0.00    -0.251 OA
BRANCH  39  41
ATOM     41  O   UNL     1      -4.980   4.755   3.057  0.00  0.00    -0.468 OA
ATOM     42  C   UNL     1      -4.894   4.691   1.609  0.00  0.00    +0.280 C 
ENDBRANCH  39  41
ENDBRANCH  38  39
ENDBRANCH  27  38
ENDBRANCH  25  27
ENDBRANCH  24  25
ENDBRANCH   1  24
TORSDOF 13
