REMARK  Name = ZINC39484878
REMARK  10 active torsions:
REMARK  status: ('A' for Active; 'I' for Inactive)
REMARK    1  A    between atoms: C_1  and  O_2
REMARK    2  A    between atoms: O_2  and  C_3
REMARK    3  A    between atoms: C_8  and  C_9
REMARK    4  A    between atoms: C_9  and  C_11
REMARK    5  A    between atoms: C_9  and  N_30
REMARK    6  A    between atoms: C_11  and  N_12
REMARK    7  A    between atoms: C_13  and  C_15
REMARK    8  A    between atoms: C_15  and  C_16
REMARK    9  A    between atoms: C_16  and  C_17
REMARK   10  A    between atoms: C_22  and  C_24
REMARK                            x       y       z     vdW  Elec       q    Type
REMARK                         _______ _______ _______ _____ _____    ______ ____
ROOT
ATOM      1  N   UNL     1       0.511  -4.144  -2.015  0.00  0.00    -0.317 N 
ATOM      2  C   UNL     1       1.258  -4.616  -3.033  0.00  0.00    +0.213 C 
ATOM      3  O   UNL     1       2.371  -4.174  -3.223  0.00  0.00    -0.276 OA
ATOM      4  H   UNL     1      -0.380  -4.497  -1.863  0.00  0.00    +0.149 HD
ENDROOT
BRANCH   1   5
ATOM      5  C   UNL     1       1.043  -3.097  -1.140  0.00  0.00    +0.093 C 
BRANCH   5   6
ATOM      6  C   UNL     1       0.053  -2.829  -0.004  0.00  0.00    -0.017 C 
BRANCH   6  12
ATOM      7  C   UNL     1       0.856  -4.264   1.889  0.00  0.00    +0.122 A 
ATOM      8  C   UNL     1       0.749  -5.391   2.692  0.00  0.00    +0.046 A 
ATOM      9  C   UNL     1      -0.263  -6.304   2.466  0.00  0.00    +0.004 A 
ATOM     10  C   UNL     1      -1.168  -6.096   1.442  0.00  0.00    +0.000 A 
ATOM     11  C   UNL     1      -1.063  -4.975   0.641  0.00  0.00    +0.005 A 
ATOM     12  C   UNL     1      -0.057  -4.055   0.866  0.00  0.00    -0.018 A 
BRANCH   7  14
ATOM     13  C   UNL     1       2.753  -3.643   3.181  0.00  0.00    +0.277 C 
ATOM     14  O   UNL     1       1.849  -3.363   2.109  0.00  0.00    -0.495 OA
ENDBRANCH   7  14
ENDBRANCH   6  12
BRANCH   6  15
ATOM     15  N   UNL     1      -1.265  -2.510  -0.569  0.00  0.00    +0.385 N 
ATOM     16  C   UNL     1      -2.211  -2.143   0.515  0.00  0.00    -0.078 C 
ATOM     17  C   UNL     1      -3.298  -1.323  -0.225  0.00  0.00    -0.020 C 
ATOM     18  C   UNL     1      -2.479  -0.527  -1.268  0.00  0.00    -0.020 C 
ATOM     19  C   UNL     1      -1.171  -1.320  -1.442  0.00  0.00    -0.078 C 
ATOM     20  H   UNL     1      -1.621  -3.297  -1.091  0.00  0.00    -0.081 HD
ENDBRANCH   6  15
ENDBRANCH   5   6
ENDBRANCH   1   5
BRANCH   2  21
ATOM     21  C   UNL     1       0.710  -5.693  -3.933  0.00  0.00    +0.105 C 
BRANCH  21  22
ATOM     22  C   UNL     1       1.751  -6.046  -4.997  0.00  0.00    +0.107 C 
BRANCH  22  23
ATOM     23  C   UNL     1       1.204  -7.123  -5.898  0.00  0.00    +0.235 C 
ATOM     24  O   UNL     1       0.090  -7.564  -5.708  0.00  0.00    -0.274 OA
ATOM     25  N   UNL     1       1.951  -7.595  -6.916  0.00  0.00    -0.193 N 
ATOM     26  C   UNL     1       1.538  -8.636  -7.870  0.00  0.00    +0.141 C 
ATOM     27  C   UNL     1       2.759  -8.779  -8.800  0.00  0.00    +0.078 C 
ATOM     28  C   UNL     1       3.751  -7.777  -8.255  0.00  0.00    +0.068 C 
ATOM     29  N   UNL     1       3.239  -7.173  -7.239  0.00  0.00    -0.181 NA
BRANCH  28  30
ATOM     30  C   UNL     1       5.097  -7.527  -8.804  0.00  0.00    -0.002 A 
ATOM     31  C   UNL     1       5.543  -8.239  -9.920  0.00  0.00    +0.010 A 
ATOM     32  C   UNL     1       6.802  -7.999 -10.429  0.00  0.00    +0.001 A 
ATOM     33  C   UNL     1       7.624  -7.057  -9.836  0.00  0.00    +0.000 A 
ATOM     34  C   UNL     1       7.189  -6.348  -8.729  0.00  0.00    +0.001 A 
ATOM     35  C   UNL     1       5.929  -6.573  -8.214  0.00  0.00    +0.010 A 
ENDBRANCH  28  30
ENDBRANCH  22  23
ENDBRANCH  21  22
ENDBRANCH   2  21
TORSDOF 9
