REMARK  Name = ZINC40369404
REMARK  8 active torsions:
REMARK  status: ('A' for Active; 'I' for Inactive)
REMARK    1  A    between atoms: C_1  and  C_2
REMARK    2  A    between atoms: C_5  and  O_18
REMARK    3  A    between atoms: C_6  and  C_8
REMARK    4  A    between atoms: N_10  and  C_11
REMARK    5  A    between atoms: N_10  and  C_12
REMARK    6  A    between atoms: C_12  and  C_13
REMARK    7  A    between atoms: C_13  and  C_14
REMARK    8  A    between atoms: N_15  and  O_16
REMARK                            x       y       z     vdW  Elec       q    Type
REMARK                         _______ _______ _______ _____ _____    ______ ____
ROOT
ATOM      1  C   UNL     1       0.013  -2.841   2.463  0.00  0.00    +0.250 C 
ATOM      2  O   UNL     1      -0.051  -4.056   2.458  0.00  0.00    -0.270 OA
ATOM      3  N   UNL     1       0.152  -2.178   3.628  0.00  0.00    -0.300 N 
ATOM      4  C   UNL     1       0.133  -0.714   3.645  0.00  0.00    +0.132 C 
ENDROOT
BRANCH   1  10
ATOM      5  C   UNL     1      -1.946   0.847  -0.262  0.00  0.00    +0.044 C 
ATOM      6  C   UNL     1      -1.001  -0.319  -0.124  0.00  0.00    -0.050 A 
ATOM      7  C   UNL     1      -0.200  -0.688  -1.193  0.00  0.00    +0.007 A 
ATOM      8  C   UNL     1       0.670  -1.754  -1.079  0.00  0.00    +0.046 A 
ATOM      9  C   UNL     1       0.747  -2.464   0.110  0.00  0.00    +0.129 A 
ATOM     10  C   UNL     1      -0.060  -2.094   1.194  0.00  0.00    +0.078 A 
ATOM     11  C   UNL     1      -0.933  -1.010   1.066  0.00  0.00    +0.020 A 
BRANCH   9  12
ATOM     12  O   UNL     1       1.601  -3.512   0.223  0.00  0.00    -0.506 OA
ATOM     13  H   UNL     1       2.482  -3.269   0.541  0.00  0.00    +0.292 HD
ENDBRANCH   9  12
ENDBRANCH   1  10
BRANCH   3  14
ATOM     14  C   UNL     1       0.323  -2.923   4.879  0.00  0.00    +0.115 C 
BRANCH  14  15
ATOM     15  C   UNL     1       1.813  -3.160   5.131  0.00  0.00    +0.093 C 
BRANCH  15  16
ATOM     16  C   UNL     1       1.988  -3.926   6.418  0.00  0.00    +0.133 C 
ATOM     17  N   UNL     1       0.954  -4.271   7.111  0.00  0.00    -0.077 NA
ATOM     18  N   UNL     1       3.252  -4.258   6.854  0.00  0.00    -0.344 N 
ATOM     19  H   UNL     1       4.028  -4.000   6.334  0.00  0.00    +0.144 HD
ATOM     20  H   UNL     1       3.364  -4.751   7.682  0.00  0.00    +0.144 HD
BRANCH  17  21
ATOM     21  O   UNL     1       1.119  -4.990   8.319  0.00  0.00    -0.408 OA
ATOM     22  H   UNL     1       0.288  -5.203   8.767  0.00  0.00    +0.328 HD
ENDBRANCH  17  21
ENDBRANCH  15  16
ENDBRANCH  14  15
ENDBRANCH   3  14
TORSDOF 6
