REMARK  Name = ZINC66821905
REMARK  4 active torsions:
REMARK  status: ('A' for Active; 'I' for Inactive)
REMARK    1  A    between atoms: C_1  and  C_2
REMARK    2  A    between atoms: C_5  and  N_8
REMARK    3  A    between atoms: C_10  and  C_15
REMARK    4  A    between atoms: C_21  and  O_24
REMARK                            x       y       z     vdW  Elec       q    Type
REMARK                         _______ _______ _______ _____ _____    ______ ____
ROOT
ATOM      1  N   UNL     1      -1.358  -2.098   2.449  0.00  0.00    -0.298 N 
ATOM      2  C   UNL     1      -2.015  -2.975   3.426  0.00  0.00    +0.121 C 
ATOM      3  C   UNL     1      -2.199  -2.114   4.695  0.00  0.00    +0.101 C 
ATOM      4  C   UNL     1      -2.227  -0.684   4.105  0.00  0.00    +0.110 C 
ATOM      5  C   UNL     1      -1.462  -0.806   2.806  0.00  0.00    +0.217 C 
ATOM      6  O   UNL     1      -1.009   0.127   2.176  0.00  0.00    -0.276 OA
ENDROOT
BRANCH   3   7
ATOM      7  C   UNL     1      -1.035  -2.286   5.637  0.00  0.00    +0.221 C 
ATOM      8  O   UNL     1      -0.122  -3.029   5.343  0.00  0.00    -0.275 OA
ATOM      9  N   UNL     1      -1.008  -1.615   6.805  0.00  0.00    -0.299 N 
ATOM     10  C   UNL     1      -2.110  -0.717   7.178  0.00  0.00    +0.108 C 
ATOM     11  C   UNL     1      -1.529   0.659   7.519  0.00  0.00    +0.021 C 
ATOM     12  C   UNL     1      -0.454   0.502   8.597  0.00  0.00    +0.034 C 
ATOM     13  C   UNL     1       0.677  -0.381   8.066  0.00  0.00    +0.132 C 
ATOM     14  C   UNL     1       0.119  -1.773   7.734  0.00  0.00    +0.139 C 
BRANCH  13  15
ATOM     15  O   UNL     1       1.695  -0.502   9.062  0.00  0.00    -0.390 OA
ATOM     16  H   UNL     1       2.091   0.341   9.324  0.00  0.00    +0.210 HD
ENDBRANCH  13  15
ENDBRANCH   3   7
BRANCH   1  21
ATOM     17  C   UNL     1      -4.424  -2.512  -0.913  0.00  0.00    +0.007 C 
ATOM     18  C   UNL     1      -2.935  -2.696  -0.614  0.00  0.00    -0.014 C 
ATOM     19  C   UNL     1      -2.763  -3.724   0.507  0.00  0.00    +0.005 C 
ATOM     20  C   UNL     1      -1.274  -3.907   0.806  0.00  0.00    +0.023 C 
ATOM     21  C   UNL     1      -0.673  -2.570   1.244  0.00  0.00    +0.076 C 
ATOM     22  C   UNL     1      -0.844  -1.543   0.124  0.00  0.00    +0.023 C 
ATOM     23  C   UNL     1      -2.333  -1.359  -0.176  0.00  0.00    +0.005 C 
ENDBRANCH   1  21
TORSDOF 3
