REMARK  Name = ZINC24109356
REMARK  7 active torsions:
REMARK  status: ('A' for Active; 'I' for Inactive)
REMARK    1  A    between atoms: C_8  and  C_10
REMARK    2  A    between atoms: C_10  and  C_11
REMARK    3  A    between atoms: C_10  and  C_22
REMARK    4  A    between atoms: C_10  and  O_26
REMARK    5  A    between atoms: C_11  and  C_12
REMARK    6  A    between atoms: N_14  and  C_15
REMARK    7  A    between atoms: C_20  and  O_21
REMARK                            x       y       z     vdW  Elec       q    Type
REMARK                         _______ _______ _______ _____ _____    ______ ____
ROOT
ATOM      1  C   UNL     1       6.115   2.243   0.074  0.00  0.00    +0.217 C 
ENDROOT
BRANCH   1   9
ATOM      2  C   UNL     1      12.118   0.814  -0.002  0.00  0.00    +0.002 A 
ATOM      3  C   UNL     1      11.865  -0.551  -0.002  0.00  0.00    +0.001 A 
ATOM      4  C   UNL     1      10.557  -0.998   0.014  0.00  0.00    +0.017 A 
ATOM      5  C   UNL     1       9.532  -0.084   0.028  0.00  0.00    +0.039 A 
ATOM      6  C   UNL     1       9.761   1.311   0.028  0.00  0.00    +0.079 A 
ATOM      7  C   UNL     1      11.110   1.727   0.012  0.00  0.00    +0.029 A 
ATOM      8  N   UNL     1       8.639   2.061   0.043  0.00  0.00    -0.241 NA
ATOM      9  C   UNL     1       7.446   1.537   0.057  0.00  0.00    +0.120 A 
ATOM     10  S   UNL     1       7.760  -0.171   0.058  0.00  0.00    -0.069 S 
ENDBRANCH   1   9
BRANCH   1  11
ATOM     11  C   UNL     1       6.017   3.117   1.327  0.00  0.00    +0.425 C 
ATOM     12  F   UNL     1       6.244   2.332   2.462  0.00  0.00    -0.167 F 
ATOM     13  F   UNL     1       6.978   4.132   1.262  0.00  0.00    -0.167 F 
ATOM     14  F   UNL     1       4.741   3.686   1.400  0.00  0.00    -0.167 F 
ENDBRANCH   1  11
BRANCH   1  15
ATOM     15  O   UNL     1       5.995   3.063  -1.089  0.00  0.00    -0.374 OA
ATOM     16  H   UNL     1       5.085   3.659  -1.251  0.00  0.00    +0.211 HD
ENDBRANCH   1  15
BRANCH   1  17
ATOM     17  C   UNL     1       4.988   1.207   0.086  0.00  0.00    +0.147 C 
BRANCH  17  18
ATOM     18  C   UNL     1       5.045   0.389  -1.178  0.00  0.00    +0.221 C 
ATOM     19  O   UNL     1       5.947   0.559  -1.970  0.00  0.00    -0.275 OA
ATOM     20  N   UNL     1       4.092  -0.530  -1.428  0.00  0.00    -0.282 N 
ATOM     21  H   UNL     1       3.232  -0.630  -0.750  0.00  0.00    +0.155 HD
BRANCH  20  22
ATOM     22  C   UNL     1       4.197  -1.360  -2.553  0.00  0.00    +0.075 A 
ATOM     23  C   UNL     1       4.765  -0.878  -3.723  0.00  0.00    +0.027 A 
ATOM     24  C   UNL     1       4.869  -1.698  -4.830  0.00  0.00    +0.002 A 
ATOM     25  C   UNL     1       4.407  -3.000  -4.775  0.00  0.00    +0.004 A 
ATOM     26  C   UNL     1       3.845  -3.490  -3.611  0.00  0.00    +0.047 A 
ATOM     27  C   UNL     1       3.733  -2.672  -2.498  0.00  0.00    +0.138 A 
BRANCH  27  28
ATOM     28  O   UNL     1       3.175  -3.151  -1.354  0.00  0.00    -0.505 OA
ATOM     29  H   UNL     1       2.809  -4.188  -1.313  0.00  0.00    +0.292 HD
ENDBRANCH  27  28
ENDBRANCH  20  22
ENDBRANCH  17  18
ENDBRANCH   1  17
TORSDOF 7
