REMARK  Name = ZINC66149408
REMARK  8 active torsions:
REMARK  status: ('A' for Active; 'I' for Inactive)
REMARK    1  A    between atoms: C_1  and  N_2
REMARK    2  A    between atoms: N_2  and  C_3
REMARK    3  A    between atoms: N_2  and  C_4
REMARK    4  A    between atoms: C_4  and  C_6
REMARK    5  A    between atoms: C_4  and  C_23
REMARK    6  A    between atoms: C_6  and  N_7
REMARK    7  A    between atoms: C_13  and  N_16
REMARK    8  A    between atoms: C_17  and  C_19
REMARK                            x       y       z     vdW  Elec       q    Type
REMARK                         _______ _______ _______ _____ _____    ______ ____
ROOT
ATOM      1  N   UNL     1      -0.448  -2.365   1.369  0.00  0.00    -0.301 N 
ATOM      2  C   UNL     1      -0.168  -3.649   1.667  0.00  0.00    +0.302 C 
ATOM      3  O   UNL     1      -0.579  -4.543   0.952  0.00  0.00    -0.253 OA
ATOM      4  N   UNL     1       0.567  -3.943   2.759  0.00  0.00    -0.286 N 
ATOM      5  C   UNL     1       0.974  -2.885   3.694  0.00  0.00    +0.111 C 
ATOM      6  C   UNL     1       0.536  -3.282   5.107  0.00  0.00    +0.041 C 
ATOM      7  C   UNL     1       1.096  -4.666   5.441  0.00  0.00    +0.076 C 
ATOM      8  C   UNL     1       0.538  -5.696   4.456  0.00  0.00    +0.041 C 
ATOM      9  C   UNL     1       0.971  -5.327   3.038  0.00  0.00    +0.111 C 
ATOM     10  H   UNL     1      -0.061  -1.649   1.897  0.00  0.00    +0.150 HD
ENDROOT
BRANCH   7  11
ATOM     11  N   UNL     1       0.707  -5.035   6.805  0.00  0.00    -0.312 N 
ATOM     12  C   UNL     1       1.450  -5.916   7.503  0.00  0.00    +0.216 C 
ATOM     13  O   UNL     1       2.441  -6.405   7.002  0.00  0.00    -0.276 OA
ATOM     14  H   UNL     1      -0.085  -4.644   7.205  0.00  0.00    +0.149 HD
BRANCH  12  15
ATOM     15  C   UNL     1       1.049  -6.295   8.905  0.00  0.00    +0.075 C 
ATOM     16  C   UNL     1       1.513  -5.288   9.971  0.00  0.00    +0.013 C 
ATOM     17  C   UNL     1       1.838  -6.500  10.861  0.00  0.00    +0.001 C 
ATOM     18  C   UNL     1       1.999  -7.310   9.564  0.00  0.00    +0.013 C 
ENDBRANCH  12  15
ENDBRANCH   7  11
BRANCH   1  19
ATOM     19  C   UNL     1      -1.337  -2.050   0.248  0.00  0.00    +0.091 C 
BRANCH  19  20
ATOM     20  C   UNL     1      -1.346  -0.538   0.013  0.00  0.00    -0.049 C 
BRANCH  20  21
ATOM     21  C   UNL     1      -2.453  -0.184  -0.982  0.00  0.00    -0.023 C 
ATOM     22  C   UNL     1      -2.386   1.310  -1.308  0.00  0.00    +0.002 C 
ATOM     23  C   UNL     1      -3.493   1.665  -2.303  0.00  0.00    +0.000 C 
ATOM     24  C   UNL     1      -4.855   1.337  -1.688  0.00  0.00    +0.000 C 
ATOM     25  C   UNL     1      -4.922  -0.156  -1.362  0.00  0.00    +0.000 C 
ATOM     26  C   UNL     1      -3.815  -0.511  -0.367  0.00  0.00    +0.002 C 
ENDBRANCH  20  21
BRANCH  20  28
ATOM     27  C   UNL     1       1.017  -0.472   0.420  0.00  0.00    -0.096 C 
ATOM     28  N   UNL     1      -0.047  -0.120  -0.530  0.00  0.00    +0.379 N 
ATOM     29  C   UNL     1       0.193  -0.802  -1.808  0.00  0.00    -0.096 C 
ATOM     30  H   UNL     1      -0.050   0.879  -0.677  0.00  0.00    -0.082 HD
ENDBRANCH  20  28
ENDBRANCH  19  20
ENDBRANCH   1  19
TORSDOF 6
