REMARK  Name = ZINC36266076
REMARK  4 active torsions:
REMARK  status: ('A' for Active; 'I' for Inactive)
REMARK    1  A    between atoms: C_3  and  S_9
REMARK    2  A    between atoms: C_6  and  C_7
REMARK    3  A    between atoms: S_9  and  N_12
REMARK    4  A    between atoms: N_12  and  C_13
REMARK                            x       y       z     vdW  Elec       q    Type
REMARK                         _______ _______ _______ _____ _____    ______ ____
ROOT
ATOM      1  N   UNL     1       4.324   2.568   1.557  0.00  0.00    -0.187 NA
ATOM      2  H   UNL     1       4.350   3.467   1.920  0.00  0.00    +0.148 HD
ENDROOT
BRANCH   1   3
ATOM      3  C   UNL     1       4.670   1.425   2.405  0.00  0.00    +0.074 C 
ATOM      4  C   UNL     1       3.437   0.986   3.200  0.00  0.00    +0.001 C 
ATOM      5  C   UNL     1       3.809  -0.183   4.114  0.00  0.00    -0.080 C 
ATOM      6  N   UNL     1       4.836   0.247   5.072  0.00  0.00    +0.383 N 
ATOM      7  C   UNL     1       6.037   0.674   4.349  0.00  0.00    -0.067 C 
ATOM      8  C   UNL     1       5.778   1.830   3.384  0.00  0.00    +0.008 C 
ATOM      9  C   UNL     1       6.814  -0.487   3.713  0.00  0.00    -0.012 C 
ATOM     10  C   UNL     1       8.097   0.238   4.154  0.00  0.00    -0.003 C 
ATOM     11  C   UNL     1       7.253   0.898   5.257  0.00  0.00    -0.012 C 
ATOM     12  H   UNL     1       4.483   1.017   5.620  0.00  0.00    -0.085 HD
ATOM     13  H   UNL     1       5.068  -0.522   5.683  0.00  0.00    -0.085 HD
ENDBRANCH   1   3
BRANCH   1  14
ATOM     14  S   UNL     1       3.889   2.325  -0.023  0.00  0.00    +0.059 S 
ATOM     15  O   UNL     1       4.872   1.468  -0.587  0.00  0.00    -0.153 OA
ATOM     16  O   UNL     1       3.592   3.605  -0.564  0.00  0.00    -0.153 OA
BRANCH  14  19
ATOM     17  C   UNL     1      -0.017   1.392   0.010  0.00  0.00    +0.021 A 
ATOM     18  C   UNL     1       1.170   2.095   0.002  0.00  0.00    +0.030 A 
ATOM     19  C   UNL     1       2.378   1.419  -0.013  0.00  0.00    +0.105 A 
ATOM     20  C   UNL     1       2.404   0.036  -0.021  0.00  0.00    +0.030 A 
ATOM     21  C   UNL     1       1.224  -0.679  -0.014  0.00  0.00    +0.021 A 
ATOM     22  C   UNL     1       0.002  -0.004   0.002  0.00  0.00    +0.052 A 
BRANCH  22  23
ATOM     23  C   UNL     1      -1.226  -0.740   0.010  0.00  0.00    +0.099 C 
ATOM     24  N   UNL     1      -2.201  -1.324   0.017  0.00  0.00    -0.191 NA
ENDBRANCH  22  23
ENDBRANCH  14  19
ENDBRANCH   1  14
TORSDOF 4
