REMARK  Name = ZINC57753653
REMARK  5 active torsions:
REMARK  status: ('A' for Active; 'I' for Inactive)
REMARK    1  A    between atoms: C_6  and  C_7
REMARK    2  A    between atoms: C_7  and  C_8
REMARK    3  A    between atoms: C_8  and  C_10
REMARK    4  A    between atoms: C_8  and  C_12
REMARK    5  A    between atoms: C_10  and  N_11
REMARK                            x       y       z     vdW  Elec       q    Type
REMARK                         _______ _______ _______ _____ _____    ______ ____
ROOT
ATOM      1  C   UNL     1      -1.744  -1.027  -1.431  0.00  0.00    +0.006 C 
ENDROOT
BRANCH   1   2
ATOM      2  C   UNL     1      -3.098  -1.688  -1.426  0.00  0.00    -0.042 A 
ATOM      3  C   UNL     1      -3.268  -2.908  -0.798  0.00  0.00    +0.007 A 
ATOM      4  C   UNL     1      -4.508  -3.517  -0.789  0.00  0.00    +0.050 A 
ATOM      5  C   UNL     1      -5.585  -2.907  -1.411  0.00  0.00    +0.166 A 
ATOM      6  C   UNL     1      -5.415  -1.678  -2.043  0.00  0.00    +0.166 A 
ATOM      7  C   UNL     1      -4.170  -1.070  -2.043  0.00  0.00    +0.053 A 
ATOM      8  O   UNL     1      -6.611  -1.290  -2.574  0.00  0.00    -0.453 OA
ATOM      9  C   UNL     1      -7.418  -2.482  -2.614  0.00  0.00    +0.466 C 
ATOM     10  O   UNL     1      -6.889  -3.289  -1.545  0.00  0.00    -0.453 OA
ENDBRANCH   1   2
BRANCH   1  11
ATOM     11  C   UNL     1      -1.293  -0.774   0.009  0.00  0.00    +0.041 C 
BRANCH  11  17
ATOM     12  C   UNL     1      -0.017   1.378   0.010  0.00  0.00    +0.007 A 
ATOM     13  C   UNL     1       1.170   2.088   0.002  0.00  0.00    +0.050 A 
ATOM     14  C   UNL     1       2.382   1.415  -0.013  0.00  0.00    +0.162 A 
ATOM     15  C   UNL     1       2.401   0.025  -0.018  0.00  0.00    +0.162 A 
ATOM     16  C   UNL     1       1.207  -0.681  -0.011  0.00  0.00    +0.053 A 
ATOM     17  C   UNL     1       0.002  -0.004   0.002  0.00  0.00    -0.043 A 
ATOM     18  O   UNL     1       3.579  -0.656  -0.024  0.00  0.00    -0.485 OA
ATOM     19  C   UNL     1       4.746   0.081  -0.406  0.00  0.00    +0.270 C 
ATOM     20  C   UNL     1       4.733   1.422   0.340  0.00  0.00    +0.270 C 
ATOM     21  O   UNL     1       3.542   2.127  -0.024  0.00  0.00    -0.485 OA
ENDBRANCH  11  17
ENDBRANCH   1  11
BRANCH   1  22
ATOM     22  C   UNL     1      -0.734  -1.940  -2.129  0.00  0.00    -0.078 C 
BRANCH  22  23
ATOM     23  N   UNL     1      -1.101  -2.086  -3.544  0.00  0.00    +0.379 N 
ATOM     24  H   UNL     1      -2.023  -2.490  -3.612  0.00  0.00    -0.090 HD
ATOM     25  H   UNL     1      -1.097  -1.180  -3.987  0.00  0.00    -0.090 HD
ATOM     26  H   UNL     1      -0.435  -2.689  -4.004  0.00  0.00    -0.090 HD
ENDBRANCH  22  23
ENDBRANCH   1  22
TORSDOF 5
