REMARK  Name = ZINC20629633
REMARK  6 active torsions:
REMARK  status: ('A' for Active; 'I' for Inactive)
REMARK    1  A    between atoms: C_1  and  C_2
REMARK    2  A    between atoms: C_5  and  N_12
REMARK    3  A    between atoms: C_7  and  S_8
REMARK    4  A    between atoms: S_8  and  N_11
REMARK    5  A    between atoms: N_12  and  S_13
REMARK    6  A    between atoms: S_13  and  C_16
REMARK                            x       y       z     vdW  Elec       q    Type
REMARK                         _______ _______ _______ _____ _____    ______ ____
ROOT
ATOM      1  C   UNL     1       3.928  -0.265   0.105  0.00  0.00    +0.046 C 
ATOM      2  C   UNL     1       2.555   0.357   0.083  0.00  0.00    -0.024 A 
ATOM      3  C   UNL     1       2.420   1.732   0.120  0.00  0.00    +0.007 A 
ATOM      4  C   UNL     1       1.163   2.305   0.100  0.00  0.00    +0.027 A 
ATOM      5  C   UNL     1       0.034   1.497   0.043  0.00  0.00    +0.076 A 
ATOM      6  C   UNL     1       0.174   0.116   0.006  0.00  0.00    +0.055 A 
ATOM      7  C   UNL     1       1.433  -0.450   0.026  0.00  0.00    +0.110 A 
ENDROOT
BRANCH   7   8
ATOM      8  S   UNL     1       1.611  -2.203  -0.019  0.00  0.00    +0.056 S 
ATOM      9  O   UNL     1       2.514  -2.547   1.023  0.00  0.00    -0.153 OA
ATOM     10  O   UNL     1       0.299  -2.742  -0.101  0.00  0.00    -0.153 OA
BRANCH   8  11
ATOM     11  N   UNL     1       2.368  -2.581  -1.444  0.00  0.00    -0.204 NA
ATOM     12  H   UNL     1       2.498  -3.671  -1.511  0.00  0.00    +0.144 HD
ATOM     13  H   UNL     1       3.352  -2.091  -1.477  0.00  0.00    +0.144 HD
ENDBRANCH   8  11
ENDBRANCH   7   8
BRANCH   5  14
ATOM     14  N   UNL     1      -1.238   2.073   0.017  0.00  0.00    -0.097 NA
BRANCH  14  15
ATOM     15  S   UNL     1      -2.191   2.038   1.371  0.00  0.00    +0.098 S 
ATOM     16  O   UNL     1      -3.385   2.735   1.045  0.00  0.00    -0.148 OA
ATOM     17  O   UNL     1      -2.194   0.694   1.831  0.00  0.00    -0.148 OA
BRANCH  15  18
ATOM     18  C   UNL     1      -1.373   2.991   2.608  0.00  0.00    +0.149 A 
ATOM     19  C   UNL     1      -1.545   4.295   2.932  0.00  0.00    +0.038 A 
ATOM     20  C   UNL     1      -0.784   4.839   3.950  0.00  0.00    +0.025 A 
ATOM     21  C   UNL     1       0.111   4.050   4.595  0.00  0.00    +0.057 A 
ATOM     22  S   UNL     1      -0.111   2.485   3.764  0.00  0.00    -0.061 S 
ATOM     23 BR   UNL     1       1.284   4.491   6.011  0.00  0.00    -0.043 Br
ENDBRANCH  15  18
ENDBRANCH  14  15
ENDBRANCH   5  14
TORSDOF 5
