REMARK  Name = ZINC09414007
REMARK  7 active torsions:
REMARK  status: ('A' for Active; 'I' for Inactive)
REMARK    1  A    between atoms: C_1  and  C_2
REMARK    2  A    between atoms: C_2  and  C_3
REMARK    3  A    between atoms: C_3  and  C_4
REMARK    4  A    between atoms: C_5  and  O_18
REMARK    5  A    between atoms: N_9  and  C_12
REMARK    6  A    between atoms: N_19  and  C_20
REMARK    7  A    between atoms: C_26  and  N_56
REMARK                            x       y       z     vdW  Elec       q    Type
REMARK                         _______ _______ _______ _____ _____    ______ ____
ROOT
ATOM      1  C   UNL     1       1.550   1.494   4.418  0.00  0.00    +0.202 C 
ATOM      2  C   UNL     1       1.321   0.054   4.595  0.00  0.00    +0.198 C 
ATOM      3  N   UNL     1       0.971  -0.664   3.541  0.00  0.00    -0.131 NA
ATOM      4  C   UNL     1       0.817  -0.121   2.336  0.00  0.00    +0.335 C 
ATOM      5  O   UNL     1       0.488  -0.847   1.415  0.00  0.00    -0.250 OA
ATOM      6  N   UNL     1       1.010   1.181   2.080  0.00  0.00    -0.220 N 
ATOM      7  C   UNL     1       1.369   2.038   3.059  0.00  0.00    +0.241 C 
ATOM      8  O   UNL     1       1.539   3.221   2.828  0.00  0.00    -0.274 OA
ENDROOT
BRANCH   6   9
ATOM      9  C   UNL     1       0.821   1.683   0.717  0.00  0.00    +0.086 C 
ATOM     10  C   UNL     1       1.790   0.971  -0.228  0.00  0.00    +0.023 C 
ATOM     11  C   UNL     1       1.593   1.495  -1.652  0.00  0.00    +0.002 C 
ATOM     12  C   UNL     1       0.155   1.226  -2.099  0.00  0.00    +0.000 C 
ATOM     13  C   UNL     1      -0.815   1.938  -1.155  0.00  0.00    +0.002 C 
ATOM     14  C   UNL     1      -0.618   1.414   0.269  0.00  0.00    +0.023 C 
ENDBRANCH   6   9
BRANCH   1  15
ATOM     15  C   UNL     1       1.918   2.306   5.480  0.00  0.00    +0.034 C 
ATOM     16  N   UNL     1       2.213   1.759   6.674  0.00  0.00    -0.290 NA
BRANCH  16  17
ATOM     17  C   UNL     1       2.581   2.618   7.802  0.00  0.00    +0.091 C 
ATOM     18  C   UNL     1       1.316   3.062   8.539  0.00  0.00    +0.025 C 
ATOM     19  C   UNL     1       1.700   3.960   9.717  0.00  0.00    +0.002 C 
ATOM     20  C   UNL     1       2.603   3.182  10.677  0.00  0.00    -0.001 C 
ATOM     21  C   UNL     1       3.868   2.737   9.940  0.00  0.00    -0.014 C 
ATOM     22  C   UNL     1       3.483   1.840   8.762  0.00  0.00    -0.050 C 
BRANCH  22  25
ATOM     23  H   UNL     1       5.311   0.897   8.668  0.00  0.00    -0.090 HD
ATOM     24  H   UNL     1       4.468   0.873   7.234  0.00  0.00    -0.090 HD
ATOM     25  N   UNL     1       4.708   1.436   8.049  0.00  0.00    +0.381 N 
ATOM     26  H   UNL     1       5.210   2.276   7.739  0.00  0.00    -0.090 HD
ENDBRANCH  22  25
ENDBRANCH  16  17
BRANCH  15  28
ATOM     27  C   UNL     1       3.349   4.179   4.709  0.00  0.00    +0.010 C 
ATOM     28  C   UNL     1       1.988   3.800   5.298  0.00  0.00    +0.048 C 
ENDBRANCH  15  28
ENDBRANCH   1  15
BRANCH   2  29
ATOM     29  O   UNL     1       1.465  -0.523   5.807  0.00  0.00    -0.496 OA
ATOM     30  H   UNL     1       1.291  -1.474   5.812  0.00  0.00    +0.293 HD
ENDBRANCH   2  29
TORSDOF 6
