REMARK  Name = ZINC00086623
REMARK  5 active torsions:
REMARK  status: ('A' for Active; 'I' for Inactive)
REMARK    1  A    between atoms: C_1  and  C_2
REMARK    2  A    between atoms: N_7  and  C_8
REMARK    3  A    between atoms: C_8  and  C_10
REMARK    4  A    between atoms: C_8  and  C_16
REMARK    5  A    between atoms: C_25  and  O_26
REMARK                            x       y       z     vdW  Elec       q    Type
REMARK                         _______ _______ _______ _____ _____    ______ ____
ROOT
ATOM      1  C   UNL     1      -0.465   2.912   5.830  0.00  0.00    +0.136 C 
ENDROOT
BRANCH   1   8
ATOM      2  C   UNL     1       0.172   1.442  -0.075  0.00  0.00    +0.063 C 
ATOM      3  C   UNL     1      -0.567   1.881   1.163  0.00  0.00    +0.014 A 
ATOM      4  C   UNL     1      -1.917   2.160   1.087  0.00  0.00    +0.021 A 
ATOM      5  C   UNL     1      -2.594   2.560   2.232  0.00  0.00    +0.005 A 
ATOM      6  C   UNL     1      -1.883   2.673   3.413  0.00  0.00    +0.041 A 
ATOM      7  C   UNL     1      -0.524   2.380   3.416  0.00  0.00    +0.097 A 
ATOM      8  N   UNL     1       0.202   2.489   4.596  0.00  0.00    -0.320 N 
ATOM      9  H   UNL     1       1.151   2.285   4.603  0.00  0.00    +0.148 HD
ATOM     10  N   UNL     1       0.162   1.981   2.306  0.00  0.00    -0.347 N 
ATOM     11  H   UNL     1       1.167   1.770   2.332  0.00  0.00    +0.167 HD
ENDBRANCH   1   8
BRANCH   1  12
ATOM     12  C   UNL     1       0.304   2.396   7.019  0.00  0.00    +0.021 A 
ATOM     13  C   UNL     1       1.673   2.170   6.904  0.00  0.00    +0.010 A 
ATOM     14  C   UNL     1       2.397   1.705   7.960  0.00  0.00    +0.010 A 
ATOM     15  C   UNL     1       1.757   1.448   9.184  0.00  0.00    +0.004 A 
ATOM     16  C   UNL     1       2.472   0.967  10.297  0.00  0.00    +0.011 A 
ATOM     17  C   UNL     1       1.784   0.740  11.455  0.00  0.00    +0.020 A 
ATOM     18  C   UNL     1       0.414   0.985  11.509  0.00  0.00    +0.111 A 
ATOM     19  N   UNL     1      -0.248   1.433  10.470  0.00  0.00    -0.251 NA
ATOM     20  C   UNL     1       0.365   1.675   9.308  0.00  0.00    +0.113 A 
ATOM     21  C   UNL     1      -0.351   2.163   8.194  0.00  0.00    +0.148 A 
BRANCH  21  22
ATOM     22  O   UNL     1      -1.686   2.393   8.289  0.00  0.00    -0.504 OA
ATOM     23  H   UNL     1      -2.235   1.630   8.061  0.00  0.00    +0.292 HD
ENDBRANCH  21  22
ENDBRANCH   1  12
BRANCH   1  24
ATOM     24  C   UNL     1      -0.519   4.417   5.881  0.00  0.00    -0.020 A 
ATOM     25  C   UNL     1       0.562   5.181   5.468  0.00  0.00    +0.025 A 
ATOM     26  C   UNL     1       0.474   6.559   5.526  0.00  0.00    +0.111 A 
ATOM     27  N   UNL     1      -0.617   7.147   5.976  0.00  0.00    -0.263 NA
ATOM     28  C   UNL     1      -1.662   6.452   6.382  0.00  0.00    +0.111 A 
ATOM     29  C   UNL     1      -1.649   5.071   6.349  0.00  0.00    +0.025 A 
ENDBRANCH   1  24
TORSDOF 4
