REMARK  Name = ZINC41381684
REMARK  10 active torsions:
REMARK  status: ('A' for Active; 'I' for Inactive)
REMARK    1  A    between atoms: C_1  and  C_2
REMARK    2  A    between atoms: C_5  and  C_26
REMARK    3  A    between atoms: C_6  and  S_8
REMARK    4  A    between atoms: S_8  and  C_9
REMARK    5  A    between atoms: C_12  and  N_15
REMARK    6  A    between atoms: C_16  and  C_18
REMARK    7  A    between atoms: N_20  and  CA_21
REMARK    8  A    between atoms: CA_21  and  CB_23
REMARK    9  A    between atoms: CA_21  and  C_24
REMARK   10  A    between atoms: C_24  and  O_25
REMARK                            x       y       z     vdW  Elec       q    Type
REMARK                         _______ _______ _______ _____ _____    ______ ____
ROOT
ATOM      1  C   UNK A   0       0.064  -1.821   4.030  0.00  0.00    +0.013 A 
ATOM      2  C   UNK A   0      -0.038  -0.458   3.779  0.00  0.00    +0.017 A 
ATOM      3  C   UNK A   0      -0.054   0.438   4.828  0.00  0.00    +0.024 A 
ATOM      4  C   UNK A   0       0.033  -0.022   6.136  0.00  0.00    +0.034 A 
ATOM      5  C   UNK A   0       0.136  -1.385   6.388  0.00  0.00    +0.024 A 
ATOM      6  C   UNK A   0       0.146  -2.282   5.339  0.00  0.00    +0.017 A 
ENDROOT
BRANCH   4   7
ATOM      7  N   UNK A   0       0.018   0.886   7.200  0.00  0.00    -0.278 N 
ATOM      8  C   UNK A   0      -0.734   2.002   7.122  0.00  0.00    +0.303 C 
ATOM      9  O   UNK A   0      -1.332   2.261   6.098  0.00  0.00    -0.265 OA
ATOM     10  H   UNK A   0       0.548   0.712   7.993  0.00  0.00    +0.155 HD
BRANCH   8  11
ATOM     11  C   UNK A   0      -0.832   2.919   8.296  0.00  0.00    +0.300 C 
ATOM     12  O   UNK A   0      -0.235   2.660   9.320  0.00  0.00    -0.265 OA
ATOM     13  N   ALA A   1      -1.584   4.035   8.218  0.00  0.00    -0.303 N 
ATOM     14  H   ALA A   1      -2.061   4.242   7.400  0.00  0.00    +0.150 HD
BRANCH  13  15
ATOM     15  CA  ALA A   1      -1.680   4.935   9.370  0.00  0.00    +0.096 C 
ATOM     16  CB  ALA A   1      -2.776   4.439  10.315  0.00  0.00    +0.030 C 
BRANCH  15  17
ATOM     17  C   ALA A   1      -2.023   6.346   8.888  0.00  0.00    +0.177 C 
BRANCH  17  18
ATOM     18  O   ALA A   1      -3.325   6.345   8.299  0.00  0.00    -0.393 OA
ATOM     19  H   ALA A   1      -3.609   7.209   7.970  0.00  0.00    +0.209 HD
ENDBRANCH  17  18
ENDBRANCH  15  17
ENDBRANCH  13  15
ENDBRANCH   8  11
ENDBRANCH   4   7
BRANCH   1  20
ATOM     20  S   UNK A   0       0.083  -2.965   2.690  0.00  0.00    -0.089 S 
BRANCH  20  26
ATOM     21  C   UNK A   0       5.133  -1.955   3.617  0.00  0.00    +0.044 C 
ATOM     22  C   UNK A   0       4.095  -2.742   2.859  0.00  0.00    -0.049 A 
ATOM     23  C   UNK A   0       4.489  -3.688   1.929  0.00  0.00    +0.004 A 
ATOM     24  C   UNK A   0       3.540  -4.413   1.231  0.00  0.00    +0.005 A 
ATOM     25  C   UNK A   0       2.196  -4.195   1.461  0.00  0.00    -0.037 A 
ATOM     26  C   UNK A   0       1.797  -3.246   2.394  0.00  0.00    +0.016 A 
ATOM     27  C   UNK A   0       2.753  -2.523   3.098  0.00  0.00    +0.018 A 
ATOM     28  C   UNK A   0       1.163  -4.986   0.700  0.00  0.00    +0.045 C 
ENDBRANCH  20  26
ENDBRANCH   1  20
TORSDOF 7
