REMARK  Name = ZINC19594444
REMARK  8 active torsions:
REMARK  status: ('A' for Active; 'I' for Inactive)
REMARK    1  A    between atoms: C_1  and  N_2
REMARK    2  A    between atoms: N_2  and  C_3
REMARK    3  A    between atoms: N_2  and  C_4
REMARK    4  A    between atoms: C_13  and  S_14
REMARK    5  A    between atoms: S_14  and  N_17
REMARK    6  A    between atoms: N_17  and  C_18
REMARK    7  A    between atoms: C_21  and  S_25
REMARK    8  A    between atoms: S_25  and  N_28
REMARK                            x       y       z     vdW  Elec       q    Type
REMARK                         _______ _______ _______ _____ _____    ______ ____
ROOT
ATOM      1  S   UNL     1       0.106  -1.565   6.939  0.00  0.00    +0.092 S 
ATOM      2  O   UNL     1      -0.628  -2.319   7.893  0.00  0.00    -0.148 OA
ATOM      3  O   UNL     1       1.266  -2.074   6.295  0.00  0.00    -0.148 OA
ENDROOT
BRANCH   1  13
ATOM      4  C   UNL     1      -1.108   0.810   2.486  0.00  0.00    +0.037 A 
ATOM      5  C   UNL     1       0.201   1.241   2.435  0.00  0.00    +0.024 A 
ATOM      6  C   UNL     1       1.101   0.903   3.441  0.00  0.00    +0.002 A 
ATOM      7  C   UNL     1       0.719   0.133   4.497  0.00  0.00    +0.010 A 
ATOM      8  C   UNL     1      -0.605  -0.331   4.584  0.00  0.00    +0.011 A 
ATOM      9  C   UNL     1      -1.532   0.010   3.568  0.00  0.00    +0.005 A 
ATOM     10  C   UNL     1      -2.853  -0.455   3.657  0.00  0.00    +0.010 A 
ATOM     11  C   UNL     1      -3.227  -1.226   4.715  0.00  0.00    +0.003 A 
ATOM     12  C   UNL     1      -2.317  -1.561   5.715  0.00  0.00    +0.029 A 
ATOM     13  C   UNL     1      -1.027  -1.128   5.662  0.00  0.00    +0.118 A 
BRANCH   4  15
ATOM     14  C   UNL     1      -1.541   0.662   0.172  0.00  0.00    +0.129 C 
ATOM     15  N   UNL     1      -2.002   1.157   1.476  0.00  0.00    -0.336 N 
ATOM     16  C   UNL     1      -2.219   2.610   1.440  0.00  0.00    +0.129 C 
ENDBRANCH   4  15
ENDBRANCH   1  13
BRANCH   1  17
ATOM     17  N   UNL     1       0.560  -0.161   7.691  0.00  0.00    -0.097 NA
BRANCH  17  18
ATOM     18  C   UNL     1      -0.401   0.639   8.315  0.00  0.00    +0.088 A 
ATOM     19  C   UNL     1      -1.482   0.053   8.961  0.00  0.00    +0.030 A 
ATOM     20  C   UNL     1      -2.430   0.847   9.576  0.00  0.00    +0.030 A 
ATOM     21  C   UNL     1      -2.304   2.224   9.551  0.00  0.00    +0.106 A 
ATOM     22  C   UNL     1      -1.229   2.811   8.909  0.00  0.00    +0.045 A 
ATOM     23  C   UNL     1      -0.274   2.022   8.296  0.00  0.00    +0.044 A 
ATOM     24 BR   UNL     1       1.200   2.826   7.425  0.00  0.00    -0.048 Br
BRANCH  21  25
ATOM     25  S   UNL     1      -3.516   3.232  10.337  0.00  0.00    +0.056 S 
ATOM     26  O   UNL     1      -3.460   4.503   9.703  0.00  0.00    -0.153 OA
ATOM     27  O   UNL     1      -4.708   2.462  10.396  0.00  0.00    -0.153 OA
BRANCH  25  28
ATOM     28  N   UNL     1      -3.022   3.462  11.901  0.00  0.00    -0.204 NA
ATOM     29  H   UNL     1      -3.756   4.089  12.428  0.00  0.00    +0.144 HD
ATOM     30  H   UNL     1      -2.042   3.960  11.907  0.00  0.00    +0.144 HD
ENDBRANCH  25  28
ENDBRANCH  21  25
ENDBRANCH  17  18
ENDBRANCH   1  17
TORSDOF 6
