REMARK  Name = ZINC44300031
REMARK  5 active torsions:
REMARK  status: ('A' for Active; 'I' for Inactive)
REMARK    1  A    between atoms: C_1  and  C_2
REMARK    2  A    between atoms: C_5  and  O_19
REMARK    3  A    between atoms: C_6  and  C_8
REMARK    4  A    between atoms: N_10  and  C_11
REMARK    5  A    between atoms: C_11  and  C_18
REMARK                            x       y       z     vdW  Elec       q    Type
REMARK                         _______ _______ _______ _____ _____    ______ ____
ROOT
ATOM      1  C   UNL     1       0.053  -2.841   2.459  0.00  0.00    +0.248 C 
ATOM      2  O   UNL     1       0.070  -4.056   2.449  0.00  0.00    -0.270 OA
ATOM      3  N   UNL     1       0.050  -2.176   3.631  0.00  0.00    -0.304 N 
ATOM      4  H   UNL     1       0.037  -1.206   3.639  0.00  0.00    +0.150 HD
ENDROOT
BRANCH   3   5
ATOM      5  C   UNL     1       0.067  -2.918   4.894  0.00  0.00    +0.053 C 
ATOM      6  C   UNL     1      -1.121  -3.880   4.913  0.00  0.00    +0.049 C 
ATOM      7  C   UNL     1      -1.575  -4.146   6.375  0.00  0.00    +0.168 C 
ATOM      8  S   UNL     1      -1.382  -2.447   7.072  0.00  0.00    -0.029 S 
ATOM      9  O   UNL     1      -2.517  -1.666   6.721  0.00  0.00    -0.174 OA
ATOM     10  O   UNL     1      -0.988  -2.543   8.434  0.00  0.00    -0.174 OA
ATOM     11  C   UNL     1       0.059  -1.910   6.060  0.00  0.00    +0.191 C 
ATOM     12  C   UNL     1       1.357  -3.737   4.963  0.00  0.00    +0.033 C 
ENDBRANCH   3   5
BRANCH   1  18
ATOM     13  C   UNL     1      -0.018   1.503   0.010  0.00  0.00    +0.044 C 
ATOM     14  C   UNL     1       0.002  -0.004   0.002  0.00  0.00    -0.050 A 
ATOM     15  C   UNL     1       0.006  -0.687  -1.203  0.00  0.00    +0.007 A 
ATOM     16  C   UNL     1       0.024  -2.067  -1.224  0.00  0.00    +0.046 A 
ATOM     17  C   UNL     1       0.040  -2.780  -0.034  0.00  0.00    +0.129 A 
ATOM     18  C   UNL     1       0.037  -2.093   1.187  0.00  0.00    +0.078 A 
ATOM     19  C   UNL     1       0.023  -0.696   1.193  0.00  0.00    +0.020 A 
BRANCH  17  20
ATOM     20  O   UNL     1       0.058  -4.137  -0.053  0.00  0.00    -0.506 OA
ATOM     21  H   UNL     1       0.947  -4.518  -0.063  0.00  0.00    +0.292 HD
ENDBRANCH  17  20
ENDBRANCH   1  18
TORSDOF 3
