REMARK  Name = ZINC12597561
REMARK  5 active torsions:
REMARK  status: ('A' for Active; 'I' for Inactive)
REMARK    1  A    between atoms: C_12  and  C_14
REMARK    2  A    between atoms: C_14  and  N_15
REMARK    3  A    between atoms: N_15  and  C_16
REMARK    4  A    between atoms: C_19  and  S_22
REMARK    5  A    between atoms: S_22  and  N_25
REMARK                            x       y       z     vdW  Elec       q    Type
REMARK                         _______ _______ _______ _____ _____    ______ ____
ROOT
ATOM      1  N   UNL     1      -0.011   0.966   0.007  0.00  0.00    -0.335 N 
ATOM      2  H   UNL     1       0.002  -0.004   0.002  0.00  0.00    +0.147 HD
ENDROOT
BRANCH   1   3
ATOM      3  C   UNL     1      -1.230   1.648   0.017  0.00  0.00    +0.028 A 
ATOM      4  C   UNL     1      -1.251   3.037   0.030  0.00  0.00    +0.025 A 
ATOM      5  C   UNL     1      -2.458   3.708   0.035  0.00  0.00    +0.030 A 
ATOM      6  C   UNL     1      -3.645   2.998   0.037  0.00  0.00    +0.106 A 
ATOM      7  C   UNL     1      -3.628   1.616   0.029  0.00  0.00    +0.030 A 
ATOM      8  C   UNL     1      -2.424   0.938   0.019  0.00  0.00    +0.025 A 
BRANCH   6   9
ATOM      9  S   UNL     1      -5.183   3.859   0.049  0.00  0.00    +0.061 S 
ATOM     10  O   UNL     1      -4.932   5.147  -0.496  0.00  0.00    -0.153 OA
ATOM     11  O   UNL     1      -6.147   2.973  -0.503  0.00  0.00    -0.153 OA
BRANCH   9  12
ATOM     12  N   UNL     1      -5.603   4.088   1.634  0.00  0.00    -0.177 NA
ATOM     13  C   UNL     1      -6.403   3.080   2.292  0.00  0.00    +0.109 C 
ATOM     14  C   UNL     1      -7.902   3.387   2.094  0.00  0.00    +0.017 C 
ATOM     15  C   UNL     1      -8.292   4.563   2.887  0.00  0.00    +0.001 C 
ATOM     16  C   UNL     1      -7.584   5.854   2.486  0.00  0.00    +0.001 C 
ATOM     17  C   UNL     1      -6.253   5.934   3.193  0.00  0.00    +0.017 C 
ATOM     18  C   UNL     1      -5.150   5.317   2.315  0.00  0.00    +0.109 C 
ENDBRANCH   9  12
ENDBRANCH   6   9
ENDBRANCH   1   3
BRANCH   1  19
ATOM     19  C   UNL     1       1.248   1.716  -0.001  0.00  0.00    +0.198 C 
BRANCH  19  31
ATOM     20  C   UNL     1       6.959  -1.342  -0.076  0.00  0.00    +0.002 A 
ATOM     21  C   UNL     1       5.782  -1.752   0.525  0.00  0.00    +0.002 A 
ATOM     22  C   UNL     1       4.684  -0.911   0.546  0.00  0.00    +0.025 A 
ATOM     23  C   UNL     1       4.766   0.341  -0.036  0.00  0.00    +0.058 A 
ATOM     24  C   UNL     1       5.950   0.758  -0.651  0.00  0.00    +0.055 A 
ATOM     25  C   UNL     1       7.047  -0.090  -0.672  0.00  0.00    +0.025 A 
ATOM     26  N   UNL     1       6.016   2.027  -1.236  0.00  0.00    -0.283 N 
ATOM     27  C   UNL     1       5.071   2.952  -0.983  0.00  0.00    +0.235 C 
ATOM     28  O   UNL     1       5.124   4.030  -1.536  0.00  0.00    -0.274 OA
ATOM     29  C   UNL     1       3.947   2.663  -0.021  0.00  0.00    +0.209 C 
ATOM     30  N   UNL     1       3.671   1.218  -0.026  0.00  0.00    -0.260 N 
ATOM     31  C   UNL     1       2.406   0.752  -0.017  0.00  0.00    +0.237 C 
ATOM     32  O   UNL     1       2.201  -0.444  -0.021  0.00  0.00    -0.274 OA
ATOM     33  H   UNL     1       6.752   2.244  -1.831  0.00  0.00    +0.155 HD
ENDBRANCH  19  31
ENDBRANCH   1  19
TORSDOF 5
