REMARK  Name = ZINC40151435
REMARK  10 active torsions:
REMARK  status: ('A' for Active; 'I' for Inactive)
REMARK    1  A    between atoms: C_1  and  C_2
REMARK    2  A    between atoms: C_2  and  C_3
REMARK    3  A    between atoms: C_3  and  N_4
REMARK    4  A    between atoms: N_4  and  C_5
REMARK    5  A    between atoms: N_4  and  C_21
REMARK    6  A    between atoms: C_5  and  C_6
REMARK    7  A    between atoms: C_15  and  S_17
REMARK    8  A    between atoms: S_17  and  N_20
REMARK    9  A    between atoms: C_21  and  C_23
REMARK   10  A    between atoms: C_21  and  C_24
REMARK                            x       y       z     vdW  Elec       q    Type
REMARK                         _______ _______ _______ _____ _____    ______ ____
ROOT
ATOM      1  C   UNL     1       1.077  -1.745  -1.286  0.00  0.00    +0.203 C 
ATOM      2  O   UNL     1       0.025  -1.143  -1.265  0.00  0.00    -0.277 OA
ATOM      3  N   UNL     1       1.757  -1.872  -2.443  0.00  0.00    -0.272 N 
ATOM      4  C   UNL     1       3.032  -2.579  -2.595  0.00  0.00    +0.118 C 
ATOM      5  C   UNL     1       3.393  -2.443  -4.083  0.00  0.00    +0.056 C 
ATOM      6  C   UNL     1       2.257  -1.643  -4.680  0.00  0.00    -0.023 A 
ATOM      7  C   UNL     1       1.347  -1.353  -3.675  0.00  0.00    +0.040 A 
ATOM      8  C   UNL     1       0.201  -0.621  -3.990  0.00  0.00    +0.026 A 
ATOM      9  C   UNL     1      -0.021  -0.198  -5.283  0.00  0.00    +0.030 A 
ATOM     10  C   UNL     1       0.891  -0.495  -6.279  0.00  0.00    +0.105 A 
ATOM     11  C   UNL     1       2.033  -1.213  -5.973  0.00  0.00    +0.034 A 
ENDROOT
BRANCH  10  12
ATOM     12  S   UNL     1       0.604   0.048  -7.930  0.00  0.00    +0.056 S 
ATOM     13  O   UNL     1       1.335  -0.828  -8.778  0.00  0.00    -0.153 OA
ATOM     14  O   UNL     1      -0.798   0.237  -8.058  0.00  0.00    -0.153 OA
BRANCH  12  15
ATOM     15  N   UNL     1       1.299   1.543  -8.082  0.00  0.00    -0.204 NA
ATOM     16  H   UNL     1       1.755   1.945  -7.326  0.00  0.00    +0.144 HD
ATOM     17  H   UNL     1       1.250   2.017  -8.927  0.00  0.00    +0.144 HD
ENDBRANCH  12  15
ENDBRANCH  10  12
BRANCH   1  18
ATOM     18  C   UNL     1       1.626  -2.350  -0.020  0.00  0.00    +0.020 C 
BRANCH  18  19
ATOM     19  N   UNL     1       0.786  -1.950   1.117  0.00  0.00    +0.390 N 
ATOM     20  H   UNL     1      -0.176  -2.181   0.922  0.00  0.00    -0.080 HD
BRANCH  19  21
ATOM     21  C   UNL     1       1.226  -2.662   2.325  0.00  0.00    -0.040 C 
ATOM     22  C   UNL     1       1.099  -4.170   2.103  0.00  0.00    -0.008 C 
BRANCH  21  23
ATOM     23  C   UNL     1       0.365  -2.251   3.491  0.00  0.00    -0.060 A 
ATOM     24  C   UNL     1      -0.996  -2.081   3.319  0.00  0.00    +0.003 A 
ATOM     25  C   UNL     1      -1.787  -1.704   4.388  0.00  0.00    +0.021 A 
ATOM     26  C   UNL     1      -1.217  -1.497   5.632  0.00  0.00    +0.059 A 
ATOM     27  C   UNL     1       0.146  -1.668   5.804  0.00  0.00    +0.059 A 
ATOM     28  C   UNL     1       0.936  -2.050   4.734  0.00  0.00    +0.023 A 
ATOM     29 CL   UNL     1       0.864  -1.407   7.363  0.00  0.00    -0.082 Cl
ATOM     30 CL   UNL     1      -2.209  -1.023   6.975  0.00  0.00    -0.082 Cl
ENDBRANCH  21  23
ENDBRANCH  19  21
BRANCH  19  31
ATOM     31  C   UNL     1       0.909  -0.502   1.331  0.00  0.00    -0.078 C 
BRANCH  31  33
ATOM     32  C   UNL     1       2.485   1.349   1.906  0.00  0.00    +0.002 C 
ATOM     33  C   UNL     1       2.363  -0.155   1.655  0.00  0.00    -0.022 C 
ENDBRANCH  31  33
ENDBRANCH  19  31
ENDBRANCH  18  19
ENDBRANCH   1  18
TORSDOF 8
