REMARK  Name = ZINC03670572
REMARK  8 active torsions:
REMARK  status: ('A' for Active; 'I' for Inactive)
REMARK    1  A    between atoms: C_1  and  C_2
REMARK    2  A    between atoms: C_2  and  C_3
REMARK    3  A    between atoms: C_6  and  N_9
REMARK    4  A    between atoms: C_19  and  C_20
REMARK    5  A    between atoms: C_19  and  O_26
REMARK    6  A    between atoms: N_22  and  C_23
REMARK    7  A    between atoms: C_23  and  C_24
REMARK    8  A    between atoms: C_23  and  C_25
REMARK                            x       y       z     vdW  Elec       q    Type
REMARK                         _______ _______ _______ _____ _____    ______ ____
ROOT
ATOM      1  N   UNL     1      -1.069  -2.656   0.460  0.00  0.00    -0.214 N 
ATOM      2  C   UNL     1      -0.926  -3.714  -0.359  0.00  0.00    +0.314 C 
ATOM      3  O   UNL     1      -1.919  -4.337  -0.681  0.00  0.00    -0.252 OA
ATOM      4  N   UNL     1       0.260  -4.113  -0.836  0.00  0.00    -0.269 N 
ATOM      5  C   UNL     1       1.459  -3.467  -0.528  0.00  0.00    +0.043 A 
ATOM      6  C   UNL     1       2.663  -3.922  -1.049  0.00  0.00    +0.025 A 
ATOM      7  C   UNL     1       3.839  -3.270  -0.731  0.00  0.00    +0.017 A 
ATOM      8  C   UNL     1       3.823  -2.167   0.104  0.00  0.00    +0.018 A 
ATOM      9  C   UNL     1       2.624  -1.710   0.626  0.00  0.00    +0.025 A 
ATOM     10  C   UNL     1       1.452  -2.358   0.310  0.00  0.00    +0.034 A 
ATOM     11  C   UNL     1       0.124  -1.891   0.861  0.00  0.00    +0.247 C 
ATOM     12 BR   UNL     1       5.439  -1.283   0.532  0.00  0.00    -0.050 Br
ATOM     13  H   UNL     1       0.288  -4.885  -1.423  0.00  0.00    +0.156 HD
ENDROOT
BRANCH   1  17
ATOM     14  C   UNL     1      -4.841  -1.562   1.850  0.00  0.00    -0.048 A 
ATOM     15  C   UNL     1      -4.409  -1.126   0.611  0.00  0.00    +0.005 A 
ATOM     16  C   UNL     1      -3.159  -1.487   0.147  0.00  0.00    +0.024 A 
ATOM     17  C   UNL     1      -2.336  -2.289   0.927  0.00  0.00    +0.041 A 
ATOM     18  C   UNL     1      -2.775  -2.730   2.168  0.00  0.00    +0.024 A 
ATOM     19  C   UNL     1      -4.024  -2.361   2.629  0.00  0.00    +0.005 A 
BRANCH  14  21
ATOM     20  C   UNL     1      -7.235  -2.209   1.910  0.00  0.00    +0.009 C 
ATOM     21  C   UNL     1      -6.206  -1.167   2.352  0.00  0.00    +0.032 C 
ENDBRANCH  14  21
ENDBRANCH   1  17
BRANCH  11  22
ATOM     22  C   UNL     1      -0.078  -0.460   0.435  0.00  0.00    +0.269 C 
ATOM     23  O   UNL     1       0.013   0.434   1.250  0.00  0.00    -0.270 OA
ATOM     24  N   UNL     1      -0.361  -0.172  -0.851  0.00  0.00    -0.309 N 
ATOM     25  H   UNL     1      -0.434  -0.887  -1.503  0.00  0.00    +0.149 HD
BRANCH  24  26
ATOM     26  C   UNL     1      -0.557   1.220  -1.264  0.00  0.00    +0.067 C 
ATOM     27  C   UNL     1       0.799   1.856  -1.573  0.00  0.00    +0.027 C 
ATOM     28  C   UNL     1      -1.437   1.260  -2.516  0.00  0.00    +0.027 C 
ENDBRANCH  24  26
ENDBRANCH  11  22
BRANCH  11  29
ATOM     29  O   UNL     1       0.205  -1.916   2.287  0.00  0.00    -0.360 OA
ATOM     30  H   UNL     1       0.931  -1.390   2.649  0.00  0.00    +0.213 HD
ENDBRANCH  11  29
TORSDOF 5
