REMARK  Name = ZINC16475206
REMARK  11 active torsions:
REMARK  status: ('A' for Active; 'I' for Inactive)
REMARK    1  A    between atoms: C_1  and  C_2
REMARK    2  A    between atoms: C_2  and  O_3
REMARK    3  A    between atoms: O_3  and  C_4
REMARK    4  A    between atoms: C_4  and  C_6
REMARK    5  A    between atoms: C_7  and  C_27
REMARK    6  A    between atoms: C_8  and  C_24
REMARK    7  A    between atoms: C_10  and  N_11
REMARK    8  A    between atoms: C_12  and  C_14
REMARK    9  A    between atoms: C_14  and  N_53
REMARK   10  A    between atoms: C_16  and  C_23
REMARK   11  A    between atoms: C_19  and  C_22
REMARK                            x       y       z     vdW  Elec       q    Type
REMARK                         _______ _______ _______ _____ _____    ______ ____
ROOT
ATOM      1  C   UNL     1       3.644   1.753  -0.023  0.00  0.00    +0.091 A 
ATOM      2  C   UNL     1       4.705   0.861  -0.037  0.00  0.00    -0.015 A 
ATOM      3  C   UNL     1       4.412  -0.476  -0.041  0.00  0.00    +0.079 A 
ATOM      4  S   UNL     1       2.630  -0.486  -0.018  0.00  0.00    -0.068 S 
ATOM      5  C   UNL     1       2.349   1.224  -0.014  0.00  0.00    +0.087 A 
ATOM      6  C   UNL     1       6.132   1.346  -0.048  0.00  0.00    +0.046 C 
ENDROOT
BRANCH   3   7
ATOM      7  C   UNL     1       5.334  -1.614  -0.055  0.00  0.00    +0.248 C 
ATOM      8  O   UNL     1       6.536  -1.423  -0.065  0.00  0.00    -0.270 OA
ATOM      9  N   UNL     1       4.850  -2.872  -0.056  0.00  0.00    -0.325 N 
ATOM     10  H   UNL     1       3.892  -3.023  -0.049  0.00  0.00    +0.145 HD
ATOM     11  H   UNL     1       5.461  -3.626  -0.065  0.00  0.00    +0.145 HD
ENDBRANCH   3   7
BRANCH   5  12
ATOM     12  N   UNL     1       1.143   1.898   0.001  0.00  0.00    -0.281 N 
ATOM     13  C   UNL     1      -0.014   1.208   0.009  0.00  0.00    +0.201 C 
ATOM     14  O   UNL     1       0.002  -0.004   0.002  0.00  0.00    -0.278 OA
ATOM     15  H   UNL     1       1.130   2.868   0.007  0.00  0.00    +0.155 HD
BRANCH  13  16
ATOM     16  C   UNL     1      -1.330   1.944   0.019  0.00  0.00    +0.019 C 
BRANCH  16  24
ATOM     17  C   UNL     1      -3.718   1.640   0.267  0.00  0.00    -0.075 C 
ATOM     18  C   UNL     1      -4.821   0.588   0.404  0.00  0.00    -0.031 C 
ATOM     19  C   UNL     1      -4.893  -0.240  -0.882  0.00  0.00    +0.003 C 
ATOM     20  C   UNL     1      -3.528  -0.883  -1.143  0.00  0.00    -0.031 C 
ATOM     21  C   UNL     1      -2.463   0.212  -1.236  0.00  0.00    -0.075 C 
ATOM     22  C   UNL     1      -3.575  -1.664  -2.458  0.00  0.00    +0.005 C 
ATOM     23  C   UNL     1      -6.163   1.282   0.642  0.00  0.00    +0.005 C 
ATOM     24  N   UNL     1      -2.428   0.956   0.042  0.00  0.00    +0.386 N 
ATOM     25  H   UNL     1      -2.264   0.293   0.809  0.00  0.00    -0.081 HD
ENDBRANCH  16  24
ENDBRANCH  13  16
ENDBRANCH   5  12
BRANCH   1  26
ATOM     26  C   UNL     1       3.871   3.203  -0.018  0.00  0.00    +0.342 C 
ATOM     27  O   UNL     1       3.975   3.798   1.037  0.00  0.00    -0.245 OA
BRANCH  26  28
ATOM     28  O   UNL     1       3.965   3.875  -1.183  0.00  0.00    -0.461 OA
BRANCH  28  30
ATOM     29  C   UNL     1       4.268   5.892  -2.514  0.00  0.00    +0.048 C 
ATOM     30  C   UNL     1       4.190   5.307  -1.102  0.00  0.00    +0.229 C 
ENDBRANCH  28  30
ENDBRANCH  26  28
ENDBRANCH   1  26
TORSDOF 7
