REMARK  Name = ZINC37772045
REMARK  7 active torsions:
REMARK  status: ('A' for Active; 'I' for Inactive)
REMARK    1  A    between atoms: C_1  and  C_2
REMARK    2  A    between atoms: C_5  and  C_9
REMARK    3  A    between atoms: C_6  and  C_8
REMARK    4  A    between atoms: C_9  and  C_11
REMARK    5  A    between atoms: C_9  and  N_12
REMARK    6  A    between atoms: N_12  and  C_13
REMARK    7  A    between atoms: C_21  and  O_23
REMARK                            x       y       z     vdW  Elec       q    Type
REMARK                         _______ _______ _______ _____ _____    ______ ____
ROOT
ATOM      1  N   UNL     1      -0.415  -4.764  -1.323  0.00  0.00    +0.390 N 
ATOM      2  H   UNL     1      -1.324  -4.372  -1.518  0.00  0.00    -0.084 HD
ATOM      3  H   UNL     1       0.233  -4.485  -2.044  0.00  0.00    -0.084 HD
ENDROOT
BRANCH   1   4
ATOM      4  C   UNL     1      -0.510  -6.230  -1.291  0.00  0.00    +0.002 C 
ATOM      5  C   UNL     1      -1.662  -6.689  -0.366  0.00  0.00    +0.218 C 
ATOM      6  O   UNL     1      -2.769  -6.814  -1.274  0.00  0.00    -0.493 OA
ATOM      7  C   UNL     1      -2.299  -7.098  -2.520  0.00  0.00    +0.126 A 
ATOM      8  C   UNL     1      -0.951  -6.774  -2.636  0.00  0.00    -0.016 A 
ATOM      9  C   UNL     1      -0.276  -6.969  -3.820  0.00  0.00    +0.009 A 
ATOM     10  C   UNL     1      -0.935  -7.500  -4.914  0.00  0.00    +0.046 A 
ATOM     11  C   UNL     1      -2.277  -7.835  -4.812  0.00  0.00    +0.120 A 
ATOM     12  C   UNL     1      -2.958  -7.636  -3.620  0.00  0.00    +0.091 A 
BRANCH  11  13
ATOM     13  O   UNL     1      -2.927  -8.361  -5.883  0.00  0.00    -0.507 OA
ATOM     14  H   UNL     1      -2.892  -9.326  -5.930  0.00  0.00    +0.292 HD
ENDBRANCH  11  13
ENDBRANCH   1   4
BRANCH   1  15
ATOM     15  C   UNL     1       0.059  -4.275  -0.021  0.00  0.00    -0.043 C 
ATOM     16  C   UNL     1       1.488  -4.768   0.218  0.00  0.00    -0.009 C 
BRANCH  15  21
ATOM     17  C   UNL     1      -0.018   1.503   0.010  0.00  0.00    +0.044 C 
ATOM     18  C   UNL     1       0.002  -0.004   0.002  0.00  0.00    -0.050 A 
ATOM     19  C   UNL     1       0.006  -0.689  -1.199  0.00  0.00    +0.003 A 
ATOM     20  C   UNL     1       0.025  -2.071  -1.207  0.00  0.00    +0.002 A 
ATOM     21  C   UNL     1       0.040  -2.768  -0.013  0.00  0.00    -0.059 A 
ATOM     22  C   UNL     1       0.037  -2.084   1.188  0.00  0.00    -0.049 A 
ATOM     23  C   UNL     1       0.023  -0.702   1.195  0.00  0.00    +0.007 A 
ATOM     24  C   UNL     1       0.054  -2.845   2.489  0.00  0.00    +0.044 C 
ENDBRANCH  15  21
ENDBRANCH   1  15
TORSDOF 4
