REMARK  Name = ZINC12329159
REMARK  7 active torsions:
REMARK  status: ('A' for Active; 'I' for Inactive)
REMARK    1  A    between atoms: C_1  and  N_2
REMARK    2  A    between atoms: C_4  and  C_11
REMARK    3  A    between atoms: C_11  and  C_13
REMARK    4  A    between atoms: C_11  and  O_31
REMARK    5  A    between atoms: C_13  and  N_58
REMARK    6  A    between atoms: C_20  and  O_30
REMARK    7  A    between atoms: C_24  and  O_29
REMARK                            x       y       z     vdW  Elec       q    Type
REMARK                         _______ _______ _______ _____ _____    ______ ____
ROOT
ATOM      1  C   UNL     1       4.557  -0.381  -0.807  0.00  0.00    -0.075 C 
ATOM      2  C   UNL     1       6.028  -0.804  -0.826  0.00  0.00    +0.029 C 
ATOM      3  C   UNL     1       6.479  -1.003  -2.274  0.00  0.00    +0.110 C 
ATOM      4  C   UNL     1       6.252   0.290  -3.059  0.00  0.00    +0.029 C 
ATOM      5  C   UNL     1       4.774   0.680  -2.975  0.00  0.00    -0.075 C 
ATOM      6  C   UNL     1       7.967  -1.366  -2.303  0.00  0.00    +0.084 C 
ATOM      7  C   UNL     1       8.414  -1.448  -3.765  0.00  0.00    +0.152 C 
ATOM      8  C   UNL     1       7.432  -2.276  -4.553  0.00  0.00    +0.026 A 
ATOM      9  C   UNL     1       7.822  -2.779  -5.784  0.00  0.00    +0.055 A 
ATOM     10  C   UNL     1       6.941  -3.533  -6.541  0.00  0.00    +0.117 A 
ATOM     11  C   UNL     1       5.663  -3.788  -6.066  0.00  0.00    +0.049 A 
ATOM     12  C   UNL     1       5.274  -3.290  -4.839  0.00  0.00    +0.049 A 
ATOM     13  C   UNL     1       6.158  -2.533  -4.077  0.00  0.00    +0.127 A 
ATOM     14  O   UNL     1       5.737  -2.066  -2.871  0.00  0.00    -0.485 OA
ATOM     15  N   UNL     1       4.413   0.885  -1.556  0.00  0.00    +0.382 N 
ATOM     16  H   UNL     1       5.044   1.586  -1.150  0.00  0.00    -0.082 HD
ENDROOT
BRANCH  10  17
ATOM     17  O   UNL     1       7.329  -4.024  -7.749  0.00  0.00    -0.507 OA
ATOM     18  H   UNL     1       7.734  -4.901  -7.706  0.00  0.00    +0.292 HD
ENDBRANCH  10  17
BRANCH   7  19
ATOM     19  O   UNL     1       9.707  -2.053  -3.832  0.00  0.00    -0.387 OA
ATOM     20  H   UNL     1      10.057  -2.134  -4.729  0.00  0.00    +0.210 HD
ENDBRANCH   7  19
BRANCH  15  21
ATOM     21  C   UNL     1       3.023   1.376  -1.456  0.00  0.00    -0.042 C 
BRANCH  21  22
ATOM     22  C   UNL     1       2.956   2.790  -2.036  0.00  0.00    +0.130 C 
BRANCH  22  26
ATOM     23  C   UNL     1      -1.086   5.183  -0.248  0.00  0.00    +0.149 C 
ATOM     24  N   UNL     1      -0.242   4.372  -1.129  0.00  0.00    -0.349 N 
ATOM     25  C   UNL     1       1.079   4.091  -0.912  0.00  0.00    +0.092 A 
ATOM     26  C   UNL     1       1.552   3.321  -1.905  0.00  0.00    +0.004 A 
ATOM     27  C   UNL     1       0.445   3.096  -2.837  0.00  0.00    +0.005 A 
ATOM     28  C   UNL     1      -0.660   3.784  -2.302  0.00  0.00    +0.049 A 
ATOM     29  C   UNL     1      -1.875   3.753  -2.978  0.00  0.00    +0.026 A 
ATOM     30  C   UNL     1      -1.983   3.052  -4.159  0.00  0.00    +0.002 A 
ATOM     31  C   UNL     1      -0.890   2.375  -4.683  0.00  0.00    +0.001 A 
ATOM     32  C   UNL     1       0.313   2.392  -4.035  0.00  0.00    +0.010 A 
ENDBRANCH  22  26
BRANCH  22  33
ATOM     33  O   UNL     1       3.856   3.640  -1.323  0.00  0.00    -0.389 OA
ATOM     34  H   UNL     1       3.665   3.711  -0.378  0.00  0.00    +0.210 HD
ENDBRANCH  22  33
ENDBRANCH  21  22
ENDBRANCH  15  21
TORSDOF 6
