REMARK  Name = ZINC49980392
REMARK  2 active torsions:
REMARK  status: ('A' for Active; 'I' for Inactive)
REMARK    1  A    between atoms: C_6  and  N_10
REMARK    2  A    between atoms: N_10  and  C_11
REMARK                            x       y       z     vdW  Elec       q    Type
REMARK                         _______ _______ _______ _____ _____    ______ ____
ROOT
ATOM      1  N   UNL     1      -2.386  -0.477   0.022  0.00  0.00    -0.317 N 
ATOM      2  H   UNL     1      -2.570   0.475   0.030  0.00  0.00    +0.148 HD
ENDROOT
BRANCH   1   8
ATOM      3  C   UNL     1      -0.018   1.448   0.010  0.00  0.00    +0.021 A 
ATOM      4  C   UNL     1       1.144   2.119   0.003  0.00  0.00    +0.048 A 
ATOM      5  S   UNL     1       2.371   0.826  -0.016  0.00  0.00    -0.077 S 
ATOM      6  C   UNL     1       1.291  -0.580  -0.013  0.00  0.00    +0.113 A 
ATOM      7  C   UNL     1       0.002  -0.004   0.002  0.00  0.00    +0.047 A 
ATOM      8  C   UNL     1      -1.078  -0.928   0.007  0.00  0.00    +0.131 A 
ATOM      9  N   UNL     1      -0.818  -2.226  -0.003  0.00  0.00    -0.220 NA
ATOM     10  C   UNL     1       0.417  -2.695  -0.017  0.00  0.00    +0.224 A 
ATOM     11  N   UNL     1       1.460  -1.888  -0.022  0.00  0.00    -0.228 NA
ENDBRANCH   1   8
BRANCH   1  12
ATOM     12  C   UNL     1      -3.492  -1.437   0.027  0.00  0.00    +0.158 C 
ATOM     13  C   UNL     1      -4.734  -0.788   0.643  0.00  0.00    +0.032 C 
ATOM     14  C   UNL     1      -5.665  -1.843   1.214  0.00  0.00    +0.004 C 
ATOM     15  C   UNL     1      -6.293  -2.740   0.162  0.00  0.00    +0.019 C 
ATOM     16  C   UNL     1      -5.234  -3.618  -0.507  0.00  0.00    +0.104 C 
ATOM     17  N   UNL     1      -4.640  -2.869  -1.627  0.00  0.00    -0.314 N 
ATOM     18  C   UNL     1      -3.815  -1.849  -1.394  0.00  0.00    +0.233 C 
ATOM     19  O   UNL     1      -3.325  -1.244  -2.324  0.00  0.00    -0.274 OA
ATOM     20  H   UNL     1      -4.848  -3.123  -2.540  0.00  0.00    +0.149 HD
ENDBRANCH   1  12
TORSDOF 2
