REMARK  Name = ZINC38673366
REMARK  10 active torsions:
REMARK  status: ('A' for Active; 'I' for Inactive)
REMARK    1  A    between atoms: C_1  and  C_2
REMARK    2  A    between atoms: C_3  and  S_8
REMARK    3  A    between atoms: C_4  and  C_7
REMARK    4  A    between atoms: S_8  and  N_11
REMARK    5  A    between atoms: N_11  and  C_12
REMARK    6  A    between atoms: C_12  and  C_13
REMARK    7  A    between atoms: C_13  and  C_15
REMARK    8  A    between atoms: C_13  and  N_20
REMARK    9  A    between atoms: N_20  and  C_21
REMARK   10  A    between atoms: N_20  and  C_22
REMARK                            x       y       z     vdW  Elec       q    Type
REMARK                         _______ _______ _______ _____ _____    ______ ____
ROOT
ATOM      1  N   UNL     1       2.031   0.453  -3.290  0.00  0.00    -0.191 NA
ATOM      2  H   UNL     1       2.566   1.237  -3.492  0.00  0.00    +0.148 HD
ENDROOT
BRANCH   1   3
ATOM      3  S   UNL     1       0.472   0.629  -2.759  0.00  0.00    +0.063 S 
ATOM      4  O   UNL     1      -0.326  -0.242  -3.548  0.00  0.00    -0.153 OA
ATOM      5  O   UNL     1       0.226   2.026  -2.679  0.00  0.00    -0.153 OA
BRANCH   3   8
ATOM      6  C   UNL     1       0.969   2.227   0.123  0.00  0.00    +0.071 C 
ATOM      7  C   UNL     1       0.635   0.759   0.061  0.00  0.00    +0.107 A 
ATOM      8  C   UNL     1       0.411   0.011  -1.109  0.00  0.00    +0.169 A 
ATOM      9  C   UNL     1       0.142  -1.258  -0.750  0.00  0.00    +0.161 A 
ATOM     10  O   UNL     1       0.189  -1.329   0.589  0.00  0.00    -0.358 OA
ATOM     11  N   UNL     1       0.508  -0.041   1.082  0.00  0.00    -0.081 NA
ATOM     12  C   UNL     1      -0.160  -2.399  -1.688  0.00  0.00    +0.091 C 
ENDBRANCH   3   8
ENDBRANCH   1   3
BRANCH   1  13
ATOM     13  C   UNL     1       2.603  -0.886  -3.454  0.00  0.00    +0.095 C 
BRANCH  13  14
ATOM     14  C   UNL     1       3.878  -0.796  -4.294  0.00  0.00    -0.022 C 
BRANCH  14  15
ATOM     15  C   UNL     1       3.532  -0.337  -5.686  0.00  0.00    -0.053 A 
ATOM     16  C   UNL     1       3.716   0.983  -6.056  0.00  0.00    +0.009 A 
ATOM     17  C   UNL     1       3.394   1.363  -7.316  0.00  0.00    +0.045 A 
ATOM     18  S   UNL     1       2.810  -0.167  -8.027  0.00  0.00    -0.105 S 
ATOM     19  C   UNL     1       3.040  -1.212  -6.597  0.00  0.00    +0.047 A 
ENDBRANCH  14  15
BRANCH  14  20
ATOM     20  N   UNL     1       4.515  -2.118  -4.359  0.00  0.00    +0.381 N 
ATOM     21  C   UNL     1       5.713  -2.044  -5.207  0.00  0.00    -0.096 C 
ATOM     22  C   UNL     1       4.899  -2.544  -3.006  0.00  0.00    -0.096 C 
ATOM     23  H   UNL     1       3.867  -2.785  -4.750  0.00  0.00    -0.082 HD
ENDBRANCH  14  20
ENDBRANCH  13  14
ENDBRANCH   1  13
TORSDOF 6
