REMARK  Name = ZINC44967936
REMARK  9 active torsions:
REMARK  status: ('A' for Active; 'I' for Inactive)
REMARK    1  A    between atoms: C_1  and  C_2
REMARK    2  A    between atoms: C_4  and  C_8
REMARK    3  A    between atoms: C_5  and  C_7
REMARK    4  A    between atoms: C_8  and  C_10
REMARK    5  A    between atoms: C_8  and  N_11
REMARK    6  A    between atoms: N_14  and  C_15
REMARK    7  A    between atoms: C_17  and  C_23
REMARK    8  A    between atoms: C_20  and  O_21
REMARK    9  A    between atoms: O_21  and  C_22
REMARK                            x       y       z     vdW  Elec       q    Type
REMARK                         _______ _______ _______ _____ _____    ______ ____
ROOT
ATOM      1  N   UNL     1      -3.100  -2.601  -0.597  0.00  0.00    -0.293 N 
ATOM      2  C   UNL     1      -4.059  -3.369  -1.152  0.00  0.00    +0.304 C 
ATOM      3  O   UNL     1      -3.929  -4.578  -1.179  0.00  0.00    -0.252 OA
ATOM      4  N   UNL     1      -5.161  -2.798  -1.677  0.00  0.00    -0.266 N 
ATOM      5  H   UNL     1      -3.204  -1.637  -0.576  0.00  0.00    +0.151 HD
ATOM      6  H   UNL     1      -5.303  -1.844  -1.584  0.00  0.00    +0.156 HD
ENDROOT
BRANCH   4   7
ATOM      7  C   UNL     1      -6.101  -3.584  -2.358  0.00  0.00    +0.077 A 
ATOM      8  C   UNL     1      -5.713  -4.777  -2.941  0.00  0.00    +0.040 A 
ATOM      9  C   UNL     1      -6.652  -5.558  -3.619  0.00  0.00    +0.038 A 
ATOM     10  C   UNL     1      -7.980  -5.130  -3.705  0.00  0.00    +0.017 A 
ATOM     11  C   UNL     1      -8.361  -3.941  -3.122  0.00  0.00    +0.048 A 
ATOM     12  C   UNL     1      -7.429  -3.167  -2.444  0.00  0.00    +0.141 A 
BRANCH   9  13
ATOM     13  C   UNL     1      -6.244  -6.831  -4.243  0.00  0.00    +0.242 C 
ATOM     14  O   UNL     1      -5.088  -7.202  -4.168  0.00  0.00    -0.270 OA
ATOM     15  N   UNL     1      -7.152  -7.583  -4.896  0.00  0.00    -0.325 N 
ATOM     16  H   UNL     1      -8.073  -7.287  -4.956  0.00  0.00    +0.145 HD
ATOM     17  H   UNL     1      -6.883  -8.420  -5.306  0.00  0.00    +0.145 HD
ENDBRANCH   9  13
BRANCH  12  18
ATOM     18  O   UNL     1      -7.810  -1.998  -1.867  0.00  0.00    -0.493 OA
ATOM     19  C   UNL     1      -9.186  -1.631  -1.993  0.00  0.00    +0.277 C 
ENDBRANCH  12  18
ENDBRANCH   4   7
BRANCH   1  20
ATOM     20  C   UNL     1      -1.903  -3.222  -0.026  0.00  0.00    +0.102 C 
ATOM     21  C   UNL     1      -2.187  -3.650   1.414  0.00  0.00    +0.033 C 
BRANCH  20  25
ATOM     22  C   UNL     1       0.004   1.500  -0.053  0.00  0.00    +0.051 C 
ATOM     23  C   UNL     1       0.020  -0.006  -0.051  0.00  0.00    -0.013 A 
ATOM     24  C   UNL     1      -1.023  -0.872  -0.039  0.00  0.00    +0.016 A 
ATOM     25  C   UNL     1      -0.768  -2.230  -0.041  0.00  0.00    -0.017 A 
ATOM     26  C   UNL     1       0.519  -2.657  -0.055  0.00  0.00    -0.008 A 
ATOM     27  S   UNL     1       1.419  -1.115  -0.073  0.00  0.00    -0.098 S 
ATOM     28  C   UNL     1       1.051  -4.067  -0.060  0.00  0.00    +0.052 C 
ENDBRANCH  20  25
ENDBRANCH   1  20
TORSDOF 5
