REMARK  Name = ZINC51487730
REMARK  10 active torsions:
REMARK  status: ('A' for Active; 'I' for Inactive)
REMARK    1  A    between atoms: C_1  and  C_2
REMARK    2  A    between atoms: C_2  and  C_3
REMARK    3  A    between atoms: C_3  and  N_4
REMARK    4  A    between atoms: N_4  and  C_5
REMARK    5  A    between atoms: C_5  and  C_6
REMARK    6  A    between atoms: C_7  and  C_21
REMARK    7  A    between atoms: C_9  and  C_20
REMARK    8  A    between atoms: C_11  and  N_12
REMARK    9  A    between atoms: C_13  and  C_19
REMARK   10  A    between atoms: C_15  and  C_17
REMARK                            x       y       z     vdW  Elec       q    Type
REMARK                         _______ _______ _______ _____ _____    ______ ____
ROOT
ATOM      1  C   UNL     1      -2.944  -4.031   0.030  0.00  0.00    -0.017 A 
ATOM      2  C   UNL     1      -3.042  -4.727  -1.163  0.00  0.00    -0.044 A 
ATOM      3  C   UNL     1      -2.843  -6.100  -1.147  0.00  0.00    +0.026 A 
ATOM      4  C   UNL     1      -2.556  -6.727   0.050  0.00  0.00    +0.041 A 
ATOM      5  N   UNL     1      -2.469  -6.038   1.171  0.00  0.00    -0.233 NA
ATOM      6  C   UNL     1      -2.646  -4.727   1.195  0.00  0.00    +0.156 A 
ATOM      7  C   UNL     1      -2.339  -8.219   0.075  0.00  0.00    +0.065 C 
ATOM      8  C   UNL     1      -3.358  -4.009  -2.450  0.00  0.00    +0.044 C 
ENDROOT
BRANCH   6   9
ATOM      9  N   UNL     1      -2.538  -4.035   2.405  0.00  0.00    -0.217 N 
ATOM     10  C   UNL     1      -3.124  -4.384   3.582  0.00  0.00    +0.062 A 
ATOM     11  C   UNL     1      -2.771  -3.459   4.504  0.00  0.00    +0.085 A 
ATOM     12  C   UNL     1      -1.947  -2.517   3.877  0.00  0.00    +0.079 A 
ATOM     13  N   UNL     1      -1.802  -2.864   2.624  0.00  0.00    -0.169 NA
ATOM     14  C   UNL     1      -1.326  -1.311   4.536  0.00  0.00    +0.069 C 
ATOM     15 CL   UNL     1      -3.257  -3.442   6.171  0.00  0.00    -0.080 Cl
ATOM     16  C   UNL     1      -4.006  -5.583   3.816  0.00  0.00    +0.067 C 
ENDBRANCH   6   9
BRANCH   1  17
ATOM     17  C   UNL     1      -3.151  -2.539   0.063  0.00  0.00    -0.043 C 
BRANCH  17  18
ATOM     18  N   UNL     1      -1.896  -1.862  -0.291  0.00  0.00    +0.382 N 
ATOM     19  H   UNL     1      -1.613  -2.142  -1.218  0.00  0.00    -0.085 HD
ATOM     20  H   UNL     1      -1.179  -2.117   0.371  0.00  0.00    -0.085 HD
BRANCH  18  21
ATOM     21  C   UNL     1      -2.099  -0.407  -0.258  0.00  0.00    -0.082 C 
BRANCH  21  23
ATOM     22  C   UNL     1      -1.002   1.812  -0.593  0.00  0.00    +0.002 C 
ATOM     23  C   UNL     1      -0.792   0.297  -0.627  0.00  0.00    -0.022 C 
ENDBRANCH  21  23
ENDBRANCH  18  21
ENDBRANCH  17  18
ENDBRANCH   1  17
TORSDOF 5
