REMARK  Name = ZINC12384124
REMARK  9 active torsions:
REMARK  status: ('A' for Active; 'I' for Inactive)
REMARK    1  A    between atoms: C_1  and  C_2
REMARK    2  A    between atoms: C_2  and  C_24
REMARK    3  A    between atoms: N_5  and  O_6
REMARK    4  A    between atoms: C_7  and  C_12
REMARK    5  A    between atoms: C_9  and  C_10
REMARK    6  A    between atoms: C_9  and  C_11
REMARK    7  A    between atoms: C_12  and  C_14
REMARK    8  A    between atoms: C_12  and  O_23
REMARK    9  A    between atoms: C_18  and  N_20
REMARK                            x       y       z     vdW  Elec       q    Type
REMARK                         _______ _______ _______ _____ _____    ______ ____
ROOT
ATOM      1  C   UNL     1      -2.622   2.507   4.970  0.00  0.00    -0.010 C 
ATOM      2  C   UNL     1      -2.265   2.800   3.496  0.00  0.00    -0.068 C 
ATOM      3  C   UNL     1      -3.509   3.399   2.832  0.00  0.00    +0.041 C 
ATOM      4  C   UNL     1      -3.092   4.027   1.520  0.00  0.00    +0.061 C 
ATOM      5  N   UNL     1      -3.640   3.700   0.414  0.00  0.00    -0.096 NA
ATOM      6  C   UNL     1      -1.993   5.065   1.589  0.00  0.00    +0.058 C 
ATOM      7  C   UNL     1      -0.779   4.441   2.282  0.00  0.00    -0.062 C 
ATOM      8  C   UNL     1      -0.020   3.565   1.278  0.00  0.00    -0.010 C 
ATOM      9  C   UNL     1       0.165   5.593   2.691  0.00  0.00    -0.010 C 
ATOM     10  C   UNL     1      -1.935   1.459   2.831  0.00  0.00    -0.010 C 
ATOM     11  N   UNL     1      -1.084   3.708   3.543  0.00  0.00    +0.387 N 
ATOM     12  H   UNL     1      -0.262   3.142   3.785  0.00  0.00    -0.084 HD
ATOM     13  H   UNL     1      -1.251   4.403   4.279  0.00  0.00    -0.084 HD
ENDROOT
BRANCH   5  14
ATOM     14  O   UNL     1      -2.860   3.615  -0.765  0.00  0.00    -0.409 OA
ATOM     15  H   UNL     1      -3.372   3.430  -1.563  0.00  0.00    +0.328 HD
ENDBRANCH   5  14
BRANCH   6  16
ATOM     16  C   UNL     1      -1.610   5.506   0.174  0.00  0.00    +0.152 C 
BRANCH  16  17
ATOM     17  C   UNL     1      -2.800   6.149  -0.491  0.00  0.00    -0.016 A 
ATOM     18  C   UNL     1      -3.993   6.275   0.197  0.00  0.00    +0.006 A 
ATOM     19  C   UNL     1      -5.084   6.864  -0.413  0.00  0.00    +0.003 A 
ATOM     20  C   UNL     1      -4.983   7.328  -1.712  0.00  0.00    +0.033 A 
ATOM     21  C   UNL     1      -3.791   7.202  -2.400  0.00  0.00    +0.127 A 
ATOM     22  C   UNL     1      -2.698   6.617  -1.788  0.00  0.00    +0.039 A 
BRANCH  21  23
ATOM     23  N   UNL     1      -3.683   7.698  -3.790  0.00  0.00    +0.056 N 
ATOM     24  O   UNL     1      -4.645   8.217  -4.328  0.00  0.00    -0.126 OA
ATOM     25  O   UNL     1      -2.633   7.586  -4.397  0.00  0.00    -0.126 OA
ENDBRANCH  21  23
ENDBRANCH  16  17
BRANCH  16  26
ATOM     26  O   UNL     1      -0.537   6.448   0.243  0.00  0.00    -0.387 OA
ATOM     27  H   UNL     1      -0.747   7.248   0.744  0.00  0.00    +0.210 HD
ENDBRANCH  16  26
ENDBRANCH   6  16
TORSDOF 5
