REMARK  Name = ZINC00473701
REMARK  5 active torsions:
REMARK  status: ('A' for Active; 'I' for Inactive)
REMARK    1  A    between atoms: C_7  and  N_12
REMARK    2  A    between atoms: C_8  and  C_9
REMARK    3  A    between atoms: C_13  and  C_15
REMARK    4  A    between atoms: C_15  and  C_16
REMARK    5  A    between atoms: C_16  and  C_17
REMARK                            x       y       z     vdW  Elec       q    Type
REMARK                         _______ _______ _______ _____ _____    ______ ____
ROOT
ATOM      1  C   UNL     1      13.568   3.355  -0.401  0.00  0.00    +0.001 C 
ATOM      2  C   UNL     1      12.556   4.491  -0.543  0.00  0.00    +0.005 C 
ATOM      3  C   UNL     1      11.563   4.466   0.613  0.00  0.00    +0.037 C 
ATOM      4  C   UNL     1      10.370   3.590   0.255  0.00  0.00    -0.023 A 
ATOM      5  C   UNL     1      10.455   2.572  -0.628  0.00  0.00    -0.004 A 
ATOM      6  S   UNL     1       8.827   1.872  -0.676  0.00  0.00    -0.077 S 
ATOM      7  C   UNL     1       8.039   2.919   0.457  0.00  0.00    +0.084 A 
ATOM      8  C   UNL     1       9.050   3.786   0.840  0.00  0.00    +0.068 A 
ATOM      9  C   UNL     1      11.655   2.136  -1.409  0.00  0.00    +0.043 C 
ATOM     10  C   UNL     1      12.856   2.007  -0.463  0.00  0.00    +0.005 C 
ENDROOT
BRANCH   8  11
ATOM     11  C   UNL     1       8.801   4.862   1.805  0.00  0.00    +0.244 C 
ATOM     12  O   UNL     1       8.954   4.659   2.995  0.00  0.00    -0.270 OA
ATOM     13  N   UNL     1       8.402   6.074   1.374  0.00  0.00    -0.325 N 
ATOM     14  H   UNL     1       8.279   6.236   0.425  0.00  0.00    +0.145 HD
ATOM     15  H   UNL     1       8.237   6.786   2.012  0.00  0.00    +0.145 HD
ENDBRANCH   8  11
BRANCH   7  16
ATOM     16  N   UNL     1       6.717   2.899   0.873  0.00  0.00    -0.279 N 
ATOM     17  C   UNL     1       5.869   1.974   0.380  0.00  0.00    +0.218 C 
ATOM     18  O   UNL     1       6.262   1.160  -0.428  0.00  0.00    -0.275 OA
ATOM     19  H   UNL     1       6.402   3.550   1.520  0.00  0.00    +0.155 HD
BRANCH  17  20
ATOM     20  C   UNL     1       4.432   1.952   0.833  0.00  0.00    +0.096 C 
BRANCH  20  21
ATOM     21  C   UNL     1       3.692   0.815   0.127  0.00  0.00    +0.013 C 
BRANCH  21  22
ATOM     22  C   UNL     1       2.232   0.792   0.586  0.00  0.00    -0.011 C 
ATOM     23  C   UNL     1       1.453   1.995  -0.001  0.00  0.00    +0.003 C 
ATOM     24  C   UNL     1      -0.019   1.534   0.011  0.00  0.00    +0.000 C 
ATOM     25  C   UNL     1       0.002  -0.004   0.002  0.00  0.00    +0.000 C 
ATOM     26  C   UNL     1       1.486  -0.425  -0.014  0.00  0.00    +0.003 C 
ENDBRANCH  21  22
ENDBRANCH  20  21
ENDBRANCH  17  20
ENDBRANCH   7  16
TORSDOF 5
