REMARK  Name = ZINC36273238
REMARK  9 active torsions:
REMARK  status: ('A' for Active; 'I' for Inactive)
REMARK    1  A    between atoms: C_1  and  N_2
REMARK    2  A    between atoms: C_5  and  C_13
REMARK    3  A    between atoms: C_14  and  C_23
REMARK    4  A    between atoms: C_17  and  N_22
REMARK    5  A    between atoms: C_23  and  N_24
REMARK    6  A    between atoms: N_24  and  C_25
REMARK    7  A    between atoms: N_24  and  C_26
REMARK    8  A    between atoms: C_26  and  C_27
REMARK    9  A    between atoms: C_27  and  O_28
REMARK                            x       y       z     vdW  Elec       q    Type
REMARK                         _______ _______ _______ _____ _____    ______ ____
ROOT
ATOM      1  C   UNL     1      -4.855  -0.195  -0.652  0.00  0.00    +0.091 A 
ATOM      2  C   UNL     1      -5.869  -0.750  -1.374  0.00  0.00    +0.035 A 
ATOM      3  N   UNL     1      -6.882   0.167  -1.415  0.00  0.00    -0.303 N 
ATOM      4  C   UNL     1      -8.121   0.143  -1.994  0.00  0.00    +0.115 A 
ATOM      5  C   UNL     1      -8.952   1.208  -1.883  0.00  0.00    +0.041 A 
ATOM      6  C   UNL     1      -8.546   2.352  -1.168  0.00  0.00    +0.028 A 
ATOM      7  C   UNL     1      -7.316   2.383  -0.590  0.00  0.00    +0.048 A 
ATOM      8  C   UNL     1      -6.463   1.267  -0.715  0.00  0.00    +0.138 A 
ATOM      9  N   UNL     1      -5.241   1.029  -0.258  0.00  0.00    -0.228 NA
ENDROOT
BRANCH   1  14
ATOM     10  C   UNL     1       0.023   1.478  -0.358  0.00  0.00    +0.138 C 
ATOM     11  N   UNL     1       0.039   0.015  -0.282  0.00  0.00    -0.269 N 
ATOM     12  C   UNL     1      -1.160  -0.705  -0.176  0.00  0.00    +0.079 A 
ATOM     13  C   UNL     1      -2.371  -0.102  -0.461  0.00  0.00    +0.037 A 
ATOM     14  C   UNL     1      -3.551  -0.835  -0.349  0.00  0.00    +0.004 A 
ATOM     15  C   UNL     1      -3.506  -2.170   0.048  0.00  0.00    +0.014 A 
ATOM     16  C   UNL     1      -2.294  -2.768   0.331  0.00  0.00    +0.048 A 
ATOM     17  C   UNL     1      -1.120  -2.042   0.219  0.00  0.00    +0.143 A 
ATOM     18  O   UNL     1       0.080  -2.622   0.492  0.00  0.00    -0.481 OA
ATOM     19  C   UNL     1       1.202  -2.167  -0.269  0.00  0.00    +0.325 C 
ATOM     20  C   UNL     1       1.208  -0.661  -0.317  0.00  0.00    +0.257 C 
ATOM     21  O   UNL     1       2.258  -0.058  -0.383  0.00  0.00    -0.272 OA
ENDBRANCH   1  14
BRANCH   5  22
ATOM     22  N   UNL     1     -10.219   1.171  -2.482  0.00  0.00    -0.357 N 
ATOM     23  H   UNL     1     -10.500   0.385  -2.975  0.00  0.00    +0.142 HD
ATOM     24  H   UNL     1     -10.815   1.933  -2.404  0.00  0.00    +0.142 HD
ENDBRANCH   5  22
BRANCH   2  25
ATOM     25  C   UNL     1      -5.872  -2.117  -2.008  0.00  0.00    -0.022 C 
BRANCH  25  26
ATOM     26  N   UNL     1      -5.202  -2.054  -3.313  0.00  0.00    +0.383 N 
ATOM     27  C   UNL     1      -5.980  -1.202  -4.223  0.00  0.00    -0.096 C 
ATOM     28  H   UNL     1      -4.277  -1.666  -3.198  0.00  0.00    -0.082 HD
BRANCH  26  29
ATOM     29  C   UNL     1      -5.099  -3.406  -3.878  0.00  0.00    -0.051 C 
BRANCH  29  30
ATOM     30  C   UNL     1      -4.291  -3.357  -5.176  0.00  0.00    +0.137 C 
BRANCH  30  31
ATOM     31  O   UNL     1      -2.948  -2.964  -4.888  0.00  0.00    -0.397 OA
ATOM     32  H   UNL     1      -2.378  -2.911  -5.667  0.00  0.00    +0.209 HD
ENDBRANCH  30  31
ENDBRANCH  29  30
ENDBRANCH  26  29
ENDBRANCH  25  26
ENDBRANCH   2  25
TORSDOF 7
