REMARK  Name = ZINC11898730
REMARK  10 active torsions:
REMARK  status: ('A' for Active; 'I' for Inactive)
REMARK    1  A    between atoms: C_1  and  C_2
REMARK    2  A    between atoms: C_5  and  O_29
REMARK    3  A    between atoms: C_6  and  N_8
REMARK    4  A    between atoms: C_9  and  C_11
REMARK    5  A    between atoms: N_13  and  C_14
REMARK    6  A    between atoms: C_14  and  C_15
REMARK    7  A    between atoms: C_15  and  C_17
REMARK    8  A    between atoms: C_15  and  N_62
REMARK    9  A    between atoms: N_21  and  C_22
REMARK   10  A    between atoms: O_29  and  C_30
REMARK                            x       y       z     vdW  Elec       q    Type
REMARK                         _______ _______ _______ _____ _____    ______ ____
ROOT
ATOM      1  C   UNL     1       0.979  -2.530  -1.491  0.00  0.00    +0.299 C 
ATOM      2  O   UNL     1       1.467  -3.608  -1.222  0.00  0.00    -0.265 OA
ATOM      3  N   UNL     1       0.260  -1.866  -0.564  0.00  0.00    -0.309 N 
ATOM      4  H   UNL     1      -0.131  -1.004  -0.779  0.00  0.00    +0.149 HD
ENDROOT
BRANCH   1   6
ATOM      5  N   UNL     1       1.894  -2.603  -3.775  0.00  0.00    -0.275 N 
ATOM      6  C   UNL     1       1.175  -1.939  -2.848  0.00  0.00    +0.303 C 
ATOM      7  O   UNL     1       0.686  -0.861  -3.117  0.00  0.00    -0.265 OA
ATOM      8  H   UNL     1       2.219  -3.498  -3.587  0.00  0.00    +0.155 HD
BRANCH   5  14
ATOM      9  C   UNL     1       2.753   1.462  -6.402  0.00  0.00    +0.044 C 
ATOM     10  C   UNL     1       2.594  -0.034  -6.311  0.00  0.00    -0.048 A 
ATOM     11  C   UNL     1       2.722  -0.811  -7.447  0.00  0.00    +0.007 A 
ATOM     12  C   UNL     1       2.576  -2.184  -7.371  0.00  0.00    +0.048 A 
ATOM     13  C   UNL     1       2.301  -2.785  -6.153  0.00  0.00    +0.141 A 
ATOM     14  C   UNL     1       2.172  -2.002  -5.007  0.00  0.00    +0.076 A 
ATOM     15  C   UNL     1       2.314  -0.624  -5.093  0.00  0.00    +0.030 A 
BRANCH  13  16
ATOM     16  O   UNL     1       2.157  -4.135  -6.076  0.00  0.00    -0.493 OA
ATOM     17  C   UNL     1       2.303  -4.873  -7.291  0.00  0.00    +0.277 C 
ENDBRANCH  13  16
ENDBRANCH   5  14
ENDBRANCH   1   6
BRANCH   3  18
ATOM     18  C   UNL     1       0.068  -2.446   0.767  0.00  0.00    +0.095 C 
BRANCH  18  19
ATOM     19  C   UNL     1      -0.650  -1.435   1.665  0.00  0.00    -0.003 C 
BRANCH  19  26
ATOM     20  C   UNL     1       0.147   0.595   0.599  0.00  0.00    -0.078 C 
ATOM     21  C   UNL     1       0.350   2.032   1.008  0.00  0.00    -0.019 C 
ATOM     22  C   UNL     1       1.825   2.453   0.890  0.00  0.00    -0.002 C 
ATOM     23  C   UNL     1       2.780   1.348   1.382  0.00  0.00    -0.002 C 
ATOM     24  C   UNL     1       2.291   0.676   2.640  0.00  0.00    -0.019 C 
ATOM     25  C   UNL     1       1.470  -0.574   2.256  0.00  0.00    -0.078 C 
ATOM     26  N   UNL     1       0.155  -0.215   1.857  0.00  0.00    +0.386 N 
ATOM     27  H   UNL     1      -0.267   0.347   2.606  0.00  0.00    -0.081 HD
ENDBRANCH  19  26
BRANCH  19  28
ATOM     28  C   UNL     1      -0.897  -2.051   3.018  0.00  0.00    +0.006 A 
ATOM     29  C   UNL     1      -0.524  -1.530   4.204  0.00  0.00    +0.021 A 
ATOM     30  C   UNL     1      -0.949  -2.422   5.209  0.00  0.00    +0.019 A 
ATOM     31  C   UNL     1      -1.565  -3.454   4.598  0.00  0.00    +0.085 A 
ATOM     32  N   UNL     1      -1.542  -3.229   3.253  0.00  0.00    -0.355 N 
ATOM     33  C   UNL     1      -2.112  -4.110   2.231  0.00  0.00    +0.148 C 
ENDBRANCH  19  28
ENDBRANCH  18  19
ENDBRANCH   3  18
TORSDOF 7
