REMARK  Name = ZINC21012602
REMARK  6 active torsions:
REMARK  status: ('A' for Active; 'I' for Inactive)
REMARK    1  A    between atoms: C_1  and  N_2
REMARK    2  A    between atoms: C_5  and  N_8
REMARK    3  A    between atoms: N_8  and  C_9
REMARK    4  A    between atoms: N_8  and  S_10
REMARK    5  A    between atoms: S_10  and  C_13
REMARK    6  A    between atoms: C_17  and  N_19
REMARK                            x       y       z     vdW  Elec       q    Type
REMARK                         _______ _______ _______ _____ _____    ______ ____
ROOT
ATOM      1  S   UNL     1      -1.962  -1.467  -1.146  0.00  0.00    +0.061 S 
ATOM      2  O   UNL     1      -3.377  -1.337  -1.113  0.00  0.00    -0.153 OA
ATOM      3  O   UNL     1      -1.197  -1.167  -2.305  0.00  0.00    -0.153 OA
ENDROOT
BRANCH   1   4
ATOM      4  C   UNL     1      -1.599  -3.138  -0.722  0.00  0.00    +0.107 A 
ATOM      5  C   UNL     1      -2.506  -3.874   0.019  0.00  0.00    +0.030 A 
ATOM      6  C   UNL     1      -2.225  -5.186   0.354  0.00  0.00    +0.024 A 
ATOM      7  C   UNL     1      -1.038  -5.766  -0.051  0.00  0.00    +0.062 A 
ATOM      8  C   UNL     1      -0.125  -5.028  -0.795  0.00  0.00    +0.045 A 
ATOM      9  C   UNL     1      -0.412  -3.712  -1.133  0.00  0.00    +0.052 A 
ATOM     10 CL   UNL     1      -0.686  -7.413   0.370  0.00  0.00    -0.082 Cl
BRANCH   8  11
ATOM     11  N   UNL     1       1.077  -5.610  -1.206  0.00  0.00    -0.357 N 
ATOM     12  H   UNL     1       1.799  -5.025  -1.795  0.00  0.00    +0.142 HD
ATOM     13  H   UNL     1       1.302  -6.653  -0.940  0.00  0.00    +0.142 HD
ENDBRANCH   8  11
ENDBRANCH   1   4
BRANCH   1  14
ATOM     14  N   UNL     1      -1.370  -0.513   0.071  0.00  0.00    -0.177 NA
ATOM     15  C   UNL     1      -2.219  -0.177   1.217  0.00  0.00    +0.132 C 
BRANCH  14  20
ATOM     16  C   UNL     1       3.474   2.142   1.275  0.00  0.00    -0.096 C 
ATOM     17  N   UNL     1       2.134   1.548   1.179  0.00  0.00    +0.378 N 
ATOM     18  C   UNL     1       1.419   2.052  -0.001  0.00  0.00    -0.078 C 
ATOM     19  C   UNL     1      -0.019   1.527   0.010  0.00  0.00    +0.002 C 
ATOM     20  C   UNL     1       0.002  -0.004   0.002  0.00  0.00    +0.076 C 
ATOM     21  C   UNL     1       0.794  -0.503   1.214  0.00  0.00    +0.002 C 
ATOM     22  C   UNL     1       2.208   0.081   1.168  0.00  0.00    -0.078 C 
ATOM     23  H   UNL     1       1.565   1.848   2.070  0.00  0.00    -0.082 HD
ENDBRANCH  14  20
ENDBRANCH   1  14
TORSDOF 4
