REMARK  Name = ZINC17122775
REMARK  8 active torsions:
REMARK  status: ('A' for Active; 'I' for Inactive)
REMARK    1  A    between atoms: C_1  and  O_2
REMARK    2  A    between atoms: O_2  and  C_3
REMARK    3  A    between atoms: C_6  and  C_11
REMARK    4  A    between atoms: C_8  and  O_9
REMARK    5  A    between atoms: O_9  and  C_10
REMARK    6  A    between atoms: C_14  and  N_19
REMARK    7  A    between atoms: N_19  and  C_20
REMARK    8  A    between atoms: C_25  and  N_26
REMARK                            x       y       z     vdW  Elec       q    Type
REMARK                         _______ _______ _______ _____ _____    ______ ____
ROOT
ATOM      1  C   UNL     1       3.656  -4.682  -1.077  0.00  0.00    +0.032 C 
ATOM      2  C   UNL     1       2.441  -4.240  -0.252  0.00  0.00    +0.059 C 
ATOM      3  C   UNL     1       2.436  -2.739  -0.138  0.00  0.00    +0.012 C 
ATOM      4  C   UNL     1       3.588  -2.033  -0.145  0.00  0.00    +0.065 C 
ATOM      5  C   UNL     1       4.832  -2.659  -0.268  0.00  0.00    +0.158 C 
ATOM      6  O   UNL     1       5.846  -1.990  -0.268  0.00  0.00    -0.293 OA
ATOM      7  C   UNL     1       4.926  -4.157  -0.400  0.00  0.00    +0.087 C 
ENDROOT
BRANCH   1  11
ATOM      8  C   UNL     1       3.789  -8.953  -1.257  0.00  0.00    +0.161 A 
ATOM      9  C   UNL     1       3.832  -8.306  -0.032  0.00  0.00    +0.049 A 
ATOM     10  C   UNL     1       3.789  -6.925   0.023  0.00  0.00    +0.008 A 
ATOM     11  C   UNL     1       3.704  -6.187  -1.143  0.00  0.00    -0.040 A 
ATOM     12  C   UNL     1       3.655  -6.826  -2.368  0.00  0.00    +0.053 A 
ATOM     13  C   UNL     1       3.704  -8.209  -2.430  0.00  0.00    +0.162 A 
BRANCH   8  15
ATOM     14  C   UNL     1       3.920 -11.008  -0.068  0.00  0.00    +0.277 C 
ATOM     15  O   UNL     1       3.832 -10.311  -1.312  0.00  0.00    -0.491 OA
ENDBRANCH   8  15
BRANCH  13  16
ATOM     16  O   UNL     1       3.662  -8.839  -3.634  0.00  0.00    -0.491 OA
ATOM     17  C   UNL     1       3.574  -8.012  -4.796  0.00  0.00    +0.277 C 
ENDBRANCH  13  16
ENDBRANCH   1  11
BRANCH   3  18
ATOM     18  N   UNL     1       1.248  -2.080  -0.021  0.00  0.00    -0.316 N 
ATOM     19  H   UNL     1       0.313  -2.648   0.093  0.00  0.00    +0.152 HD
BRANCH  18  20
ATOM     20  C   UNL     1       1.219  -0.681  -0.044  0.00  0.00    +0.052 A 
ATOM     21  C   UNL     1       0.874   0.027   1.097  0.00  0.00    +0.025 A 
ATOM     22  C   UNL     1       0.845   1.409   1.071  0.00  0.00    +0.002 A 
ATOM     23  C   UNL     1       1.159   2.089  -0.091  0.00  0.00    +0.002 A 
ATOM     24  C   UNL     1       1.504   1.392  -1.234  0.00  0.00    +0.024 A 
ATOM     25  C   UNL     1       1.535   0.006  -1.217  0.00  0.00    +0.046 A 
BRANCH  25  26
ATOM     26  N   UNL     1       1.884  -0.702  -2.372  0.00  0.00    -0.357 N 
ATOM     27  H   UNL     1       2.133  -0.159  -3.296  0.00  0.00    +0.142 HD
ATOM     28  H   UNL     1       1.908  -1.802  -2.357  0.00  0.00    +0.142 HD
ENDBRANCH  25  26
ENDBRANCH  18  20
ENDBRANCH   3  18
TORSDOF 6
