REMARK  Name = ZINC20125160
REMARK  11 active torsions:
REMARK  status: ('A' for Active; 'I' for Inactive)
REMARK    1  A    between atoms: C_1  and  C_2
REMARK    2  A    between atoms: C_6  and  C_20
REMARK    3  A    between atoms: C_8  and  N_11
REMARK    4  A    between atoms: N_11  and  C_12
REMARK    5  A    between atoms: C_12  and  C_13
REMARK    6  A    between atoms: C_13  and  N_14
REMARK    7  A    between atoms: C_15  and  C_17
REMARK    8  A    between atoms: C_17  and  C_18
REMARK    9  A    between atoms: C_17  and  C_19
REMARK   10  A    between atoms: C_20  and  C_21
REMARK   11  A    between atoms: C_20  and  C_22
REMARK                            x       y       z     vdW  Elec       q    Type
REMARK                         _______ _______ _______ _____ _____    ______ ____
ROOT
ATOM      1  N   UNL     1       4.853   1.476  -0.036  0.00  0.00    +0.382 N 
ATOM      2  H   UNL     1       4.895   0.848  -0.938  0.00  0.00    -0.085 HD
ATOM      3  H   UNL     1       4.912   0.838   0.858  0.00  0.00    -0.085 HD
ENDROOT
BRANCH   1   9
ATOM      4  C   UNL     1       7.005   2.007   3.648  0.00  0.00    +0.007 C 
ATOM      5  C   UNL     1       6.679   1.592   2.211  0.00  0.00    -0.016 C 
ATOM      6  C   UNL     1       7.902   0.917   1.586  0.00  0.00    +0.003 C 
ATOM      7  C   UNL     1       7.577   0.502   0.150  0.00  0.00    +0.002 C 
ATOM      8  C   UNL     1       7.205   1.741  -0.667  0.00  0.00    -0.022 C 
ATOM      9  C   UNL     1       5.982   2.416  -0.042  0.00  0.00    -0.068 C 
ATOM     10  C   UNL     1       6.307   2.831   1.394  0.00  0.00    -0.012 C 
BRANCH   8  11
ATOM     11  C   UNL     1       6.880   1.326  -2.103  0.00  0.00    -0.016 C 
ATOM     12  C   UNL     1       6.508   2.564  -2.921  0.00  0.00    +0.007 C 
ATOM     13  C   UNL     1       8.102   0.650  -2.728  0.00  0.00    +0.007 C 
ENDBRANCH   8  11
ENDBRANCH   1   9
BRANCH   1  14
ATOM     14  C   UNL     1       3.571   2.193  -0.020  0.00  0.00    -0.063 C 
BRANCH  14  15
ATOM     15  C   UNL     1       2.422   1.183  -0.015  0.00  0.00    +0.085 C 
BRANCH  15  16
ATOM     16  N   UNL     1       1.143   1.898   0.001  0.00  0.00    -0.317 N 
ATOM     17  C   UNL     1      -0.014   1.209   0.009  0.00  0.00    +0.216 C 
ATOM     18  O   UNL     1       0.002  -0.004   0.002  0.00  0.00    -0.276 OA
ATOM     19  H   UNL     1       1.129   2.998   0.007  0.00  0.00    +0.149 HD
BRANCH  17  20
ATOM     20  C   UNL     1      -1.330   1.944   0.019  0.00  0.00    +0.069 C 
ATOM     21  C   UNL     1      -1.429   2.829  -1.225  0.00  0.00    +0.017 C 
ATOM     22  C   UNL     1      -2.479   0.934   0.019  0.00  0.00    +0.017 C 
ENDBRANCH  17  20
ENDBRANCH  15  16
ENDBRANCH  14  15
ENDBRANCH   1  14
TORSDOF 6
