REMARK  Name = ZINC18010011
REMARK  6 active torsions:
REMARK  status: ('A' for Active; 'I' for Inactive)
REMARK    1  A    between atoms: C_4  and  C_7
REMARK    2  A    between atoms: C_7  and  C_9
REMARK    3  A    between atoms: N_13  and  C_23
REMARK    4  A    between atoms: C_14  and  C_16
REMARK    5  A    between atoms: C_26  and  S_29
REMARK    6  A    between atoms: S_29  and  N_32
REMARK                            x       y       z     vdW  Elec       q    Type
REMARK                         _______ _______ _______ _____ _____    ______ ____
ROOT
ATOM      1  C   UNL     1      -0.691   1.639   1.222  0.00  0.00    +0.077 C 
ATOM      2  C   UNL     1       0.269   2.206   1.990  0.00  0.00    +0.250 C 
ATOM      3  C   UNL     1       1.568   2.111   1.293  0.00  0.00    +0.292 C 
ATOM      4  O   UNL     1       2.623   2.529   1.725  0.00  0.00    -0.266 OA
ATOM      5  N   UNL     1       1.409   1.491   0.109  0.00  0.00    -0.253 N 
ATOM      6  C   UNL     1      -0.010   1.146  -0.034  0.00  0.00    +0.152 C 
ATOM      7  O   UNL     1       0.069   2.772   3.203  0.00  0.00    -0.282 OA
ENDROOT
BRANCH   6   8
ATOM      8  C   UNL     1      -0.591   1.832  -1.244  0.00  0.00    +0.013 A 
ATOM      9  C   UNL     1      -0.038   3.014  -1.700  0.00  0.00    +0.008 A 
ATOM     10  C   UNL     1      -0.567   3.640  -2.813  0.00  0.00    +0.001 A 
ATOM     11  C   UNL     1      -1.657   3.091  -3.464  0.00  0.00    +0.003 A 
ATOM     12  C   UNL     1      -2.214   1.913  -3.006  0.00  0.00    +0.039 A 
ATOM     13  C   UNL     1      -1.682   1.282  -1.894  0.00  0.00    +0.129 A 
ATOM     14  F   UNL     1      -2.226   0.129  -1.446  0.00  0.00    -0.205 F 
ENDBRANCH   6   8
BRANCH   5  15
ATOM     15  C   UNL     1       2.418   1.224  -0.821  0.00  0.00    +0.038 A 
ATOM     16  C   UNL     1       2.115   0.569  -2.008  0.00  0.00    +0.025 A 
ATOM     17  C   UNL     1       3.113   0.311  -2.926  0.00  0.00    +0.030 A 
ATOM     18  C   UNL     1       4.415   0.694  -2.661  0.00  0.00    +0.105 A 
ATOM     19  C   UNL     1       4.721   1.342  -1.478  0.00  0.00    +0.030 A 
ATOM     20  C   UNL     1       3.727   1.608  -0.557  0.00  0.00    +0.025 A 
BRANCH  18  21
ATOM     21  S   UNL     1       5.687   0.356  -3.833  0.00  0.00    +0.056 S 
ATOM     22  O   UNL     1       5.051   0.229  -5.097  0.00  0.00    -0.153 OA
ATOM     23  O   UNL     1       6.722   1.300  -3.592  0.00  0.00    -0.153 OA
BRANCH  21  24
ATOM     24  N   UNL     1       6.310  -1.133  -3.464  0.00  0.00    -0.204 NA
ATOM     25  H   UNL     1       7.110  -1.382  -4.176  0.00  0.00    +0.144 HD
ATOM     26  H   UNL     1       5.513  -1.889  -3.528  0.00  0.00    +0.144 HD
ENDBRANCH  21  24
ENDBRANCH  18  21
ENDBRANCH   5  15
BRANCH   1  27
ATOM     27  C   UNL     1      -2.116   1.525   1.545  0.00  0.00    +0.195 C 
ATOM     28  O   UNL     1      -2.804   2.525   1.624  0.00  0.00    -0.287 OA
BRANCH  27  32
ATOM     29  C   UNL     1      -3.844  -2.299   2.207  0.00  0.00    +0.000 A 
ATOM     30  C   UNL     1      -4.651  -1.175   2.177  0.00  0.00    +0.001 A 
ATOM     31  C   UNL     1      -4.096   0.070   1.963  0.00  0.00    +0.012 A 
ATOM     32  C   UNL     1      -2.718   0.194   1.775  0.00  0.00    +0.022 A 
ATOM     33  C   UNL     1      -1.911  -0.946   1.800  0.00  0.00    +0.012 A 
ATOM     34  C   UNL     1      -2.478  -2.184   2.021  0.00  0.00    +0.001 A 
ENDBRANCH  27  32
ENDBRANCH   1  27
TORSDOF 6
