REMARK  Name = ZINC20392847
REMARK  5 active torsions:
REMARK  status: ('A' for Active; 'I' for Inactive)
REMARK    1  A    between atoms: C_6  and  C_7
REMARK    2  A    between atoms: C_8  and  C_19
REMARK    3  A    between atoms: C_13  and  N_16
REMARK    4  A    between atoms: C_19  and  C_20
REMARK    5  A    between atoms: C_20  and  N_21
REMARK                            x       y       z     vdW  Elec       q    Type
REMARK                         _______ _______ _______ _____ _____    ______ ____
ROOT
ATOM      1  C   UNL     1      -1.260   2.114   0.013  0.00  0.00    +0.076 A 
ATOM      2  C   UNL     1      -1.654   3.198   0.927  0.00  0.00    +0.066 A 
ATOM      3  N   UNL     1      -2.864   3.553   0.604  0.00  0.00    -0.232 NA
ATOM      4  C   UNL     1      -3.316   2.809  -0.441  0.00  0.00    +0.138 A 
ATOM      5  N   UNL     1      -2.352   1.924  -0.826  0.00  0.00    -0.297 N 
ATOM      6  C   UNL     1      -2.558   1.068  -1.859  0.00  0.00    +0.126 A 
ATOM      7  C   UNL     1      -3.755   1.075  -2.551  0.00  0.00    +0.143 A 
ATOM      8  C   UNL     1      -4.751   1.964  -2.186  0.00  0.00    +0.038 A 
ATOM      9  C   UNL     1      -4.531   2.838  -1.111  0.00  0.00    +0.049 A 
ENDROOT
BRANCH   1  15
ATOM     10  C   UNL     1       0.709   1.327  -1.209  0.00  0.00    +0.011 A 
ATOM     11  C   UNL     1       1.891   0.649  -1.220  0.00  0.00    +0.020 A 
ATOM     12  C   UNL     1       2.367   0.049  -0.059  0.00  0.00    +0.041 A 
ATOM     13  C   UNL     1       1.644   0.134   1.128  0.00  0.00    +0.020 A 
ATOM     14  C   UNL     1       0.459   0.807   1.164  0.00  0.00    +0.011 A 
ATOM     15  C   UNL     1      -0.034   1.421  -0.010  0.00  0.00    +0.001 A 
ATOM     16 CL   UNL     1       3.874  -0.812  -0.089  0.00  0.00    -0.084 Cl
ENDBRANCH   1  15
BRANCH   7  17
ATOM     17  N   UNL     1      -3.969   0.137  -3.676  0.00  0.00    +0.058 N 
ATOM     18  O   UNL     1      -3.018  -0.707  -4.021  0.00  0.00    -0.126 OA
ATOM     19  O   UNL     1      -5.111   0.147  -4.333  0.00  0.00    -0.126 OA
ENDBRANCH   7  17
BRANCH   2  20
ATOM     20  C   UNL     1      -0.814   3.787   2.031  0.00  0.00    +0.038 C 
BRANCH  20  21
ATOM     21  C   UNL     1      -0.090   5.031   1.513  0.00  0.00    -0.080 C 
BRANCH  21  22
ATOM     22  N   UNL     1       0.812   5.542   2.554  0.00  0.00    +0.378 N 
ATOM     23  H   UNL     1       1.333   6.436   2.182  0.00  0.00    -0.090 HD
ATOM     24  H   UNL     1       1.550   4.768   2.812  0.00  0.00    -0.090 HD
ATOM     25  H   UNL     1       0.227   5.804   3.449  0.00  0.00    -0.090 HD
ENDBRANCH  21  22
ENDBRANCH  20  21
ENDBRANCH   2  20
TORSDOF 5
