REMARK  Name = ZINC32185934
REMARK  5 active torsions:
REMARK  status: ('A' for Active; 'I' for Inactive)
REMARK    1  A    between atoms: C_1  and  C_2
REMARK    2  A    between atoms: C_2  and  C_23
REMARK    3  A    between atoms: C_5  and  C_9
REMARK    4  A    between atoms: C_12  and  O_15
REMARK    5  A    between atoms: O_15  and  C_16
REMARK                            x       y       z     vdW  Elec       q    Type
REMARK                         _______ _______ _______ _____ _____    ______ ____
ROOT
ATOM      1  C   UNL     1      -1.558   3.441  -2.443  0.00  0.00    -0.020 A 
ATOM      2  C   UNL     1      -2.487   2.558  -2.962  0.00  0.00    +0.010 A 
ATOM      3  C   UNL     1      -3.209   2.897  -4.090  0.00  0.00    +0.046 A 
ATOM      4  C   UNL     1      -2.993   4.120  -4.709  0.00  0.00    +0.129 A 
ATOM      5  C   UNL     1      -2.056   5.002  -4.189  0.00  0.00    +0.046 A 
ATOM      6  C   UNL     1      -1.341   4.660  -3.058  0.00  0.00    +0.010 A 
ENDROOT
BRANCH   1  11
ATOM      7  C   UNL     1      -1.815   0.611   1.039  0.00  0.00    -0.008 C 
ATOM      8  C   UNL     1      -0.542   1.454   1.131  0.00  0.00    -0.050 C 
ATOM      9  C   UNL     1       0.309   1.234  -0.122  0.00  0.00    +0.147 C 
ATOM     10  O   UNL     1      -0.412   1.690  -1.270  0.00  0.00    -0.375 OA
ATOM     11  C   UNL     1      -0.777   3.072  -1.208  0.00  0.00    +0.131 C 
ATOM     12  C   UNL     1      -1.640   3.311   0.034  0.00  0.00    -0.045 C 
ATOM     13  N   UNL     1      -0.902   2.877   1.228  0.00  0.00    +0.386 N 
ATOM     14  C   UNL     1       0.256   1.042   2.370  0.00  0.00    -0.008 C 
ATOM     15  H   UNL     1      -1.535   3.035   2.114  0.00  0.00    -0.085 HD
ATOM     16  H   UNL     1       0.013   3.481   1.319  0.00  0.00    -0.085 HD
ENDBRANCH   1  11
BRANCH   4  17
ATOM     17  O   UNL     1      -3.698   4.454  -5.821  0.00  0.00    -0.453 OA
BRANCH  17  18
ATOM     18  C   UNL     1      -4.979   4.878  -5.661  0.00  0.00    +0.163 A 
ATOM     19  C   UNL     1      -5.506   5.033  -4.388  0.00  0.00    +0.049 A 
ATOM     20  C   UNL     1      -6.807   5.470  -4.228  0.00  0.00    +0.004 A 
ATOM     21  C   UNL     1      -7.589   5.742  -5.335  0.00  0.00    +0.003 A 
ATOM     22  C   UNL     1      -7.069   5.583  -6.607  0.00  0.00    +0.042 A 
ATOM     23  C   UNL     1      -5.766   5.152  -6.774  0.00  0.00    +0.165 A 
ATOM     24  F   UNL     1      -5.258   4.997  -8.016  0.00  0.00    -0.202 F 
ENDBRANCH  17  18
ENDBRANCH   4  17
TORSDOF 3
