REMARK  Name = ZINC39462153
REMARK  11 active torsions:
REMARK  status: ('A' for Active; 'I' for Inactive)
REMARK    1  A    between atoms: C_1  and  C_2
REMARK    2  A    between atoms: C_5  and  C_28
REMARK    3  A    between atoms: C_12  and  N_15
REMARK    4  A    between atoms: C_16  and  C_18
REMARK    5  A    between atoms: C_18  and  N_19
REMARK    6  A    between atoms: N_19  and  C_20
REMARK    7  A    between atoms: N_19  and  C_21
REMARK    8  A    between atoms: C_21  and  C_22
REMARK    9  A    between atoms: N_24  and  C_25
REMARK   10  A    between atoms: C_25  and  C_26
REMARK   11  A    between atoms: C_25  and  C_27
REMARK                            x       y       z     vdW  Elec       q    Type
REMARK                         _______ _______ _______ _____ _____    ______ ____
ROOT
ATOM      1  N   UNL     1      -0.606   0.540   2.937  0.00  0.00    -0.288 N 
ATOM      2  C   UNL     1      -0.064   0.624   4.168  0.00  0.00    +0.199 C 
ATOM      3  O   UNL     1       0.572  -0.307   4.615  0.00  0.00    -0.278 OA
ATOM      4  H   UNL     1      -1.114   1.284   2.579  0.00  0.00    +0.151 HD
ENDROOT
BRANCH   1  15
ATOM      5  C   UNL     1      -0.019   1.526   0.010  0.00  0.00    +0.043 C 
ATOM      6  C   UNL     1       0.002  -0.004   0.002  0.00  0.00    +0.150 C 
ATOM      7  C   UNL     1      -1.405  -0.543   0.038  0.00  0.00    +0.016 A 
ATOM      8  C   UNL     1      -2.412  -0.692  -0.924  0.00  0.00    +0.065 A 
ATOM      9  N   UNL     1      -3.565  -1.206  -0.589  0.00  0.00    -0.176 NA
ATOM     10  N   UNL     1      -3.830  -1.592   0.607  0.00  0.00    -0.243 N 
ATOM     11  C   UNL     1      -2.926  -1.489   1.603  0.00  0.00    +0.272 A 
ATOM     12  O   UNL     1      -3.201  -1.863   2.732  0.00  0.00    -0.266 OA
ATOM     13  C   UNL     1      -1.661  -0.945   1.319  0.00  0.00    +0.072 A 
ATOM     14  H   UNL     1      -4.704  -1.966   0.800  0.00  0.00    +0.192 HD
ATOM     15  C   UNL     1      -0.427  -0.676   2.139  0.00  0.00    +0.243 C 
ATOM     16  O   UNL     1       0.646  -0.498   1.192  0.00  0.00    -0.347 OA
ATOM     17  C   UNL     1      -2.165  -0.259  -2.346  0.00  0.00    +0.068 C 
ENDBRANCH   1  15
BRANCH   2  18
ATOM     18  C   UNL     1      -0.247   1.875   4.988  0.00  0.00    +0.019 C 
BRANCH  18  19
ATOM     19  N   UNL     1       0.434   1.717   6.280  0.00  0.00    +0.389 N 
ATOM     20  C   UNL     1      -0.217   0.649   7.050  0.00  0.00    -0.095 C 
ATOM     21  H   UNL     1       1.401   1.478   6.123  0.00  0.00    -0.081 HD
BRANCH  19  22
ATOM     22  C   UNL     1       0.357   2.978   7.030  0.00  0.00    +0.019 C 
BRANCH  22  23
ATOM     23  C   UNL     1       1.159   2.856   8.300  0.00  0.00    +0.197 C 
ATOM     24  O   UNL     1       1.738   1.821   8.555  0.00  0.00    -0.278 OA
ATOM     25  N   UNL     1       1.234   3.897   9.153  0.00  0.00    -0.315 N 
ATOM     26  H   UNL     1       0.771   4.725   8.949  0.00  0.00    +0.149 HD
BRANCH  25  27
ATOM     27  C   UNL     1       2.014   3.778  10.387  0.00  0.00    +0.067 C 
ATOM     28  C   UNL     1       3.481   4.101  10.097  0.00  0.00    +0.027 C 
ATOM     29  C   UNL     1       1.472   4.760  11.429  0.00  0.00    +0.027 C 
ENDBRANCH  25  27
ENDBRANCH  22  23
ENDBRANCH  19  22
ENDBRANCH  18  19
ENDBRANCH   2  18
TORSDOF 6
