REMARK  Name = ZINC39657767
REMARK  8 active torsions:
REMARK  status: ('A' for Active; 'I' for Inactive)
REMARK    1  A    between atoms: C_4  and  S_31
REMARK    2  A    between atoms: C_5  and  C_7
REMARK    3  A    between atoms: C_7  and  N_8
REMARK    4  A    between atoms: C_9  and  C_11
REMARK    5  A    between atoms: C_22  and  C_24
REMARK    6  A    between atoms: S_31  and  C_32
REMARK    7  A    between atoms: C_37  and  C_38
REMARK    8  A    between atoms: C_38  and  O_39
REMARK                            x       y       z     vdW  Elec       q    Type
REMARK                         _______ _______ _______ _____ _____    ______ ____
ROOT
ATOM      1  N   UNL     1       0.162  -3.964   1.115  0.00  0.00    -0.311 N 
ATOM      2  C   UNL     1       1.480  -4.044   1.389  0.00  0.00    +0.218 C 
ATOM      3  O   UNL     1       2.294  -3.837   0.515  0.00  0.00    -0.275 OA
ATOM      4  H   UNL     1      -0.489  -4.130   1.815  0.00  0.00    +0.149 HD
ENDROOT
BRANCH   2   5
ATOM      5  C   UNL     1       1.940  -4.390   2.782  0.00  0.00    +0.100 C 
ATOM      6  C   UNL     1       3.303  -3.724   3.079  0.00  0.00    +0.121 C 
ATOM      7  N   UNL     1       4.042  -4.726   3.882  0.00  0.00    -0.300 N 
ATOM      8  C   UNL     1       3.699  -6.026   3.256  0.00  0.00    +0.115 C 
ATOM      9  C   UNL     1       2.204  -5.900   2.899  0.00  0.00    -0.004 C 
ATOM     10  C   UNL     1       1.921  -6.591   1.568  0.00  0.00    -0.010 C 
ATOM     11  C   UNL     1       2.135  -8.099   1.725  0.00  0.00    -0.082 C 
ATOM     12  N   UNL     1       1.240  -8.616   2.768  0.00  0.00    +0.379 N 
ATOM     13  C   UNL     1       1.581  -8.015   4.063  0.00  0.00    -0.082 C 
ATOM     14  C   UNL     1       1.344  -6.503   4.005  0.00  0.00    -0.010 C 
ATOM     15  C   UNL     1       4.844  -4.506   4.943  0.00  0.00    +0.219 C 
ATOM     16  O   UNL     1       4.960  -3.386   5.393  0.00  0.00    -0.275 OA
ATOM     17  H   UNL     1       0.285  -8.387   2.533  0.00  0.00    -0.086 HD
ATOM     18  H   UNL     1       1.339  -9.618   2.827  0.00  0.00    -0.086 HD
BRANCH  15  19
ATOM     19  C   UNL     1       5.597  -5.652   5.569  0.00  0.00    +0.079 C 
ATOM     20  C   UNL     1       6.485  -5.126   6.703  0.00  0.00    +0.017 C 
ATOM     21  C   UNL     1       7.097  -6.324   7.433  0.00  0.00    +0.027 C 
ATOM     22  C   UNL     1       7.705  -7.276   6.445  0.00  0.00    -0.031 C 
ATOM     23  C   UNL     1       7.438  -7.274   5.178  0.00  0.00    -0.030 C 
ATOM     24  C   UNL     1       6.489  -6.316   4.518  0.00  0.00    +0.039 C 
ENDBRANCH  15  19
ENDBRANCH   2   5
BRANCH   1  25
ATOM     25  C   UNL     1      -0.285  -3.628  -0.238  0.00  0.00    +0.140 C 
BRANCH  25  30
ATOM     26  C   UNL     1      -3.869  -4.667  -0.816  0.00  0.00    +0.000 A 
ATOM     27  C   UNL     1      -4.561  -3.562  -0.352  0.00  0.00    +0.001 A 
ATOM     28  C   UNL     1      -3.872  -2.476   0.150  0.00  0.00    +0.015 A 
ATOM     29  C   UNL     1      -2.483  -2.493   0.189  0.00  0.00    +0.017 A 
ATOM     30  C   UNL     1      -1.792  -3.605  -0.278  0.00  0.00    -0.017 A 
ATOM     31  C   UNL     1      -2.487  -4.688  -0.779  0.00  0.00    +0.006 A 
BRANCH  29  32
ATOM     32  S   UNL     1      -1.600  -1.109   0.828  0.00  0.00    -0.089 S 
BRANCH  32  33
ATOM     33  C   UNL     1      -2.852   0.093   1.130  0.00  0.00    +0.018 A 
ATOM     34  C   UNL     1      -3.299   0.323   2.426  0.00  0.00    +0.015 A 
ATOM     35  C   UNL     1      -4.280   1.266   2.659  0.00  0.00    +0.001 A 
ATOM     36  C   UNL     1      -4.819   1.981   1.605  0.00  0.00    +0.000 A 
ATOM     37  C   UNL     1      -4.377   1.755   0.315  0.00  0.00    +0.007 A 
ATOM     38  C   UNL     1      -3.392   0.818   0.074  0.00  0.00    -0.008 A 
BRANCH  38  39
ATOM     39  C   UNL     1      -2.906   0.576  -1.332  0.00  0.00    +0.192 C 
BRANCH  39  40
ATOM     40  O   UNL     1      -3.608   1.436  -2.232  0.00  0.00    -0.390 OA
ATOM     41  H   UNL     1      -3.346   1.335  -3.157  0.00  0.00    +0.210 HD
ENDBRANCH  39  40
ENDBRANCH  38  39
ENDBRANCH  32  33
ENDBRANCH  29  32
ENDBRANCH  25  30
ENDBRANCH   1  25
TORSDOF 8
