REMARK  Name = ZINC13349881
REMARK  4 active torsions:
REMARK  status: ('A' for Active; 'I' for Inactive)
REMARK    1  A    between atoms: C_12  and  N_14
REMARK    2  A    between atoms: N_14  and  S_15
REMARK    3  A    between atoms: S_15  and  C_18
REMARK    4  A    between atoms: C_22  and  C_24
REMARK                            x       y       z     vdW  Elec       q    Type
REMARK                         _______ _______ _______ _____ _____    ______ ____
ROOT
ATOM      1  N   UNL     1      -1.196  -0.719   0.009  0.00  0.00    -0.216 N 
ATOM      2  H   UNL     1      -1.303  -1.481   0.600  0.00  0.00    +0.174 HD
ENDROOT
BRANCH   1  14
ATOM      3  C   UNL     1       6.521   2.358  -0.049  0.00  0.00    +0.000 A 
ATOM      4  C   UNL     1       5.651   3.434  -0.035  0.00  0.00    +0.001 A 
ATOM      5  C   UNL     1       4.287   3.225  -0.022  0.00  0.00    +0.009 A 
ATOM      6  C   UNL     1       3.781   1.924  -0.024  0.00  0.00    -0.014 A 
ATOM      7  C   UNL     1       4.665   0.848  -0.038  0.00  0.00    -0.035 A 
ATOM      8  C   UNL     1       6.026   1.066  -0.050  0.00  0.00    +0.004 A 
ATOM      9  C   UNL     1       3.842  -0.417  -0.037  0.00  0.00    +0.071 C 
ATOM     10  C   UNL     1       2.399   0.025  -0.021  0.00  0.00    -0.034 A 
ATOM     11  C   UNL     1       2.387   1.418  -0.013  0.00  0.00    -0.014 A 
ATOM     12  C   UNL     1       1.164   2.095   0.002  0.00  0.00    +0.010 A 
ATOM     13  C   UNL     1      -0.017   1.386   0.010  0.00  0.00    +0.025 A 
ATOM     14  C   UNL     1       0.002  -0.004   0.002  0.00  0.00    +0.048 A 
ATOM     15  C   UNL     1       1.216  -0.681  -0.013  0.00  0.00    +0.029 A 
ENDBRANCH   1  14
BRANCH   1  16
ATOM     16  S   UNL     1      -2.436  -0.267  -0.991  0.00  0.00    +0.072 S 
ATOM     17  O   UNL     1      -3.492  -1.192  -0.773  0.00  0.00    -0.150 OA
ATOM     18  O   UNL     1      -2.604   1.134  -0.822  0.00  0.00    -0.150 OA
BRANCH  16  19
ATOM     19  C   UNL     1      -1.886  -0.512  -2.647  0.00  0.00    +0.109 A 
ATOM     20  C   UNL     1      -1.247   0.514  -3.321  0.00  0.00    +0.030 A 
ATOM     21  C   UNL     1      -0.807   0.329  -4.619  0.00  0.00    +0.018 A 
ATOM     22  C   UNL     1      -1.012  -0.880  -5.255  0.00  0.00    +0.032 A 
ATOM     23  C   UNL     1      -1.661  -1.918  -4.582  0.00  0.00    +0.079 A 
ATOM     24  C   UNL     1      -2.097  -1.724  -3.269  0.00  0.00    +0.045 A 
ATOM     25 BR   UNL     1      -0.415  -1.129  -7.032  0.00  0.00    -0.049 Br
BRANCH  23  26
ATOM     26  C   UNL     1      -1.883  -3.213  -5.254  0.00  0.00    +0.388 C 
ATOM     27  O   UNL     1      -1.502  -3.378  -6.396  0.00  0.00    -0.241 OA
ATOM     28  O   UNL     1      -2.509  -4.212  -4.602  0.00  0.00    -0.241 OA
ENDBRANCH  23  26
ENDBRANCH  16  19
ENDBRANCH   1  16
TORSDOF 4
