REMARK  Name = ZINC37863307
REMARK  10 active torsions:
REMARK  status: ('A' for Active; 'I' for Inactive)
REMARK    1  A    between atoms: C_1  and  C_2
REMARK    2  A    between atoms: C_4  and  C_24
REMARK    3  A    between atoms: C_6  and  O_8
REMARK    4  A    between atoms: O_8  and  C_9
REMARK    5  A    between atoms: C_9  and  C_10
REMARK    6  A    between atoms: C_10  and  C_12
REMARK    7  A    between atoms: C_10  and  O_23
REMARK    8  A    between atoms: C_12  and  N_13
REMARK    9  A    between atoms: N_13  and  C_14
REMARK   10  A    between atoms: C_19  and  C_22
REMARK                            x       y       z     vdW  Elec       q    Type
REMARK                         _______ _______ _______ _____ _____    ______ ____
ROOT
ATOM      1  C   UNL     1       0.065  -2.946   4.769  0.00  0.00    +0.135 C 
ENDROOT
BRANCH   1   2
ATOM      2  O   UNL     1       1.296  -3.671   4.789  0.00  0.00    -0.390 OA
ATOM      3  H   UNL     1       2.081  -3.111   4.852  0.00  0.00    +0.210 HD
ENDBRANCH   1   2
BRANCH   1   4
ATOM      4  C   UNL     1       0.046  -2.005   3.563  0.00  0.00    +0.258 C 
BRANCH   4   5
ATOM      5  O   UNL     1       0.051  -2.775   2.359  0.00  0.00    -0.489 OA
BRANCH   5  11
ATOM      6  C   UNL     1      -0.018   1.503   0.010  0.00  0.00    +0.044 C 
ATOM      7  C   UNL     1       0.002  -0.004   0.002  0.00  0.00    -0.047 A 
ATOM      8  C   UNL     1       0.006  -0.688  -1.200  0.00  0.00    +0.007 A 
ATOM      9  C   UNL     1       0.025  -2.071  -1.210  0.00  0.00    -0.047 A 
ATOM     10  C   UNL     1       0.040  -2.772  -0.020  0.00  0.00    +0.049 A 
ATOM     11  C   UNL     1       0.036  -2.088   1.187  0.00  0.00    +0.121 A 
ATOM     12  C   UNL     1       0.023  -0.701   1.195  0.00  0.00    +0.049 A 
ATOM     13  C   UNL     1       0.029  -2.813  -2.522  0.00  0.00    +0.044 C 
ENDBRANCH   5  11
ENDBRANCH   4   5
ENDBRANCH   1   4
BRANCH   1  14
ATOM     14  C   UNL     1      -0.066  -2.127   6.056  0.00  0.00    -0.047 C 
BRANCH  14  15
ATOM     15  N   UNL     1      -0.049  -3.030   7.214  0.00  0.00    +0.383 N 
ATOM     16  H   UNL     1      -0.819  -3.678   7.148  0.00  0.00    -0.085 HD
ATOM     17  H   UNL     1       0.821  -3.542   7.228  0.00  0.00    -0.085 HD
BRANCH  15  18
ATOM     18  C   UNL     1      -0.174  -2.244   8.449  0.00  0.00    -0.071 C 
ATOM     19  C   UNL     1      -1.545  -1.567   8.485  0.00  0.00    -0.016 C 
ATOM     20  C   UNL     1      -1.676  -0.748   9.771  0.00  0.00    -0.001 C 
ATOM     21  C   UNL     1      -1.533  -1.674  10.981  0.00  0.00    +0.003 C 
ATOM     22  C   UNL     1      -0.162  -2.352  10.945  0.00  0.00    -0.016 C 
ATOM     23  C   UNL     1      -0.031  -3.170   9.659  0.00  0.00    -0.013 C 
ATOM     24  C   UNL     1       0.935  -1.286  10.986  0.00  0.00    +0.007 C 
ENDBRANCH  15  18
ENDBRANCH  14  15
ENDBRANCH   1  14
TORSDOF 7
