REMARK  Name = ZINC67271407
REMARK  7 active torsions:
REMARK  status: ('A' for Active; 'I' for Inactive)
REMARK    1  A    between atoms: C_1  and  C_2
REMARK    2  A    between atoms: N_5  and  C_8
REMARK    3  A    between atoms: C_8  and  C_10
REMARK    4  A    between atoms: C_8  and  C_11
REMARK    5  A    between atoms: C_11  and  N_12
REMARK    6  A    between atoms: C_13  and  C_15
REMARK    7  A    between atoms: C_19  and  C_25
REMARK                            x       y       z     vdW  Elec       q    Type
REMARK                         _______ _______ _______ _____ _____    ______ ____
ROOT
ATOM      1  N   UNL     1       1.401  -3.769   2.567  0.00  0.00    -0.315 N 
ATOM      2  C   UNL     1       2.344  -4.097   3.472  0.00  0.00    +0.234 C 
ATOM      3  O   UNL     1       2.100  -4.917   4.332  0.00  0.00    -0.274 OA
ATOM      4  H   UNL     1       1.597  -3.113   1.879  0.00  0.00    +0.149 HD
ENDROOT
BRANCH   2   5
ATOM      5  C   UNL     1       3.702  -3.445   3.417  0.00  0.00    +0.173 C 
ATOM      6  C   UNL     1       4.324  -3.730   2.029  0.00  0.00    +0.103 C 
ATOM      7  S   UNL     1       6.055  -4.152   2.526  0.00  0.00    -0.133 S 
ATOM      8  C   UNL     1       5.615  -4.819   4.184  0.00  0.00    +0.082 C 
ATOM      9  N   UNL     1       4.492  -3.924   4.555  0.00  0.00    -0.275 N 
ATOM     10  C   UNL     1       4.537  -3.753   5.904  0.00  0.00    +0.217 C 
ATOM     11  O   UNL     1       3.630  -3.305   6.574  0.00  0.00    -0.276 OA
ATOM     12  C   UNL     1       5.873  -4.200   6.450  0.00  0.00    +0.099 C 
ATOM     13  C   UNL     1       6.722  -4.491   5.199  0.00  0.00    +0.046 C 
ATOM     14  C   UNL     1       5.247  -6.304   4.157  0.00  0.00    +0.044 C 
ENDBRANCH   2   5
BRANCH   1  15
ATOM     15  C   UNL     1       0.082  -4.402   2.621  0.00  0.00    +0.089 C 
BRANCH  15  16
ATOM     16  C   UNL     1      -0.753  -3.945   1.423  0.00  0.00    -0.054 C 
ATOM     17  C   UNL     1      -2.159  -4.540   1.525  0.00  0.00    -0.012 C 
BRANCH  16  22
ATOM     18  C   UNL     1      -2.251   1.558   1.371  0.00  0.00    +0.007 C 
ATOM     19  C   UNL     1      -2.293   0.028   1.371  0.00  0.00    -0.018 C 
ATOM     20  C   UNL     1      -1.621  -0.503   2.641  0.00  0.00    -0.016 C 
ATOM     21  C   UNL     1      -1.596  -2.032   2.597  0.00  0.00    -0.078 C 
ATOM     22  N   UNL     1      -0.842  -2.478   1.419  0.00  0.00    +0.382 N 
ATOM     23  C   UNL     1      -1.519  -2.034   0.196  0.00  0.00    -0.078 C 
ATOM     24  C   UNL     1      -1.541  -0.504   0.147  0.00  0.00    -0.016 C 
ATOM     25  H   UNL     1       0.088  -2.088   1.449  0.00  0.00    -0.081 HD
ENDBRANCH  16  22
ENDBRANCH  15  16
ENDBRANCH   1  15
TORSDOF 4
