REMARK  Name = ZINC03275343
REMARK  9 active torsions:
REMARK  status: ('A' for Active; 'I' for Inactive)
REMARK    1  A    between atoms: C_4  and  C_7
REMARK    2  A    between atoms: C_8  and  C_18
REMARK    3  A    between atoms: N_10  and  C_12
REMARK    4  A    between atoms: N_19  and  N_20
REMARK    5  A    between atoms: N_20  and  C_21
REMARK    6  A    between atoms: C_21  and  N_23
REMARK    7  A    between atoms: N_23  and  C_24
REMARK    8  A    between atoms: C_24  and  C_25
REMARK    9  A    between atoms: C_25  and  N_57
REMARK                            x       y       z     vdW  Elec       q    Type
REMARK                         _______ _______ _______ _____ _____    ______ ____
ROOT
ATOM      1  C   UNL     1      -0.473  -2.251   0.436  0.00  0.00    +0.102 A 
ATOM      2  C   UNL     1      -0.964  -0.885   0.635  0.00  0.00    +0.040 A 
ATOM      3  C   UNL     1      -0.062  -0.053   0.032  0.00  0.00    +0.124 A 
ATOM      4  N   UNL     1       0.915  -0.814  -0.504  0.00  0.00    -0.239 N 
ATOM      5  N   UNL     1       0.651  -2.162  -0.243  0.00  0.00    -0.166 NA
ENDROOT
BRANCH   1   9
ATOM      6  C   UNL     1      -2.323  -5.825   1.806  0.00  0.00    +0.000 A 
ATOM      7  C   UNL     1      -1.761  -5.780   0.543  0.00  0.00    +0.001 A 
ATOM      8  C   UNL     1      -1.159  -4.623   0.093  0.00  0.00    +0.010 A 
ATOM      9  C   UNL     1      -1.118  -3.497   0.914  0.00  0.00    +0.003 A 
ATOM     10  C   UNL     1      -1.681  -3.550   2.188  0.00  0.00    +0.010 A 
ATOM     11  C   UNL     1      -2.285  -4.711   2.626  0.00  0.00    +0.001 A 
ENDBRANCH   1   9
BRANCH   4  12
ATOM     12  C   UNL     1       2.025  -0.330  -1.208  0.00  0.00    +0.065 A 
ATOM     13  C   UNL     1       2.181   1.036  -1.405  0.00  0.00    +0.028 A 
ATOM     14  C   UNL     1       3.280   1.511  -2.095  0.00  0.00    +0.002 A 
ATOM     15  C   UNL     1       4.217   0.628  -2.598  0.00  0.00    +0.000 A 
ATOM     16  C   UNL     1       4.061  -0.733  -2.408  0.00  0.00    +0.002 A 
ATOM     17  C   UNL     1       2.968  -1.214  -1.714  0.00  0.00    +0.028 A 
ENDBRANCH   4  12
BRANCH   2  18
ATOM     18  C   UNL     1      -2.191  -0.485   1.347  0.00  0.00    +0.142 C 
ATOM     19  N   UNL     1      -2.553   0.761   1.367  0.00  0.00    -0.188 NA
BRANCH  19  20
ATOM     20  N   UNL     1      -3.659   1.158   2.130  0.00  0.00    -0.218 N 
ATOM     21  H   UNL     1      -4.198   0.492   2.585  0.00  0.00    +0.176 HD
BRANCH  20  22
ATOM     22  C   UNL     1      -3.975   2.464   2.231  0.00  0.00    +0.150 C 
ATOM     23  S   UNL     1      -5.245   2.960   3.266  0.00  0.00    -0.017 S 
BRANCH  22  24
ATOM     24  N   UNL     1      -3.291   3.380   1.517  0.00  0.00    -0.327 N 
ATOM     25  H   UNL     1      -2.622   3.094   0.875  0.00  0.00    +0.148 HD
BRANCH  24  26
ATOM     26  C   UNL     1      -3.557   4.808   1.710  0.00  0.00    +0.085 C 
BRANCH  26  27
ATOM     27  C   UNL     1      -2.742   5.620   0.702  0.00  0.00    -0.060 C 
BRANCH  27  33
ATOM     28  C   UNL     1      -4.292   7.481   0.726  0.00  0.00    -0.050 C 
ATOM     29  C   UNL     1      -4.435   8.963   1.083  0.00  0.00    +0.141 C 
ATOM     30  O   UNL     1      -3.487   9.723   0.329  0.00  0.00    -0.383 OA
ATOM     31  C   UNL     1      -2.129   9.333   0.552  0.00  0.00    +0.141 C 
ATOM     32  C   UNL     1      -1.962   7.855   0.190  0.00  0.00    -0.050 C 
ATOM     33  N   UNL     1      -2.904   7.058   1.005  0.00  0.00    +0.384 N 
ATOM     34  H   UNL     1      -2.700   7.215   1.999  0.00  0.00    -0.082 HD
ENDBRANCH  27  33
ENDBRANCH  26  27
ENDBRANCH  24  26
ENDBRANCH  22  24
ENDBRANCH  20  22
ENDBRANCH  19  20
ENDBRANCH   2  18
TORSDOF 9
