REMARK  Name = ZINC49870786
REMARK  5 active torsions:
REMARK  status: ('A' for Active; 'I' for Inactive)
REMARK    1  A    between atoms: C_1  and  C_2
REMARK    2  A    between atoms: C_3  and  C_19
REMARK    3  A    between atoms: C_9  and  C_12
REMARK    4  A    between atoms: C_15  and  C_17
REMARK    5  A    between atoms: C_17  and  N_18
REMARK                            x       y       z     vdW  Elec       q    Type
REMARK                         _______ _______ _______ _____ _____    ______ ____
ROOT
ATOM      1  C   UNL     1      -0.018   1.503   0.010  0.00  0.00    +0.065 C 
ATOM      2  C   UNL     1       0.002  -0.004   0.002  0.00  0.00    +0.035 A 
ATOM      3  C   UNL     1       0.005  -0.653  -1.162  0.00  0.00    +0.010 A 
ATOM      4  S   UNL     1       0.031  -2.358  -0.630  0.00  0.00    -0.056 S 
ATOM      5  C   UNL     1       0.035  -2.054   1.124  0.00  0.00    +0.158 A 
ATOM      6  N   UNL     1       0.023  -0.686   1.195  0.00  0.00    -0.260 N 
ATOM      7  C   UNL     1       0.027  -0.138   2.447  0.00  0.00    +0.271 A 
ATOM      8  O   UNL     1       0.011   1.074   2.584  0.00  0.00    -0.266 OA
ATOM      9  C   UNL     1       0.049  -0.977   3.578  0.00  0.00    +0.119 A 
ATOM     10  C   UNL     1       0.066  -2.361   3.404  0.00  0.00    +0.103 A 
ATOM     11  N   UNL     1       0.051  -2.846   2.169  0.00  0.00    -0.341 N 
ATOM     12  C   UNL     1      -0.009  -0.094  -2.562  0.00  0.00    +0.053 C 
ATOM     13  H   UNL     1       0.063  -3.807   2.037  0.00  0.00    +0.167 HD
ENDROOT
BRANCH   9  14
ATOM     14  C   UNL     1       0.054  -0.398   4.934  0.00  0.00    +0.255 A 
ATOM     15  N   UNL     1       0.035   0.881   5.236  0.00  0.00    -0.107 NA
ATOM     16  N   UNL     1       0.047   1.015   6.515  0.00  0.00    -0.114 NA
ATOM     17  C   UNL     1       0.075  -0.160   7.077  0.00  0.00    +0.201 A 
ATOM     18  O   UNL     1       0.075  -1.082   6.096  0.00  0.00    -0.422 OA
BRANCH  17  19
ATOM     19  C   UNL     1       0.098  -0.438   8.558  0.00  0.00    +0.013 C 
BRANCH  19  20
ATOM     20  N   UNL     1      -1.279  -0.554   9.055  0.00  0.00    +0.384 N 
ATOM     21  H   UNL     1      -1.773   0.309   8.882  0.00  0.00    -0.089 HD
ATOM     22  H   UNL     1      -1.746  -1.310   8.579  0.00  0.00    -0.089 HD
ATOM     23  H   UNL     1      -1.264  -0.740  10.047  0.00  0.00    -0.089 HD
ENDBRANCH  19  20
ENDBRANCH  17  19
ENDBRANCH   9  14
TORSDOF 3
