REMARK  Name = ZINC39666639
REMARK  8 active torsions:
REMARK  status: ('A' for Active; 'I' for Inactive)
REMARK    1  A    between atoms: C_1  and  C_2
REMARK    2  A    between atoms: C_6  and  C_7
REMARK    3  A    between atoms: C_11  and  C_20
REMARK    4  A    between atoms: N_22  and  C_23
REMARK    5  A    between atoms: C_23  and  C_24
REMARK    6  A    between atoms: C_24  and  C_26
REMARK    7  A    between atoms: C_24  and  O_27
REMARK    8  A    between atoms: O_27  and  C_28
REMARK                            x       y       z     vdW  Elec       q    Type
REMARK                         _______ _______ _______ _____ _____    ______ ____
ROOT
ATOM      1  C   UNL     1      -0.018  -0.266   2.596  0.00  0.00    +0.254 C 
ATOM      2  O   UNL     1       0.066   0.922   2.845  0.00  0.00    -0.269 OA
ATOM      3  N   UNL     1      -0.091  -1.162   3.601  0.00  0.00    -0.296 N 
ATOM      4  C   UNL     1      -0.074  -2.640   3.503  0.00  0.00    +0.121 C 
ATOM      5  C   UNL     1       0.785  -3.101   4.702  0.00  0.00    +0.100 C 
ATOM      6  C   UNL     1       0.692  -1.949   5.717  0.00  0.00    -0.004 C 
ATOM      7  C   UNL     1      -0.201  -0.890   5.054  0.00  0.00    +0.115 C 
ATOM      8  C   UNL     1       2.077  -1.369   5.987  0.00  0.00    -0.010 C 
ATOM      9  C   UNL     1       1.966  -0.264   7.041  0.00  0.00    -0.082 C 
ATOM     10  N   UNL     1       1.397  -0.818   8.275  0.00  0.00    +0.379 N 
ATOM     11  C   UNL     1       0.029  -1.290   8.028  0.00  0.00    -0.082 C 
ATOM     12  C   UNL     1       0.058  -2.438   7.016  0.00  0.00    -0.010 C 
ATOM     13  H   UNL     1       1.966  -1.590   8.589  0.00  0.00    -0.086 HD
ATOM     14  H   UNL     1       1.381  -0.104   8.987  0.00  0.00    -0.086 HD
ENDROOT
BRANCH   1  20
ATOM     15  C   UNL     1      -0.078   1.533   0.054  0.00  0.00    +0.045 C 
ATOM     16  C   UNL     1      -0.067   0.026   0.038  0.00  0.00    -0.031 A 
ATOM     17  C   UNL     1      -0.078  -0.692  -1.134  0.00  0.00    +0.011 A 
ATOM     18  C   UNL     1      -0.067  -2.047  -1.076  0.00  0.00    +0.046 A 
ATOM     19  S   UNL     1      -0.042  -2.389   0.568  0.00  0.00    -0.092 S 
ATOM     20  C   UNL     1      -0.040  -0.724   1.204  0.00  0.00    +0.077 A 
ENDBRANCH   1  20
BRANCH   5  21
ATOM     21  C   UNL     1       0.225  -4.370   5.292  0.00  0.00    +0.218 C 
ATOM     22  O   UNL     1      -0.951  -4.635   5.155  0.00  0.00    -0.275 OA
ATOM     23  N   UNL     1       1.030  -5.210   5.972  0.00  0.00    -0.312 N 
ATOM     24  H   UNL     1       1.970  -4.997   6.082  0.00  0.00    +0.149 HD
BRANCH  23  25
ATOM     25  C   UNL     1       0.486  -6.443   6.545  0.00  0.00    +0.148 C 
BRANCH  25  26
ATOM     26  C   UNL     1       1.601  -7.209   7.259  0.00  0.00    +0.187 C 
ATOM     27  C   UNL     1       1.062  -8.554   7.750  0.00  0.00    +0.053 C 
BRANCH  26  28
ATOM     28  O   UNL     1       2.065  -6.446   8.375  0.00  0.00    -0.486 OA
BRANCH  28  29
ATOM     29  C   UNL     1       3.333  -6.685   8.802  0.00  0.00    +0.139 A 
ATOM     30  C   UNL     1       4.149  -7.560   8.101  0.00  0.00    +0.047 A 
ATOM     31  C   UNL     1       5.437  -7.801   8.536  0.00  0.00    +0.004 A 
ATOM     32  C   UNL     1       5.915  -7.171   9.670  0.00  0.00    +0.002 A 
ATOM     33  C   UNL     1       5.104  -6.298  10.372  0.00  0.00    +0.023 A 
ATOM     34  C   UNL     1       3.816  -6.049   9.937  0.00  0.00    +0.083 A 
ATOM     35 CL   UNL     1       2.801  -4.947  10.814  0.00  0.00    -0.080 Cl
ENDBRANCH  28  29
ENDBRANCH  26  28
ENDBRANCH  25  26
ENDBRANCH  23  25
ENDBRANCH   5  21
TORSDOF 6
