REMARK  Name = ZINC63271396
REMARK  6 active torsions:
REMARK  status: ('A' for Active; 'I' for Inactive)
REMARK    1  A    between atoms: C_1  and  C_2
REMARK    2  A    between atoms: N_4  and  C_5
REMARK    3  A    between atoms: C_8  and  N_11
REMARK    4  A    between atoms: C_12  and  C_14
REMARK    5  A    between atoms: C_14  and  C_15
REMARK    6  A    between atoms: C_15  and  N_16
REMARK                            x       y       z     vdW  Elec       q    Type
REMARK                         _______ _______ _______ _____ _____    ______ ____
ROOT
ATOM      1  N   UNL     1       0.321 -10.539  -3.137  0.00  0.00    -0.299 N 
ATOM      2  C   UNL     1       0.444 -11.285  -4.253  0.00  0.00    +0.302 C 
ATOM      3  O   UNL     1       0.582 -10.745  -5.333  0.00  0.00    -0.253 OA
ATOM      4  N   UNL     1       0.414 -12.630  -4.170  0.00  0.00    -0.283 N 
ATOM      5  C   UNL     1       0.123 -13.271  -2.885  0.00  0.00    +0.114 C 
ATOM      6  C   UNL     1      -1.107 -14.184  -3.034  0.00  0.00    +0.052 C 
ATOM      7  C   UNL     1      -0.911 -14.971  -4.306  0.00  0.00    -0.036 C 
ATOM      8  C   UNL     1      -0.965 -16.275  -4.550  0.00  0.00    -0.001 A 
ATOM      9  C   UNL     1      -1.341 -17.415  -3.699  0.00  0.00    +0.010 A 
ATOM     10  C   UNL     1      -1.263 -18.644  -4.275  0.00  0.00    +0.001 A 
ATOM     11  C   UNL     1      -0.853 -18.850  -5.596  0.00  0.00    +0.002 A 
ATOM     12  C   UNL     1      -0.496 -17.859  -6.451  0.00  0.00    +0.026 A 
ATOM     13  C   UNL     1      -0.546 -16.521  -5.963  0.00  0.00    +0.043 A 
ATOM     14  N   UNL     1      -0.286 -15.397  -6.562  0.00  0.00    -0.376 N 
ATOM     15  C   UNL     1      -0.564 -14.302  -5.631  0.00  0.00    +0.124 C 
ATOM     16  C   UNL     1       0.669 -13.438  -5.373  0.00  0.00    +0.138 C 
ATOM     17  H   UNL     1       0.287 -10.967  -2.268  0.00  0.00    +0.150 HD
ATOM     18  H   UNL     1       0.037 -15.300  -7.472  0.00  0.00    +0.160 HD
ENDROOT
BRANCH   1  19
ATOM     19  C   UNL     1       0.237  -9.079  -3.238  0.00  0.00    +0.115 C 
BRANCH  19  20
ATOM     20  C   UNL     1       0.103  -8.479  -1.837  0.00  0.00    +0.115 C 
BRANCH  20  22
ATOM     21  N   UNL     1      -0.105  -6.231  -0.825  0.00  0.00    -0.285 N 
ATOM     22  C   UNL     1       0.018  -6.978  -1.940  0.00  0.00    +0.219 C 
ATOM     23  O   UNL     1       0.060  -6.441  -3.027  0.00  0.00    -0.275 OA
ATOM     24  H   UNL     1      -0.207  -6.662   0.038  0.00  0.00    +0.155 HD
BRANCH  21  28
ATOM     25  C   UNL     1      -0.049  -2.070  -1.084  0.00  0.00    +0.033 A 
ATOM     26  C   UNL     1       0.517  -2.705   0.014  0.00  0.00    +0.025 A 
ATOM     27  C   UNL     1       0.498  -4.082   0.100  0.00  0.00    +0.025 A 
ATOM     28  C   UNL     1      -0.087  -4.833  -0.912  0.00  0.00    +0.033 A 
ATOM     29  C   UNL     1      -0.652  -4.198  -2.009  0.00  0.00    +0.025 A 
ATOM     30  C   UNL     1      -0.638  -2.820  -2.093  0.00  0.00    +0.025 A 
BRANCH  25  34
ATOM     31  C   UNL     1      -1.097   1.490  -1.725  0.00  0.00    +0.109 C 
ATOM     32  C   UNL     1      -1.069  -0.017  -1.726  0.00  0.00    +0.214 C 
ATOM     33  O   UNL     1      -1.982  -0.640  -2.226  0.00  0.00    -0.276 OA
ATOM     34  N   UNL     1      -0.030  -0.672  -1.171  0.00  0.00    -0.286 N 
ATOM     35  H   UNL     1       0.731  -0.175  -0.832  0.00  0.00    +0.155 HD
ENDBRANCH  25  34
ENDBRANCH  21  28
ENDBRANCH  20  22
ENDBRANCH  19  20
ENDBRANCH   1  19
TORSDOF 5
