REMARK  Name = ZINC39722413
REMARK  6 active torsions:
REMARK  status: ('A' for Active; 'I' for Inactive)
REMARK    1  A    between atoms: C_2  and  C_3
REMARK    2  A    between atoms: C_3  and  N_4
REMARK    3  A    between atoms: C_5  and  S_17
REMARK    4  A    between atoms: S_17  and  C_18
REMARK    5  A    between atoms: C_18  and  C_19
REMARK    6  A    between atoms: C_27  and  C_31
REMARK                            x       y       z     vdW  Elec       q    Type
REMARK                         _______ _______ _______ _____ _____    ______ ____
ROOT
ATOM      1  S   UNL     1       0.545  -0.615   3.433  0.00  0.00    -0.111 S 
ENDROOT
BRANCH   1   3
ATOM      2  N   UNL     1       1.367  -1.676   1.111  0.00  0.00    -0.266 N 
ATOM      3  C   UNL     1       1.903  -1.226   2.396  0.00  0.00    +0.223 C 
ATOM      4  N   UNL     1       2.575  -2.334   3.085  0.00  0.00    -0.317 N 
ATOM      5  C   UNL     1       1.965  -3.584   3.094  0.00  0.00    +0.043 A 
ATOM      6  C   UNL     1       2.160  -4.482   4.128  0.00  0.00    +0.043 A 
ATOM      7  C   UNL     1       1.545  -5.720   4.085  0.00  0.00    +0.043 A 
ATOM      8  C   UNL     1       0.736  -6.068   3.013  0.00  0.00    +0.021 A 
ATOM      9  C   UNL     1       0.527  -5.181   1.978  0.00  0.00    +0.016 A 
ATOM     10  C   UNL     1       1.134  -3.928   2.013  0.00  0.00    +0.058 A 
ATOM     11  C   UNL     1       0.914  -2.934   0.947  0.00  0.00    +0.251 C 
ATOM     12  O   UNL     1       0.333  -3.248  -0.074  0.00  0.00    -0.270 OA
ATOM     13 CL   UNL     1       1.788  -6.848   5.383  0.00  0.00    -0.083 Cl
ATOM     14  H   UNL     1       3.428  -2.197   3.525  0.00  0.00    +0.149 HD
BRANCH   2  15
ATOM     15  C   UNL     1       1.317  -0.740  -0.015  0.00  0.00    +0.137 C 
BRANCH  15  17
ATOM     16  C   UNL     1      -0.016   1.306   0.009  0.00  0.00    +0.005 C 
ATOM     17  C   UNL     1       0.002  -0.004   0.002  0.00  0.00    -0.016 C 
ENDBRANCH  15  17
ENDBRANCH   2  15
ENDBRANCH   1   3
BRANCH   1  18
ATOM     18  C   UNL     1      -0.549  -2.051   3.612  0.00  0.00    +0.146 C 
BRANCH  18  19
ATOM     19  C   UNL     1      -1.735  -1.675   4.463  0.00  0.00    +0.120 A 
ATOM     20  N   UNL     1      -2.672  -2.625   4.718  0.00  0.00    -0.310 N 
ATOM     21  H   UNL     1      -2.563  -3.517   4.353  0.00  0.00    +0.170 HD
ATOM     22  C   UNL     1      -3.755  -2.339   5.477  0.00  0.00    +0.259 A 
ATOM     23  O   UNL     1      -4.602  -3.180   5.714  0.00  0.00    -0.267 OA
ATOM     24  C   UNL     1      -3.869  -0.969   6.006  0.00  0.00    +0.065 A 
ATOM     25  C   UNL     1      -4.946  -0.575   6.798  0.00  0.00    +0.016 A 
ATOM     26  C   UNL     1      -5.012   0.706   7.269  0.00  0.00    +0.016 A 
ATOM     27  C   UNL     1      -4.005   1.630   6.962  0.00  0.00    +0.065 A 
ATOM     28  C   UNL     1      -2.922   1.257   6.173  0.00  0.00    +0.043 A 
ATOM     29  C   UNL     1      -2.845  -0.050   5.688  0.00  0.00    +0.079 A 
ATOM     30  N   UNL     1      -1.806  -0.462   4.919  0.00  0.00    -0.233 NA
BRANCH  27  31
ATOM     31  C   UNL     1      -4.094   3.011   7.481  0.00  0.00    +0.387 C 
ATOM     32  O   UNL     1      -5.044   3.344   8.174  0.00  0.00    -0.241 OA
ATOM     33  O   UNL     1      -3.218   3.821   7.216  0.00  0.00    -0.241 OA
ENDBRANCH  27  31
ENDBRANCH  18  19
ENDBRANCH   1  18
TORSDOF 6
