REMARK  Name = ZINC40676054
REMARK  9 active torsions:
REMARK  status: ('A' for Active; 'I' for Inactive)
REMARK    1  A    between atoms: C_3  and  N_20
REMARK    2  A    between atoms: C_6  and  C_7
REMARK    3  A    between atoms: C_7  and  C_8
REMARK    4  A    between atoms: C_8  and  N_9
REMARK    5  A    between atoms: N_9  and  C_10
REMARK    6  A    between atoms: C_10  and  C_11
REMARK    7  A    between atoms: C_11  and  C_13
REMARK    8  A    between atoms: C_11  and  O_19
REMARK    9  A    between atoms: C_13  and  N_14
REMARK                            x       y       z     vdW  Elec       q    Type
REMARK                         _______ _______ _______ _____ _____    ______ ____
ROOT
ATOM      1  N   UNL     1      -3.007  -1.780  -1.421  0.00  0.00    +0.381 N 
ATOM      2  H   UNL     1      -2.869  -2.663  -0.952  0.00  0.00    -0.086 HD
ATOM      3  H   UNL     1      -3.712  -1.247  -0.936  0.00  0.00    -0.086 HD
ENDROOT
BRANCH   1   4
ATOM      4  C   UNL     1      -1.744  -1.028  -1.429  0.00  0.00    -0.078 C 
BRANCH   4   5
ATOM      5  C   UNL     1      -1.293  -0.775   0.010  0.00  0.00    +0.016 C 
BRANCH   5  11
ATOM      6  C   UNL     1      -0.017   1.378   0.010  0.00  0.00    +0.006 A 
ATOM      7  C   UNL     1       1.171   2.086   0.002  0.00  0.00    +0.033 A 
ATOM      8  C   UNL     1       2.377   1.411  -0.013  0.00  0.00    +0.126 A 
ATOM      9  C   UNL     1       2.396   0.029  -0.020  0.00  0.00    +0.033 A 
ATOM     10  C   UNL     1       1.208  -0.679  -0.012  0.00  0.00    +0.006 A 
ATOM     11  C   UNL     1       0.002  -0.004   0.002  0.00  0.00    -0.049 A 
BRANCH   8  12
ATOM     12  N   UNL     1       3.649   2.168  -0.022  0.00  0.00    +0.056 N 
ATOM     13  O   UNL     1       3.633   3.377  -0.016  0.00  0.00    -0.126 OA
ATOM     14  O   UNL     1       4.704   1.578  -0.035  0.00  0.00    -0.126 OA
ENDBRANCH   8  12
ENDBRANCH   5  11
ENDBRANCH   4   5
ENDBRANCH   1   4
BRANCH   1  15
ATOM     15  C   UNL     1      -3.440  -2.023  -2.804  0.00  0.00    -0.053 C 
BRANCH  15  16
ATOM     16  C   UNL     1      -4.755  -2.806  -2.796  0.00  0.00    +0.081 C 
BRANCH  16  17
ATOM     17  O   UNL     1      -5.784  -2.004  -2.212  0.00  0.00    -0.395 OA
ATOM     18  H   UNL     1      -5.949  -1.174  -2.680  0.00  0.00    +0.210 HD
ENDBRANCH  16  17
BRANCH  16  19
ATOM     19  C   UNL     1      -5.142  -3.168  -4.231  0.00  0.00    -0.049 C 
BRANCH  19  20
ATOM     20  N   UNL     1      -6.404  -3.919  -4.223  0.00  0.00    +0.381 N 
ATOM     21  C   UNL     1      -7.525  -3.034  -3.814  0.00  0.00    -0.079 C 
ATOM     22  C   UNL     1      -8.772  -3.756  -4.384  0.00  0.00    -0.020 C 
ATOM     23  C   UNL     1      -8.264  -4.311  -5.734  0.00  0.00    -0.020 C 
ATOM     24  C   UNL     1      -6.732  -4.380  -5.590  0.00  0.00    -0.079 C 
ATOM     25  H   UNL     1      -6.336  -4.708  -3.597  0.00  0.00    -0.082 HD
ENDBRANCH  19  20
ENDBRANCH  16  19
ENDBRANCH  15  16
ENDBRANCH   1  15
TORSDOF 9
