REMARK  Name = ZINC44714290
REMARK  7 active torsions:
REMARK  status: ('A' for Active; 'I' for Inactive)
REMARK    1  A    between atoms: C_1  and  C_2
REMARK    2  A    between atoms: C_3  and  C_9
REMARK    3  A    between atoms: C_4  and  C_8
REMARK    4  A    between atoms: C_9  and  C_11
REMARK    5  A    between atoms: C_9  and  N_12
REMARK    6  A    between atoms: C_13  and  C_15
REMARK    7  A    between atoms: C_26  and  C_28
REMARK                            x       y       z     vdW  Elec       q    Type
REMARK                         _______ _______ _______ _____ _____    ______ ____
ROOT
ATOM      1  C   UNL     1       2.526  -1.339  -5.217  0.00  0.00    +0.100 C 
ATOM      2  C   UNL     1       3.837  -1.497  -4.414  0.00  0.00    +0.121 C 
ATOM      3  N   UNL     1       4.913  -1.381  -5.427  0.00  0.00    -0.295 N 
ATOM      4  C   UNL     1       4.444  -0.312  -6.341  0.00  0.00    +0.115 C 
ATOM      5  C   UNL     1       2.929  -0.560  -6.480  0.00  0.00    -0.004 C 
ATOM      6  C   UNL     1       2.182   0.769  -6.543  0.00  0.00    -0.010 C 
ATOM      7  C   UNL     1       2.554   1.498  -7.837  0.00  0.00    -0.082 C 
ATOM      8  N   UNL     1       2.203   0.662  -8.991  0.00  0.00    +0.379 N 
ATOM      9  C   UNL     1       2.995  -0.574  -8.973  0.00  0.00    -0.082 C 
ATOM     10  C   UNL     1       2.642  -1.391  -7.727  0.00  0.00    -0.010 C 
ATOM     11  C   UNL     1       6.058  -2.088  -5.500  0.00  0.00    +0.265 C 
ATOM     12  O   UNL     1       6.885  -1.818  -6.348  0.00  0.00    -0.268 OA
ATOM     13  H   UNL     1       1.222   0.431  -8.951  0.00  0.00    -0.086 HD
ATOM     14  H   UNL     1       2.393   1.169  -9.842  0.00  0.00    -0.086 HD
ENDROOT
BRANCH  11  15
ATOM     15  C   UNL     1       6.309  -3.194  -4.545  0.00  0.00    +0.126 A 
ATOM     16  C   UNL     1       7.552  -3.845  -4.561  0.00  0.00    +0.033 A 
ATOM     17  C   UNL     1       7.795  -4.864  -3.687  0.00  0.00    +0.012 A 
ATOM     18  C   UNL     1       6.775  -5.231  -2.790  0.00  0.00    +0.000 A 
ATOM     19  C   UNL     1       6.957  -6.270  -1.863  0.00  0.00    +0.010 A 
ATOM     20  C   UNL     1       5.948  -6.596  -1.010  0.00  0.00    +0.001 A 
ATOM     21  C   UNL     1       4.733  -5.912  -1.042  0.00  0.00    +0.002 A 
ATOM     22  C   UNL     1       4.520  -4.900  -1.926  0.00  0.00    +0.028 A 
ATOM     23  C   UNL     1       5.540  -4.532  -2.825  0.00  0.00    +0.072 A 
ATOM     24  N   UNL     1       5.360  -3.541  -3.697  0.00  0.00    -0.242 NA
ENDBRANCH  11  15
BRANCH   1  26
ATOM     25  N   UNL     1       0.203  -0.653  -4.717  0.00  0.00    -0.308 N 
ATOM     26  C   UNL     1       1.514  -0.557  -4.419  0.00  0.00    +0.219 C 
ATOM     27  O   UNL     1       1.879   0.157  -3.510  0.00  0.00    -0.275 OA
ATOM     28  H   UNL     1      -0.089  -1.224  -5.444  0.00  0.00    +0.149 HD
BRANCH  25  29
ATOM     29  C   UNL     1      -0.781   0.107  -3.942  0.00  0.00    +0.104 C 
ATOM     30  C   UNL     1      -0.903   1.519  -4.517  0.00  0.00    +0.033 C 
BRANCH  29  33
ATOM     31  C   UNL     1      -2.717  -0.418  -1.541  0.00  0.00    +0.065 C 
ATOM     32  C   UNL     1      -2.956  -0.809  -2.977  0.00  0.00    +0.038 A 
ATOM     33  C   UNL     1      -2.119  -0.583  -4.015  0.00  0.00    +0.015 A 
ATOM     34  C   UNL     1      -2.715  -1.102  -5.169  0.00  0.00    +0.065 A 
ATOM     35  N   UNL     1      -3.869  -1.621  -4.836  0.00  0.00    -0.179 NA
ATOM     36  N   UNL     1      -4.041  -1.454  -3.456  0.00  0.00    -0.281 N 
ATOM     37  H   UNL     1      -4.806  -1.747  -2.936  0.00  0.00    +0.189 HD
ATOM     38  C   UNL     1      -2.130  -1.069  -6.558  0.00  0.00    +0.068 C 
ENDBRANCH  29  33
ENDBRANCH  25  29
ENDBRANCH   1  26
TORSDOF 4
