REMARK  Name = ZINC37163052
REMARK  8 active torsions:
REMARK  status: ('A' for Active; 'I' for Inactive)
REMARK    1  A    between atoms: C_1  and  C_2
REMARK    2  A    between atoms: C_4  and  C_8
REMARK    3  A    between atoms: C_5  and  C_7
REMARK    4  A    between atoms: C_8  and  C_10
REMARK    5  A    between atoms: C_8  and  N_11
REMARK    6  A    between atoms: N_11  and  C_12
REMARK    7  A    between atoms: C_15  and  O_21
REMARK    8  A    between atoms: C_17  and  N_18
REMARK                            x       y       z     vdW  Elec       q    Type
REMARK                         _______ _______ _______ _____ _____    ______ ____
ROOT
ATOM      1  N   UNL     1      -2.742  -3.062   0.565  0.00  0.00    -0.335 N 
ATOM      2  H   UNL     1      -3.027  -2.136   0.616  0.00  0.00    +0.147 HD
ENDROOT
BRANCH   1   3
ATOM      3  C   UNL     1      -3.549  -4.073   1.098  0.00  0.00    +0.058 A 
ATOM      4  C   UNL     1      -3.090  -5.383   1.130  0.00  0.00    +0.029 A 
ATOM      5  C   UNL     1      -3.887  -6.381   1.657  0.00  0.00    +0.047 A 
ATOM      6  C   UNL     1      -5.145  -6.074   2.154  0.00  0.00    +0.119 A 
ATOM      7  C   UNL     1      -5.604  -4.766   2.121  0.00  0.00    +0.080 A 
ATOM      8  C   UNL     1      -4.806  -3.766   1.600  0.00  0.00    +0.150 A 
BRANCH   8   9
ATOM      9  N   UNL     1      -5.294  -2.369   1.571  0.00  0.00    +0.058 N 
ATOM     10  O   UNL     1      -5.954  -1.940   2.489  0.00  0.00    -0.126 OA
ATOM     11  O   UNL     1      -5.033  -1.657   0.630  0.00  0.00    -0.126 OA
ENDBRANCH   8   9
BRANCH   6  12
ATOM     12  O   UNL     1      -5.929  -7.057   2.672  0.00  0.00    -0.507 OA
ATOM     13  H   UNL     1      -5.806  -7.199   3.621  0.00  0.00    +0.292 HD
ENDBRANCH   6  12
ENDBRANCH   1   3
BRANCH   1  14
ATOM     14  C   UNL     1      -1.467  -3.401  -0.072  0.00  0.00    +0.101 C 
ATOM     15  C   UNL     1      -1.711  -3.775  -1.535  0.00  0.00    +0.033 C 
BRANCH  14  19
ATOM     16  C   UNL     1       0.318   1.350   0.371  0.00  0.00    +0.086 C 
ATOM     17  C   UNL     1       0.222  -0.143   0.190  0.00  0.00    +0.103 A 
ATOM     18  C   UNL     1      -0.912  -0.866   0.200  0.00  0.00    +0.050 A 
ATOM     19  C   UNL     1      -0.540  -2.214  -0.005  0.00  0.00    +0.013 A 
ATOM     20  C   UNL     1       0.799  -2.235  -0.129  0.00  0.00    +0.107 A 
ATOM     21  O   UNL     1       1.255  -0.977  -0.016  0.00  0.00    -0.465 OA
ATOM     22  C   UNL     1       1.644  -3.461  -0.361  0.00  0.00    +0.086 C 
ENDBRANCH  14  19
ENDBRANCH   1  14
TORSDOF 5
