REMARK  Name = ZINC36039572
REMARK  8 active torsions:
REMARK  status: ('A' for Active; 'I' for Inactive)
REMARK    1  A    between atoms: C_1  and  C_2
REMARK    2  A    between atoms: C_2  and  N_3
REMARK    3  A    between atoms: N_3  and  C_4
REMARK    4  A    between atoms: C_4  and  C_5
REMARK    5  A    between atoms: C_5  and  N_7
REMARK    6  A    between atoms: C_10  and  C_21
REMARK    7  A    between atoms: N_12  and  C_13
REMARK    8  A    between atoms: C_16  and  C_20
REMARK                            x       y       z     vdW  Elec       q    Type
REMARK                         _______ _______ _______ _____ _____    ______ ____
ROOT
ATOM      1  N   UNL     1      -2.995  -3.812   0.010  0.00  0.00    -0.148 NA
ATOM      2  C   UNL     1      -4.245  -4.273   0.020  0.00  0.00    +0.205 A 
ATOM      3  N   UNL     1      -5.374  -3.518   0.029  0.00  0.00    -0.326 N 
ATOM      4  C   UNL     1      -6.464  -4.381   0.037  0.00  0.00    +0.066 A 
ATOM      5  C   UNL     1      -5.993  -5.641   0.033  0.00  0.00    +0.120 A 
ATOM      6  N   UNL     1      -4.614  -5.582   0.016  0.00  0.00    -0.287 N 
ATOM      7  H   UNL     1      -5.413  -2.549   0.029  0.00  0.00    +0.169 HD
ENDROOT
BRANCH   6   8
ATOM      8  C   UNL     1      -3.745  -6.681   0.002  0.00  0.00    +0.052 A 
ATOM      9  C   UNL     1      -2.371  -6.481  -0.004  0.00  0.00    +0.026 A 
ATOM     10  C   UNL     1      -1.516  -7.565  -0.018  0.00  0.00    +0.008 A 
ATOM     11  C   UNL     1      -2.026  -8.850  -0.027  0.00  0.00    -0.015 A 
ATOM     12  C   UNL     1      -3.395  -9.054  -0.021  0.00  0.00    +0.128 A 
ATOM     13  C   UNL     1      -4.256  -7.971  -0.000  0.00  0.00    +0.064 A 
ATOM     14  F   UNL     1      -3.891 -10.311  -0.029  0.00  0.00    -0.205 F 
ATOM     15  C   UNL     1      -1.089 -10.031  -0.042  0.00  0.00    +0.047 C 
ENDBRANCH   6   8
BRANCH   4  16
ATOM     16  C   UNL     1      -7.889  -3.984   0.048  0.00  0.00    -0.000 A 
ATOM     17  C   UNL     1      -8.887  -4.959   0.062  0.00  0.00    +0.010 A 
ATOM     18  C   UNL     1     -10.215  -4.582   0.073  0.00  0.00    +0.001 A 
ATOM     19  C   UNL     1     -10.556  -3.241   0.070  0.00  0.00    +0.000 A 
ATOM     20  C   UNL     1      -9.571  -2.270   0.056  0.00  0.00    +0.001 A 
ATOM     21  C   UNL     1      -8.240  -2.634   0.051  0.00  0.00    +0.010 A 
ENDBRANCH   4  16
BRANCH   1  22
ATOM     22  C   UNL     1      -2.770  -2.503   0.015  0.00  0.00    +0.222 C 
ATOM     23  O   UNL     1      -3.705  -1.725   0.028  0.00  0.00    -0.276 OA
BRANCH  22  24
ATOM     24  C   UNL     1      -1.356  -1.981   0.004  0.00  0.00    +0.017 C 
BRANCH  24  25
ATOM     25  N   UNL     1      -1.376  -0.512   0.012  0.00  0.00    +0.385 N 
ATOM     26  H   UNL     1      -1.848  -0.187   0.843  0.00  0.00    -0.085 HD
ATOM     27  H   UNL     1      -1.864  -0.178  -0.805  0.00  0.00    -0.085 HD
BRANCH  25  29
ATOM     28  C   UNL     1      -0.019   1.526   0.010  0.00  0.00    -0.017 C 
ATOM     29  C   UNL     1       0.002  -0.004   0.002  0.00  0.00    -0.085 C 
ENDBRANCH  25  29
ENDBRANCH  24  25
ENDBRANCH  22  24
ENDBRANCH   1  22
TORSDOF 6
