REMARK  Name = ZINC39709579
REMARK  4 active torsions:
REMARK  status: ('A' for Active; 'I' for Inactive)
REMARK    1  A    between atoms: C_4  and  C_7
REMARK    2  A    between atoms: C_11  and  S_14
REMARK    3  A    between atoms: S_14  and  C_15
REMARK    4  A    between atoms: C_15  and  C_16
REMARK                            x       y       z     vdW  Elec       q    Type
REMARK                         _______ _______ _______ _____ _____    ______ ____
ROOT
ATOM      1  S   UNL     1       5.626  -2.886   2.477  0.00  0.00    -0.108 S 
ENDROOT
BRANCH   1   5
ATOM      2  C   UNL     1       3.711  -0.707  -0.038  0.00  0.00    +0.234 C 
ATOM      3  N   UNL     1       3.553  -2.007  -0.730  0.00  0.00    -0.222 NA
ATOM      4  N   UNL     1       4.402  -2.922   0.052  0.00  0.00    -0.218 NA
ATOM      5  C   UNL     1       4.211  -2.425   1.440  0.00  0.00    +0.263 C 
ATOM      6  O   UNL     1       4.131  -0.990   1.306  0.00  0.00    -0.328 OA
ATOM      7  H   UNL     1       3.870  -1.948  -1.686  0.00  0.00    +0.144 HD
ATOM      8  H   UNL     1       4.084  -3.876  -0.038  0.00  0.00    +0.144 HD
BRANCH   2  12
ATOM      9  C   UNL     1      -0.017   1.378   0.010  0.00  0.00    +0.000 A 
ATOM     10  C   UNL     1       1.171   2.086   0.002  0.00  0.00    +0.000 A 
ATOM     11  C   UNL     1       2.377   1.411  -0.013  0.00  0.00    +0.007 A 
ATOM     12  C   UNL     1       2.396   0.029  -0.020  0.00  0.00    -0.003 A 
ATOM     13  C   UNL     1       1.208  -0.679  -0.012  0.00  0.00    +0.007 A 
ATOM     14  C   UNL     1       0.002  -0.004   0.002  0.00  0.00    +0.000 A 
ENDBRANCH   2  12
ENDBRANCH   1   5
BRANCH   1  15
ATOM     15  C   UNL     1       7.041  -2.091   1.668  0.00  0.00    +0.104 C 
BRANCH  15  16
ATOM     16  C   UNL     1       8.298  -2.398   2.439  0.00  0.00    -0.042 C 
ATOM     17  C   UNL     1       9.112  -3.434   2.087  0.00  0.00    -0.003 A 
ATOM     18  C   UNL     1       8.789  -4.286   0.942  0.00  0.00    +0.010 A 
ATOM     19  C   UNL     1       9.629  -5.306   0.628  0.00  0.00    +0.001 A 
ATOM     20  C   UNL     1      10.783  -5.553   1.373  0.00  0.00    +0.002 A 
ATOM     21  C   UNL     1      11.137  -4.799   2.446  0.00  0.00    +0.024 A 
ATOM     22  C   UNL     1      10.337  -3.717   2.855  0.00  0.00    +0.041 A 
ATOM     23  N   UNL     1      10.695  -2.984   3.909  0.00  0.00    -0.285 N 
ATOM     24  C   UNL     1       9.989  -1.955   4.347  0.00  0.00    +0.221 C 
ATOM     25  O   UNL     1      10.367  -1.323   5.315  0.00  0.00    -0.275 OA
ATOM     26  C   UNL     1       8.714  -1.563   3.635  0.00  0.00    +0.128 C 
ATOM     27  H   UNL     1      11.512  -3.217   4.377  0.00  0.00    +0.155 HD
ENDBRANCH  15  16
ENDBRANCH   1  15
TORSDOF 4
