REMARK  Name = ZINC46950509
REMARK  12 active torsions:
REMARK  status: ('A' for Active; 'I' for Inactive)
REMARK    1  A    between atoms: C_1  and  C_2
REMARK    2  A    between atoms: C_2  and  C_3
REMARK    3  A    between atoms: C_3  and  C_4
REMARK    4  A    between atoms: C_3  and  C_6
REMARK    5  A    between atoms: C_3  and  N_24
REMARK    6  A    between atoms: C_4  and  C_5
REMARK    7  A    between atoms: C_6  and  N_7
REMARK    8  A    between atoms: N_10  and  N_11
REMARK    9  A    between atoms: C_12  and  C_14
REMARK   10  A    between atoms: C_15  and  C_23
REMARK   11  A    between atoms: N_24  and  C_25
REMARK   12  A    between atoms: N_24  and  C_26
REMARK                            x       y       z     vdW  Elec       q    Type
REMARK                         _______ _______ _______ _____ _____    ______ ____
ROOT
ATOM      1  N   UNL     1       1.162  -2.144   2.613  0.00  0.00    -0.300 N 
ATOM      2  C   UNL     1       1.244  -3.475   2.807  0.00  0.00    +0.316 C 
ATOM      3  O   UNL     1       0.842  -4.240   1.952  0.00  0.00    -0.251 OA
ATOM      4  N   UNL     1       1.772  -3.959   3.949  0.00  0.00    -0.218 N 
ATOM      5  H   UNL     1       1.483  -1.534   3.295  0.00  0.00    +0.150 HD
ATOM      6  H   UNL     1       1.831  -4.917   4.088  0.00  0.00    +0.174 HD
ENDROOT
BRANCH   4   7
ATOM      7  N   UNL     1       2.236  -3.077   4.934  0.00  0.00    -0.227 N 
ATOM      8  C   UNL     1       2.763  -3.561   6.076  0.00  0.00    +0.296 C 
ATOM      9  O   UNL     1       2.837  -4.762   6.251  0.00  0.00    -0.265 OA
ATOM     10  H   UNL     1       2.176  -2.119   4.795  0.00  0.00    +0.173 HD
BRANCH   8  11
ATOM     11  C   UNL     1       3.250  -2.636   7.110  0.00  0.00    +0.195 A 
ATOM     12  C   UNL     1       3.803  -3.008   8.293  0.00  0.00    +0.008 A 
ATOM     13  C   UNL     1       4.134  -1.767   8.993  0.00  0.00    +0.024 A 
ATOM     14  C   UNL     1       4.713  -1.471  10.230  0.00  0.00    +0.012 A 
ATOM     15  C   UNL     1       4.889  -0.168  10.601  0.00  0.00    +0.001 A 
ATOM     16  C   UNL     1       4.496   0.863   9.757  0.00  0.00    +0.004 A 
ATOM     17  C   UNL     1       3.922   0.592   8.534  0.00  0.00    +0.047 A 
ATOM     18  C   UNL     1       3.733  -0.726   8.135  0.00  0.00    +0.136 A 
ATOM     19  O   UNL     1       3.219  -1.290   7.025  0.00  0.00    -0.450 OA
ATOM     20  C   UNL     1       4.031  -4.414   8.785  0.00  0.00    +0.048 C 
ENDBRANCH   8  11
ENDBRANCH   4   7
BRANCH   1  21
ATOM     21  C   UNL     1       0.588  -1.619   1.371  0.00  0.00    +0.094 C 
BRANCH  21  22
ATOM     22  C   UNL     1       0.757  -0.099   1.335  0.00  0.00    -0.051 C 
BRANCH  22  23
ATOM     23  N   UNL     1       0.056   0.444   0.164  0.00  0.00    +0.381 N 
ATOM     24  C   UNL     1       0.537  -0.228  -1.050  0.00  0.00    -0.096 C 
ATOM     25  C   UNL     1      -1.388   0.216   0.309  0.00  0.00    -0.096 C 
ATOM     26  H   UNL     1       0.234   1.435   0.094  0.00  0.00    -0.082 HD
ENDBRANCH  22  23
BRANCH  22  28
ATOM     27  C   UNL     1       0.226   2.037   2.518  0.00  0.00    +0.002 C 
ATOM     28  C   UNL     1       0.170   0.511   2.609  0.00  0.00    -0.014 C 
ENDBRANCH  22  28
BRANCH  22  29
ATOM     29  C   UNL     1       2.245   0.247   1.243  0.00  0.00    -0.014 C 
ATOM     30  C   UNL     1       2.951  -0.192   2.528  0.00  0.00    +0.002 C 
ENDBRANCH  22  29
ENDBRANCH  21  22
ENDBRANCH   1  21
TORSDOF 7
