REMARK  Name = ZINC40468289
REMARK  10 active torsions:
REMARK  status: ('A' for Active; 'I' for Inactive)
REMARK    1  A    between atoms: C_1  and  C_2
REMARK    2  A    between atoms: C_2  and  C_3
REMARK    3  A    between atoms: C_2  and  C_4
REMARK    4  A    between atoms: C_2  and  C_5
REMARK    5  A    between atoms: C_5  and  C_7
REMARK    6  A    between atoms: C_5  and  N_22
REMARK    7  A    between atoms: N_13  and  C_16
REMARK    8  A    between atoms: C_16  and  C_17
REMARK    9  A    between atoms: N_19  and  C_20
REMARK   10  A    between atoms: N_19  and  C_21
REMARK                            x       y       z     vdW  Elec       q    Type
REMARK                         _______ _______ _______ _____ _____    ______ ____
ROOT
ATOM      1  C   UNL     1       2.202  -0.216  -0.539  0.00  0.00    +0.202 C 
ATOM      2  O   UNL     1       1.197  -0.694  -0.056  0.00  0.00    -0.277 OA
ATOM      3  N   UNL     1       2.158   1.000  -1.119  0.00  0.00    -0.305 N 
ATOM      4  C   UNL     1       0.850   1.668  -1.273  0.00  0.00    +0.106 C 
ATOM      5  C   UNL     1       0.954   3.169  -0.948  0.00  0.00    +0.000 C 
ATOM      6  C   UNL     1       1.863   3.364   0.246  0.00  0.00    -0.077 C 
ATOM      7  N   UNL     1       3.224   3.616  -0.221  0.00  0.00    +0.386 N 
ATOM      8  C   UNL     1       4.005   2.458  -0.434  0.00  0.00    -0.059 C 
ATOM      9  C   UNL     1       3.396   1.606  -1.565  0.00  0.00    +0.089 C 
ATOM     10  H   UNL     1       3.173   4.130  -1.088  0.00  0.00    -0.081 HD
ENDROOT
BRANCH   1  11
ATOM     11  C   UNL     1       3.500  -0.980  -0.489  0.00  0.00    +0.018 C 
BRANCH  11  13
ATOM     12  C   UNL     1       3.439  -1.083  -2.985  0.00  0.00    +0.009 C 
ATOM     13  C   UNL     1       3.593  -1.905  -1.704  0.00  0.00    -0.042 C 
ATOM     14  C   UNL     1       2.481  -2.953  -1.634  0.00  0.00    +0.009 C 
ATOM     15  C   UNL     1       4.954  -2.606  -1.708  0.00  0.00    +0.009 C 
ENDBRANCH  11  13
BRANCH  11  16
ATOM     16  N   UNL     1       3.549  -1.782   0.741  0.00  0.00    +0.386 N 
ATOM     17  H   UNL     1       2.776  -2.430   0.752  0.00  0.00    -0.089 HD
ATOM     18  H   UNL     1       4.418  -2.293   0.775  0.00  0.00    -0.089 HD
ATOM     19  H   UNL     1       3.487  -1.171   1.543  0.00  0.00    -0.089 HD
ENDBRANCH  11  16
ENDBRANCH   1  11
BRANCH   7  20
ATOM     20  C   UNL     1       3.905   4.458   0.771  0.00  0.00    +0.019 C 
BRANCH  20  21
ATOM     21  C   UNL     1       3.248   5.814   0.816  0.00  0.00    +0.199 C 
ATOM     22  O   UNL     1       2.373   6.090   0.023  0.00  0.00    -0.278 OA
ATOM     23  N   UNL     1       3.634   6.720   1.736  0.00  0.00    -0.309 N 
ATOM     24  C   UNL     1       2.995   8.037   1.779  0.00  0.00    +0.131 C 
ATOM     25  C   UNL     1       4.692   6.387   2.693  0.00  0.00    +0.131 C 
ENDBRANCH  20  21
ENDBRANCH   7  20
TORSDOF 5
