REMARK  Name = ZINC44784401
REMARK  5 active torsions:
REMARK  status: ('A' for Active; 'I' for Inactive)
REMARK    1  A    between atoms: C_1  and  C_2
REMARK    2  A    between atoms: C_8  and  N_10
REMARK    3  A    between atoms: C_11  and  C_13
REMARK    4  A    between atoms: C_13  and  C_19
REMARK    5  A    between atoms: N_20  and  O_21
REMARK                            x       y       z     vdW  Elec       q    Type
REMARK                         _______ _______ _______ _____ _____    ______ ____
ROOT
ATOM      1  C   UNL     1       4.240   0.541   2.366  0.00  0.00    +0.109 C 
ATOM      2  C   UNL     1       4.795   0.505   3.793  0.00  0.00    +0.052 C 
ATOM      3  C   UNL     1       4.041   1.524   4.652  0.00  0.00    +0.161 C 
ATOM      4  O   UNL     1       4.168   2.823   4.070  0.00  0.00    -0.380 OA
ATOM      5  C   UNL     1       3.623   2.928   2.753  0.00  0.00    +0.161 C 
ATOM      6  C   UNL     1       4.361   1.966   1.818  0.00  0.00    +0.052 C 
ENDROOT
BRANCH   1   7
ATOM      7  C   UNL     1       5.026  -0.403   1.493  0.00  0.00    +0.147 C 
ATOM      8  N   UNL     1       5.739   0.059   0.520  0.00  0.00    -0.076 NA
ATOM      9  N   UNL     1       4.986  -1.758   1.733  0.00  0.00    -0.343 N 
ATOM     10  H   UNL     1       4.513  -2.100   2.509  0.00  0.00    +0.144 HD
ATOM     11  H   UNL     1       5.429  -2.372   1.127  0.00  0.00    +0.144 HD
BRANCH   8  12
ATOM     12  O   UNL     1       6.478  -0.828  -0.300  0.00  0.00    -0.408 OA
ATOM     13  H   UNL     1       6.979  -0.389  -1.001  0.00  0.00    +0.328 HD
ENDBRANCH   8  12
ENDBRANCH   1   7
BRANCH   1  15
ATOM     14  N   UNL     1       2.052   0.226   1.256  0.00  0.00    -0.311 N 
ATOM     15  C   UNL     1       2.791   0.127   2.378  0.00  0.00    +0.227 C 
ATOM     16  O   UNL     1       2.290  -0.295   3.399  0.00  0.00    -0.275 OA
ATOM     17  H   UNL     1       2.430   0.633   0.461  0.00  0.00    +0.149 HD
BRANCH  14  24
ATOM     18  C   UNL     1      -0.137   1.956   0.480  0.00  0.00    +0.009 C 
ATOM     19  C   UNL     1      -0.124   0.459   0.164  0.00  0.00    +0.006 C 
ATOM     20  C   UNL     1      -1.559  -0.071   0.143  0.00  0.00    +0.005 C 
ATOM     21  C   UNL     1      -1.545  -1.568  -0.173  0.00  0.00    +0.000 C 
ATOM     22  C   UNL     1      -0.744  -2.308   0.899  0.00  0.00    +0.002 C 
ATOM     23  C   UNL     1       0.692  -1.778   0.919  0.00  0.00    +0.022 C 
ATOM     24  C   UNL     1       0.678  -0.281   1.236  0.00  0.00    +0.076 C 
ENDBRANCH  14  24
ENDBRANCH   1  15
TORSDOF 4
