REMARK  Name = ZINC49528723
REMARK  9 active torsions:
REMARK  status: ('A' for Active; 'I' for Inactive)
REMARK    1  A    between atoms: C_1  and  C_2
REMARK    2  A    between atoms: C_2  and  C_3
REMARK    3  A    between atoms: C_3  and  C_5
REMARK    4  A    between atoms: C_3  and  N_10
REMARK    5  A    between atoms: N_10  and  S_11
REMARK    6  A    between atoms: S_11  and  C_14
REMARK    7  A    between atoms: C_15  and  C_22
REMARK    8  A    between atoms: C_16  and  C_21
REMARK    9  A    between atoms: C_19  and  N_20
REMARK                            x       y       z     vdW  Elec       q    Type
REMARK                         _______ _______ _______ _____ _____    ______ ____
ROOT
ATOM      1  S   UNL     1      -3.696   2.347  -1.162  0.00  0.00    +0.061 S 
ATOM      2  O   UNL     1      -4.278   3.010  -2.276  0.00  0.00    -0.153 OA
ATOM      3  O   UNL     1      -4.309   2.331   0.120  0.00  0.00    -0.153 OA
ENDROOT
BRANCH   1   4
ATOM      4  C   UNL     1      -2.091   3.040  -0.945  0.00  0.00    +0.129 A 
ATOM      5  C   UNL     1      -1.408   3.555  -2.030  0.00  0.00    -0.019 A 
ATOM      6  C   UNL     1      -0.148   4.099  -1.861  0.00  0.00    -0.046 A 
ATOM      7  C   UNL     1       0.432   4.130  -0.606  0.00  0.00    +0.005 A 
ATOM      8  C   UNL     1      -0.246   3.618   0.483  0.00  0.00    +0.025 A 
ATOM      9  C   UNL     1      -1.514   3.075   0.317  0.00  0.00    +0.052 A 
ATOM     10  C   UNL     1       0.594   4.658  -3.047  0.00  0.00    +0.044 C 
ATOM     11  C   UNL     1      -2.036   3.523  -3.400  0.00  0.00    +0.046 C 
BRANCH   9  12
ATOM     12  N   UNL     1      -2.204   2.561   1.417  0.00  0.00    -0.356 N 
ATOM     13  H   UNL     1      -2.884   1.881   1.289  0.00  0.00    +0.142 HD
ATOM     14  H   UNL     1      -2.004   2.884   2.310  0.00  0.00    +0.142 HD
ENDBRANCH   9  12
ENDBRANCH   1   4
BRANCH   1  15
ATOM     15  N   UNL     1      -3.490   0.765  -1.608  0.00  0.00    -0.182 NA
ATOM     16  H   UNL     1      -3.785   0.465  -2.482  0.00  0.00    +0.149 HD
BRANCH  15  17
ATOM     17  C   UNL     1      -2.862  -0.181  -0.682  0.00  0.00    +0.113 C 
BRANCH  17  18
ATOM     18  C   UNL     1      -3.930  -0.922   0.080  0.00  0.00    +0.008 A 
ATOM     19  C   UNL     1      -3.958  -1.272   1.390  0.00  0.00    +0.013 A 
ATOM     20  C   UNL     1      -5.055  -1.956   1.878  0.00  0.00    +0.008 A 
ATOM     21  C   UNL     1      -6.071  -2.257   1.033  0.00  0.00    +0.045 A 
ATOM     22  S   UNL     1      -5.492  -1.560  -0.505  0.00  0.00    -0.100 S 
ENDBRANCH  17  18
BRANCH  17  24
ATOM     23  C   UNL     1      -0.863  -0.440  -2.158  0.00  0.00    +0.006 C 
ATOM     24  C   UNL     1      -2.013  -1.179  -1.471  0.00  0.00    +0.022 C 
ENDBRANCH  17  24
ENDBRANCH  15  17
ENDBRANCH   1  15
TORSDOF 6
