REMARK  Name = ZINC64328004
REMARK  10 active torsions:
REMARK  status: ('A' for Active; 'I' for Inactive)
REMARK    1  A    between atoms: C_1  and  C_2
REMARK    2  A    between atoms: C_3  and  C_26
REMARK    3  A    between atoms: C_9  and  C_12
REMARK    4  A    between atoms: C_12  and  N_13
REMARK    5  A    between atoms: N_13  and  C_14
REMARK    6  A    between atoms: C_14  and  C_15
REMARK    7  A    between atoms: C_17  and  O_24
REMARK    8  A    between atoms: N_19  and  C_23
REMARK    9  A    between atoms: C_21  and  C_22
REMARK   10  A    between atoms: O_24  and  C_25
REMARK                            x       y       z     vdW  Elec       q    Type
REMARK                         _______ _______ _______ _____ _____    ______ ____
ROOT
ATOM      1  C   UNL     1       0.068  -1.482   4.899  0.00  0.00    -0.047 C 
ENDROOT
BRANCH   1  10
ATOM      2  C   UNL     1      -0.018   1.503   0.010  0.00  0.00    +0.046 C 
ATOM      3  C   UNL     1       0.002  -0.004   0.002  0.00  0.00    -0.022 A 
ATOM      4  C   UNL     1       0.009  -0.797  -1.081  0.00  0.00    +0.017 A 
ATOM      5  N   UNL     1       0.028  -2.110  -0.699  0.00  0.00    -0.358 N 
ATOM      6  H   UNL     1       0.036  -2.867  -1.305  0.00  0.00    +0.166 HD
ATOM      7  C   UNL     1       0.035  -2.197   0.676  0.00  0.00    +0.047 A 
ATOM      8  C   UNL     1       0.025  -0.882   1.175  0.00  0.00    +0.003 A 
ATOM      9  C   UNL     1       0.035  -0.659   2.553  0.00  0.00    +0.012 A 
ATOM     10  C   UNL     1       0.057  -1.723   3.411  0.00  0.00    -0.064 A 
ATOM     11  C   UNL     1       0.071  -3.022   2.924  0.00  0.00    +0.004 A 
ATOM     12  C   UNL     1       0.052  -3.264   1.567  0.00  0.00    +0.026 A 
ATOM     13  C   UNL     1      -0.004  -0.311  -2.508  0.00  0.00    +0.063 C 
ENDBRANCH   1  10
BRANCH   1  14
ATOM     14  N   UNL     1      -1.314  -1.423   5.395  0.00  0.00    +0.382 N 
ATOM     15  H   UNL     1      -1.804  -0.669   4.936  0.00  0.00    -0.085 HD
ATOM     16  H   UNL     1      -1.780  -2.296   5.199  0.00  0.00    -0.085 HD
BRANCH  14  17
ATOM     17  C   UNL     1      -1.304  -1.188   6.845  0.00  0.00    -0.069 C 
BRANCH  17  18
ATOM     18  C   UNL     1      -2.743  -1.126   7.362  0.00  0.00    +0.066 C 
ATOM     19  C   UNL     1      -2.763  -0.807   8.870  0.00  0.00    +0.228 C 
ATOM     20  N   UNL     1      -3.412  -1.991   9.457  0.00  0.00    -0.230 N 
ATOM     21  N   UNL     1      -3.728  -2.881   8.433  0.00  0.00    -0.191 NA
ATOM     22  C   UNL     1      -3.399  -2.485   7.268  0.00  0.00    +0.039 C 
ATOM     23  C   UNL     1      -3.628  -3.251   5.991  0.00  0.00    +0.063 C 
ATOM     24  C   UNL     1      -3.680  -2.200  10.882  0.00  0.00    +0.154 C 
BRANCH  19  25
ATOM     25  O   UNL     1      -3.530   0.371   9.126  0.00  0.00    -0.360 OA
ATOM     26  C   UNL     1      -3.327   0.926  10.427  0.00  0.00    +0.196 C 
ENDBRANCH  19  25
ENDBRANCH  17  18
ENDBRANCH  14  17
ENDBRANCH   1  14
TORSDOF 5
