REMARK  Name = ZINC49609921
REMARK  9 active torsions:
REMARK  status: ('A' for Active; 'I' for Inactive)
REMARK    1  A    between atoms: C_1  and  C_2
REMARK    2  A    between atoms: C_3  and  C_7
REMARK    3  A    between atoms: C_7  and  N_8
REMARK    4  A    between atoms: N_8  and  C_9
REMARK    5  A    between atoms: N_8  and  C_10
REMARK    6  A    between atoms: C_10  and  C_11
REMARK    7  A    between atoms: C_16  and  C_17
REMARK    8  A    between atoms: C_18  and  C_19
REMARK    9  A    between atoms: C_19  and  N_20
REMARK                            x       y       z     vdW  Elec       q    Type
REMARK                         _______ _______ _______ _____ _____    ______ ____
ROOT
ATOM      1  C   UNL     1      -4.605   0.501  -3.157  0.00  0.00    -0.048 A 
ATOM      2  C   UNL     1      -4.587   1.725  -3.795  0.00  0.00    +0.006 A 
ATOM      3  C   UNL     1      -4.943   1.819  -5.128  0.00  0.00    +0.038 A 
ATOM      4  C   UNL     1      -5.322   0.687  -5.831  0.00  0.00    +0.125 A 
ATOM      5  C   UNL     1      -5.344  -0.544  -5.203  0.00  0.00    +0.055 A 
ATOM      6  C   UNL     1      -4.979  -0.644  -3.860  0.00  0.00    +0.029 A 
ATOM      7  F   UNL     1      -5.669   0.786  -7.133  0.00  0.00    -0.205 F 
ENDROOT
BRANCH   6   8
ATOM      8  C   UNL     1      -4.995  -1.917  -3.204  0.00  0.00    -0.068 C 
ATOM      9  C   UNL     1      -5.008  -2.961  -2.667  0.00  0.00    -0.117 C 
BRANCH   9  10
ATOM     10  C   UNL     1      -5.023  -4.269  -1.993  0.00  0.00    +0.005 C 
BRANCH  10  11
ATOM     11  N   UNL     1      -5.449  -5.305  -2.943  0.00  0.00    +0.385 N 
ATOM     12  H   UNL     1      -5.460  -6.202  -2.481  0.00  0.00    -0.089 HD
ATOM     13  H   UNL     1      -6.375  -5.090  -3.282  0.00  0.00    -0.089 HD
ATOM     14  H   UNL     1      -4.805  -5.334  -3.720  0.00  0.00    -0.089 HD
ENDBRANCH  10  11
ENDBRANCH   9  10
ENDBRANCH   6   8
BRANCH   1  15
ATOM     15  C   UNL     1      -4.216   0.402  -1.705  0.00  0.00    -0.042 C 
BRANCH  15  16
ATOM     16  N   UNL     1      -2.829  -0.070  -1.601  0.00  0.00    +0.383 N 
ATOM     17  C   UNL     1      -1.925   0.935  -2.177  0.00  0.00    -0.095 C 
ATOM     18  H   UNL     1      -2.731  -0.939  -2.104  0.00  0.00    -0.081 HD
BRANCH  16  19
ATOM     19  C   UNL     1      -2.488  -0.281  -0.187  0.00  0.00    -0.039 C 
BRANCH  19  22
ATOM     20  C   UNL     1      -1.704  -3.244  -0.797  0.00  0.00    +0.086 C 
ATOM     21  C   UNL     1      -0.766  -2.153  -0.349  0.00  0.00    +0.103 A 
ATOM     22  C   UNL     1      -1.109  -0.879  -0.087  0.00  0.00    -0.023 A 
ATOM     23  C   UNL     1       0.074  -0.208   0.299  0.00  0.00    +0.043 A 
ATOM     24  C   UNL     1       1.069  -1.112   0.250  0.00  0.00    +0.195 A 
ATOM     25  O   UNL     1       0.553  -2.290  -0.137  0.00  0.00    -0.468 OA
ENDBRANCH  19  22
ENDBRANCH  16  19
ENDBRANCH  15  16
ENDBRANCH   1  15
TORSDOF 7
