REMARK  Name = ZINC19845512
REMARK  4 active torsions:
REMARK  status: ('A' for Active; 'I' for Inactive)
REMARK    1  A    between atoms: C_1  and  N_2
REMARK    2  A    between atoms: C_3  and  S_7
REMARK    3  A    between atoms: S_7  and  C_8
REMARK    4  A    between atoms: C_13  and  N_14
REMARK                            x       y       z     vdW  Elec       q    Type
REMARK                         _______ _______ _______ _____ _____    ______ ____
ROOT
ATOM      1  C   UNL     1      -2.590   0.230  -0.010  0.00  0.00    +0.036 A 
ATOM      2  C   UNL     1      -2.176   1.550  -0.102  0.00  0.00    +0.018 A 
ATOM      3  C   UNL     1      -3.111   2.568  -0.122  0.00  0.00    +0.021 A 
ATOM      4  C   UNL     1      -4.461   2.275  -0.040  0.00  0.00    +0.043 A 
ATOM      5  C   UNL     1      -4.882   0.961   0.057  0.00  0.00    +0.043 A 
ATOM      6  C   UNL     1      -3.951  -0.067   0.072  0.00  0.00    +0.040 A 
ATOM      7 CL   UNL     1      -5.628   3.560  -0.059  0.00  0.00    -0.083 Cl
ENDROOT
BRANCH   6   8
ATOM      8  N   UNL     1      -4.375  -1.397   0.170  0.00  0.00    -0.357 N 
ATOM      9  H   UNL     1      -5.449  -1.628   0.234  0.00  0.00    +0.142 HD
ATOM     10  H   UNL     1      -3.635  -2.210   0.181  0.00  0.00    +0.142 HD
ENDBRANCH   6   8
BRANCH   1  11
ATOM     11  S   UNL     1      -1.401  -1.070   0.010  0.00  0.00    -0.047 S 
BRANCH  11  14
ATOM     12  C   UNL     1      -0.026  -3.663  -1.501  0.00  0.00    +0.177 C 
ATOM     13  N   UNL     1      -0.964  -2.756  -2.168  0.00  0.00    -0.223 N 
ATOM     14  C   UNL     1      -1.577  -1.672  -1.637  0.00  0.00    +0.214 A 
ATOM     15  N   UNL     1      -2.330  -1.152  -2.582  0.00  0.00    -0.101 NA
ATOM     16  N   UNL     1      -2.229  -1.836  -3.665  0.00  0.00    -0.022 NA
ATOM     17  N   UNL     1      -1.420  -2.825  -3.496  0.00  0.00    -0.043 NA
ENDBRANCH  11  14
ENDBRANCH   1  11
TORSDOF 3
