REMARK  Name = ZINC63020782
REMARK  7 active torsions:
REMARK  status: ('A' for Active; 'I' for Inactive)
REMARK    1  A    between atoms: C_1  and  C_2
REMARK    2  A    between atoms: C_2  and  C_3
REMARK    3  A    between atoms: C_2  and  C_4
REMARK    4  A    between atoms: C_2  and  N_6
REMARK    5  A    between atoms: C_4  and  N_5
REMARK    6  A    between atoms: N_6  and  C_7
REMARK    7  A    between atoms: C_12  and  N_13
REMARK                            x       y       z     vdW  Elec       q    Type
REMARK                         _______ _______ _______ _____ _____    ______ ____
ROOT
ATOM      1  C   UNL     1       1.928  -0.215  -1.537  0.00  0.00    +0.060 A 
ATOM      2  C   UNL     1       2.677   0.584  -0.682  0.00  0.00    +0.052 A 
ATOM      3  C   UNL     1       4.005   0.845  -0.973  0.00  0.00    +0.078 A 
ATOM      4  C   UNL     1       4.587   0.308  -2.121  0.00  0.00    +0.145 A 
ATOM      5  C   UNL     1       3.838  -0.488  -2.969  0.00  0.00    +0.082 A 
ATOM      6  C   UNL     1       2.512  -0.753  -2.675  0.00  0.00    +0.150 A 
ATOM      7  O   UNL     1       5.893   0.576  -2.396  0.00  0.00    -0.481 OA
ATOM      8  C   UNL     1       6.385   1.856  -1.993  0.00  0.00    +0.325 C 
ATOM      9  C   UNL     1       5.951   2.143  -0.578  0.00  0.00    +0.255 C 
ATOM     10  O   UNL     1       6.651   2.816   0.149  0.00  0.00    -0.272 OA
ATOM     11  N   UNL     1       4.779   1.649  -0.124  0.00  0.00    -0.280 N 
ATOM     12  H   UNL     1       4.477   1.846   0.776  0.00  0.00    +0.155 HD
ENDROOT
BRANCH   6  13
ATOM     13  N   UNL     1       1.713  -1.610  -3.581  0.00  0.00    +0.058 N 
ATOM     14  O   UNL     1       2.242  -2.153  -4.522  0.00  0.00    -0.126 OA
ATOM     15  O   UNL     1       0.531  -1.765  -3.379  0.00  0.00    -0.126 OA
ENDBRANCH   6  13
BRANCH   1  16
ATOM     16  N   UNL     1       0.586  -0.483  -1.247  0.00  0.00    -0.339 N 
ATOM     17  H   UNL     1       0.040  -0.973  -1.882  0.00  0.00    +0.147 HD
BRANCH  16  19
ATOM     18  C   UNL     1      -0.001   1.507   0.049  0.00  0.00    +0.029 C 
ATOM     19  C   UNL     1       0.003  -0.022   0.016  0.00  0.00    +0.011 C 
ATOM     20  C   UNL     1       0.835  -0.555   1.185  0.00  0.00    +0.029 C 
BRANCH  19  21
ATOM     21  C   UNL     1      -1.432  -0.539   0.134  0.00  0.00    -0.061 C 
BRANCH  21  22
ATOM     22  N   UNL     1      -1.428  -2.007   0.103  0.00  0.00    +0.379 N 
ATOM     23  H   UNL     1      -1.027  -2.324  -0.767  0.00  0.00    -0.090 HD
ATOM     24  H   UNL     1      -0.880  -2.359   0.874  0.00  0.00    -0.090 HD
ATOM     25  H   UNL     1      -2.375  -2.348   0.181  0.00  0.00    -0.090 HD
ENDBRANCH  21  22
ENDBRANCH  19  21
ENDBRANCH  16  19
ENDBRANCH   1  16
TORSDOF 5
