REMARK  Name = ZINC03911080
REMARK  5 active torsions:
REMARK  status: ('A' for Active; 'I' for Inactive)
REMARK    1  A    between atoms: C_1  and  C_2
REMARK    2  A    between atoms: C_6  and  C_10
REMARK    3  A    between atoms: N_12  and  C_13
REMARK    4  A    between atoms: C_24  and  C_27
REMARK    5  A    between atoms: C_27  and  O_28
REMARK                            x       y       z     vdW  Elec       q    Type
REMARK                         _______ _______ _______ _____ _____    ______ ____
ROOT
ATOM      1  C   UNL     1      -2.806   3.053   4.628  0.00  0.00    +0.069 C 
ATOM      2  C   UNL     1      -2.061   2.500   3.441  0.00  0.00    +0.081 A 
ATOM      3  C   UNL     1      -0.923   1.727   3.640  0.00  0.00    +0.159 A 
ATOM      4  C   UNL     1      -0.247   1.224   2.514  0.00  0.00    +0.027 A 
ATOM      5  C   UNL     1       0.955   0.407   2.688  0.00  0.00    +0.030 A 
ATOM      6  C   UNL     1       1.386   0.156   3.965  0.00  0.00    +0.097 A 
ATOM      7  C   UNL     1       0.627   0.716   5.096  0.00  0.00    +0.205 A 
ATOM      8  N   UNL     1       1.026   0.485   6.317  0.00  0.00    -0.369 N 
ATOM      9  O   UNL     1      -0.475   1.463   4.885  0.00  0.00    -0.437 OA
ATOM     10  C   UNL     1      -0.748   1.523   1.240  0.00  0.00    +0.007 A 
ATOM     11  C   UNL     1      -1.880   2.303   1.143  0.00  0.00    +0.117 A 
ATOM     12  N   UNL     1      -2.493   2.754   2.223  0.00  0.00    -0.256 NA
ATOM     13  H   UNL     1       0.464   0.900   7.167  0.00  0.00    +0.159 HD
ATOM     14  H   UNL     1       1.924  -0.124   6.497  0.00  0.00    +0.159 HD
ENDROOT
BRANCH   6  15
ATOM     15  C   UNL     1       2.590  -0.660   4.201  0.00  0.00    +0.253 C 
ATOM     16  O   UNL     1       2.964  -0.877   5.338  0.00  0.00    -0.270 OA
ATOM     17  N   UNL     1       3.276  -1.167   3.158  0.00  0.00    -0.282 N 
ATOM     18  H   UNL     1       2.896  -1.036   2.134  0.00  0.00    +0.155 HD
BRANCH  17  19
ATOM     19  C   UNL     1       4.471  -1.858   3.377  0.00  0.00    +0.032 C 
ATOM     20  C   UNL     1       5.230  -2.256   2.329  0.00  0.00    +0.030 C 
ATOM     21  C   UNL     1       6.492  -2.970   2.681  0.00  0.00    +0.178 C 
ATOM     22  C   UNL     1       7.143  -2.175   3.851  0.00  0.00    +0.177 C 
ATOM     23  C   UNL     1       6.217  -2.301   5.016  0.00  0.00    +0.009 C 
ATOM     24  C   UNL     1       4.918  -2.154   4.757  0.00  0.00    +0.021 C 
ATOM     25  O   UNL     1       8.413  -2.819   3.915  0.00  0.00    -0.344 OA
ATOM     26  C   UNL     1       8.767  -2.984   2.517  0.00  0.00    +0.324 C 
ATOM     27  O   UNL     1       7.548  -3.005   1.735  0.00  0.00    -0.344 OA
ENDBRANCH  17  19
ENDBRANCH   6  15
BRANCH  10  28
ATOM     28  C   UNL     1      -0.059   1.008   0.002  0.00  0.00    +0.193 C 
BRANCH  28  29
ATOM     29  O   UNL     1      -0.767   1.453  -1.156  0.00  0.00    -0.390 OA
ATOM     30  H   UNL     1      -0.412   1.174  -2.159  0.00  0.00    +0.210 HD
ENDBRANCH  28  29
ENDBRANCH  10  28
TORSDOF 4
