REMARK  Name = ZINC32620210
REMARK  3 active torsions:
REMARK  status: ('A' for Active; 'I' for Inactive)
REMARK    1  A    between atoms: C_1  and  C_2
REMARK    2  A    between atoms: C_2  and  C_4
REMARK    3  A    between atoms: C_20  and  N_21
REMARK                            x       y       z     vdW  Elec       q    Type
REMARK                         _______ _______ _______ _____ _____    ______ ____
ROOT
ATOM      1  C   UNL     1       3.518  -0.842  -0.928  0.00  0.00    +0.054 A 
ATOM      2  C   UNL     1       2.904  -2.073  -1.224  0.00  0.00    +0.058 A 
ATOM      3  C   UNL     1       3.464  -3.259  -1.716  0.00  0.00    +0.027 A 
ATOM      4  C   UNL     1       2.604  -4.313  -1.907  0.00  0.00    +0.003 A 
ATOM      5  C   UNL     1       1.244  -4.185  -1.619  0.00  0.00    +0.018 A 
ATOM      6  C   UNL     1       0.716  -3.026  -1.142  0.00  0.00    +0.092 A 
ATOM      7  N   UNL     1       1.557  -1.969  -0.948  0.00  0.00    -0.312 N 
ATOM      8  C   UNL     1       1.296  -0.718  -0.491  0.00  0.00    +0.106 A 
ATOM      9  C   UNL     1       2.499   0.007  -0.466  0.00  0.00    +0.062 A 
ATOM     10  C   UNL     1       2.545   1.414  -0.010  0.00  0.00    +0.198 C 
ATOM     11  O   UNL     1       3.600   1.982   0.194  0.00  0.00    -0.286 OA
ATOM     12  C   UNL     1       1.246   2.098   0.186  0.00  0.00    +0.054 A 
ATOM     13  C   UNL     1       0.040   1.373   0.158  0.00  0.00    +0.036 A 
ATOM     14  C   UNL     1      -1.166   2.040   0.335  0.00  0.00    +0.012 A 
ATOM     15  C   UNL     1      -1.181   3.410   0.552  0.00  0.00    +0.003 A 
ATOM     16  C   UNL     1      -0.005   4.128   0.584  0.00  0.00    +0.023 A 
ATOM     17  C   UNL     1       1.218   3.481   0.401  0.00  0.00    +0.036 A 
ATOM     18  C   UNL     1       0.037  -0.097  -0.065  0.00  0.00    +0.211 C 
ATOM     19  O   UNL     1      -0.971  -0.760   0.100  0.00  0.00    -0.285 OA
ENDROOT
BRANCH   1  21
ATOM     20  C   UNL     1       5.400   0.055  -2.364  0.00  0.00    +0.091 C 
ATOM     21  C   UNL     1       4.889  -0.522  -1.069  0.00  0.00    +0.163 C 
ATOM     22  O   UNL     1       5.655  -0.714  -0.146  0.00  0.00    -0.292 OA
ENDBRANCH   1  21
BRANCH  17  23
ATOM     23  N   UNL     1       2.400   4.205   0.433  0.00  0.00    -0.357 N 
ATOM     24  H   UNL     1       2.374   5.292   0.602  0.00  0.00    +0.142 HD
ATOM     25  H   UNL     1       3.362   3.693   0.289  0.00  0.00    +0.142 HD
ENDBRANCH  17  23
TORSDOF 2
