REMARK  Name = ZINC44550301
REMARK  3 active torsions:
REMARK  status: ('A' for Active; 'I' for Inactive)
REMARK    1  A    between atoms: C_3  and  O_16
REMARK    2  A    between atoms: C_6  and  C_7
REMARK    3  A    between atoms: N_8  and  N_9
REMARK                            x       y       z     vdW  Elec       q    Type
REMARK                         _______ _______ _______ _____ _____    ______ ____
ROOT
ATOM      1  C   UNL     1      -1.263  -0.761   0.011  0.00  0.00    +0.138 C 
ATOM      2  N   UNL     1      -1.243  -2.059   0.003  0.00  0.00    -0.189 NA
ENDROOT
BRANCH   2   3
ATOM      3  N   UNL     1      -2.446  -2.778   0.011  0.00  0.00    -0.220 N 
ATOM      4  C   UNL     1      -2.424  -4.167   0.004  0.00  0.00    +0.156 A 
ATOM      5  C   UNL     1      -3.619  -4.884   0.006  0.00  0.00    +0.155 A 
ATOM      6  N   UNL     1      -3.594  -6.203  -0.002  0.00  0.00    -0.258 NA
ATOM      7  C   UNL     1      -2.437  -6.845  -0.012  0.00  0.00    +0.130 A 
ATOM      8  C   UNL     1      -1.250  -6.137  -0.014  0.00  0.00    +0.132 A 
ATOM      9  N   UNL     1      -1.266  -4.815  -0.011  0.00  0.00    -0.236 NA
ATOM     10  H   UNL     1      -3.293  -2.306   0.022  0.00  0.00    +0.176 HD
ENDBRANCH   2   3
BRANCH   1  16
ATOM     11  C   UNL     1      -0.017   1.393   0.010  0.00  0.00    +0.013 A 
ATOM     12  C   UNL     1       1.168   2.096   0.002  0.00  0.00    +0.046 A 
ATOM     13  C   UNL     1       2.380   1.418  -0.013  0.00  0.00    +0.117 A 
ATOM     14  C   UNL     1       2.404   0.030  -0.022  0.00  0.00    +0.046 A 
ATOM     15  C   UNL     1       1.224  -0.682  -0.014  0.00  0.00    +0.013 A 
ATOM     16  C   UNL     1       0.002  -0.004   0.002  0.00  0.00    -0.005 A 
BRANCH  13  17
ATOM     17  O   UNL     1       3.546   2.116  -0.021  0.00  0.00    -0.507 OA
ATOM     18  H   UNL     1       3.893   2.313   0.860  0.00  0.00    +0.292 HD
ENDBRANCH  13  17
ENDBRANCH   1  16
TORSDOF 3
