REMARK  Name = ZINC51485244
REMARK  6 active torsions:
REMARK  status: ('A' for Active; 'I' for Inactive)
REMARK    1  A    between atoms: C_1  and  C_2
REMARK    2  A    between atoms: C_2  and  C_3
REMARK    3  A    between atoms: C_2  and  N_4
REMARK    4  A    between atoms: N_4  and  C_5
REMARK    5  A    between atoms: C_5  and  C_6
REMARK    6  A    between atoms: C_16  and  C_18
REMARK                            x       y       z     vdW  Elec       q    Type
REMARK                         _______ _______ _______ _____ _____    ______ ____
ROOT
ATOM      1  C   UNL     1      -3.498  -0.487  -1.250  0.00  0.00    +0.047 A 
ATOM      2  C   UNL     1      -4.583   0.349  -1.025  0.00  0.00    +0.026 A 
ATOM      3  C   UNL     1      -5.850  -0.211  -1.030  0.00  0.00    +0.047 A 
ATOM      4  C   UNL     1      -5.956  -1.583  -1.261  0.00  0.00    +0.144 A 
ATOM      5  N   UNL     1      -4.861  -2.300  -1.467  0.00  0.00    -0.134 NA
ATOM      6  N   UNL     1      -3.691  -1.773  -1.466  0.00  0.00    -0.154 NA
ATOM      7  N   UNL     1      -7.205  -2.194  -1.276  0.00  0.00    -0.310 N 
ATOM      8  C   UNL     1      -7.478  -3.580  -1.698  0.00  0.00    +0.107 C 
ATOM      9  C   UNL     1      -8.968  -3.579  -2.123  0.00  0.00    +0.021 C 
ATOM     10  C   UNL     1      -9.588  -2.611  -1.080  0.00  0.00    +0.024 C 
ATOM     11  C   UNL     1      -8.471  -1.567  -0.867  0.00  0.00    +0.078 C 
ENDROOT
BRANCH  11  12
ATOM     12  C   UNL     1      -8.401  -1.170   0.609  0.00  0.00    +0.009 C 
ATOM     13  C   UNL     1      -8.149  -2.417   1.481  0.00  0.00    +0.005 C 
ATOM     14  C   UNL     1      -8.994  -2.168   2.755  0.00  0.00    +0.000 C 
ATOM     15  C   UNL     1     -10.270  -1.495   2.192  0.00  0.00    +0.000 C 
ATOM     16  C   UNL     1      -9.750  -0.583   1.061  0.00  0.00    +0.005 C 
ENDBRANCH  11  12
BRANCH   1  17
ATOM     17  C   UNL     1      -2.101   0.076  -1.254  0.00  0.00    -0.024 C 
BRANCH  17  18
ATOM     18  N   UNL     1      -1.500  -0.093   0.076  0.00  0.00    +0.384 N 
ATOM     19  H   UNL     1      -1.467  -1.075   0.307  0.00  0.00    -0.085 HD
ATOM     20  H   UNL     1      -2.058   0.395   0.761  0.00  0.00    -0.085 HD
BRANCH  18  22
ATOM     21  C   UNL     1      -0.198   1.968  -0.155  0.00  0.00    -0.014 C 
ATOM     22  C   UNL     1      -0.138   0.456   0.072  0.00  0.00    -0.078 C 
ATOM     23  C   UNL     1       0.532   0.169   1.417  0.00  0.00    -0.014 C 
ENDBRANCH  18  22
ENDBRANCH  17  18
ENDBRANCH   1  17
TORSDOF 4
