REMARK  Name = ZINC50309206
REMARK  6 active torsions:
REMARK  status: ('A' for Active; 'I' for Inactive)
REMARK    1  A    between atoms: C_1  and  C_2
REMARK    2  A    between atoms: C_2  and  C_3
REMARK    3  A    between atoms: C_2  and  C_4
REMARK    4  A    between atoms: C_2  and  C_5
REMARK    5  A    between atoms: N_9  and  C_10
REMARK    6  A    between atoms: C_13  and  N_16
REMARK                            x       y       z     vdW  Elec       q    Type
REMARK                         _______ _______ _______ _____ _____    ______ ____
ROOT
ATOM      1  C   UNL     1       0.528  -0.117  -1.526  0.00  0.00    +0.162 A 
ATOM      2  N   UNL     1      -0.058  -0.895  -2.398  0.00  0.00    -0.112 NA
ATOM      3  N   UNL     1       0.813  -1.519  -3.106  0.00  0.00    -0.023 NA
ATOM      4  N   UNL     1       2.004  -1.188  -2.740  0.00  0.00    -0.039 NA
ATOM      5  N   UNL     1       1.861  -0.255  -1.698  0.00  0.00    -0.197 N 
ENDROOT
BRANCH   5   6
ATOM      6  C   UNL     1       2.883   0.393  -0.986  0.00  0.00    +0.069 A 
ATOM      7  C   UNL     1       2.948   0.276   0.396  0.00  0.00    +0.030 A 
ATOM      8  C   UNL     1       3.953   0.913   1.096  0.00  0.00    +0.025 A 
ATOM      9  C   UNL     1       4.899   1.671   0.417  0.00  0.00    +0.025 A 
ATOM     10  C   UNL     1       4.833   1.787  -0.966  0.00  0.00    +0.025 A 
ATOM     11  C   UNL     1       3.832   1.145  -1.665  0.00  0.00    +0.030 A 
BRANCH   9  12
ATOM     12  N   UNL     1       5.916   2.316   1.126  0.00  0.00    -0.358 N 
ATOM     13  H   UNL     1       5.962   2.235   2.091  0.00  0.00    +0.142 HD
ATOM     14  H   UNL     1       6.577   2.845   0.652  0.00  0.00    +0.142 HD
ENDBRANCH   9  12
ENDBRANCH   5   6
BRANCH   1  16
ATOM     15  C   UNL     1       0.683   2.033  -0.300  0.00  0.00    +0.019 C 
ATOM     16  C   UNL     1      -0.156   0.773  -0.521  0.00  0.00    +0.024 C 
ATOM     17  C   UNL     1      -0.308   0.023   0.804  0.00  0.00    +0.019 C 
ATOM     18  C   UNL     1      -1.538   1.167  -1.045  0.00  0.00    +0.019 C 
ENDBRANCH   1  16
TORSDOF 3
