REMARK  Name = ZINC43670316
REMARK  6 active torsions:
REMARK  status: ('A' for Active; 'I' for Inactive)
REMARK    1  A    between atoms: C_1  and  C_2
REMARK    2  A    between atoms: C_3  and  N_18
REMARK    3  A    between atoms: C_4  and  N_17
REMARK    4  A    between atoms: N_5  and  C_7
REMARK    5  A    between atoms: C_8  and  C_16
REMARK    6  A    between atoms: C_13  and  C_15
REMARK                            x       y       z     vdW  Elec       q    Type
REMARK                         _______ _______ _______ _____ _____    ______ ____
ROOT
ATOM      1  C   UNL     1      -0.018   1.503   0.010  0.00  0.00    +0.070 C 
ATOM      2  C   UNL     1       0.002  -0.004   0.002  0.00  0.00    +0.092 A 
ATOM      3  C   UNL     1       0.008  -0.816  -1.136  0.00  0.00    +0.188 A 
ATOM      4  C   UNL     1       0.028  -2.113  -0.721  0.00  0.00    +0.146 A 
ATOM      5  N   UNL     1       0.035  -2.110   0.631  0.00  0.00    -0.245 N 
ATOM      6  N   UNL     1       0.023  -0.776   1.058  0.00  0.00    -0.172 NA
ENDROOT
BRANCH   5   7
ATOM      7  C   UNL     1       0.055  -3.292   1.496  0.00  0.00    +0.115 C 
ATOM      8  C   UNL     1      -1.190  -3.294   2.385  0.00  0.00    +0.011 C 
ATOM      9  C   UNL     1      -1.169  -4.529   3.289  0.00  0.00    +0.005 C 
ATOM     10  C   UNL     1       0.084  -4.497   4.166  0.00  0.00    +0.001 C 
ATOM     11  C   UNL     1       1.329  -4.495   3.277  0.00  0.00    +0.005 C 
ATOM     12  C   UNL     1       1.308  -3.260   2.373  0.00  0.00    +0.011 C 
ATOM     13  C   UNL     1       2.553  -3.258   1.484  0.00  0.00    +0.009 C 
ATOM     14  C   UNL     1      -1.203  -2.031   3.248  0.00  0.00    +0.009 C 
ENDBRANCH   5   7
BRANCH   4  15
ATOM     15  N   UNL     1       0.040  -3.238  -1.541  0.00  0.00    -0.342 N 
ATOM     16  H   UNL     1       0.034  -3.136  -2.506  0.00  0.00    +0.144 HD
ATOM     17  H   UNL     1       0.054  -4.125  -1.147  0.00  0.00    +0.144 HD
ENDBRANCH   4  15
BRANCH   3  18
ATOM     18  N   UNL     1      -0.005  -0.349  -2.540  0.00  0.00    +0.062 N 
ATOM     19  O   UNL     1       1.036  -0.144  -3.119  0.00  0.00    -0.126 OA
ATOM     20  O   UNL     1      -1.058  -0.173  -3.109  0.00  0.00    -0.126 OA
ENDBRANCH   3  18
TORSDOF 3
