REMARK  Name = ZINC48768041
REMARK  8 active torsions:
REMARK  status: ('A' for Active; 'I' for Inactive)
REMARK    1  A    between atoms: C_1  and  C_2
REMARK    2  A    between atoms: C_3  and  C_27
REMARK    3  A    between atoms: C_7  and  N_8
REMARK    4  A    between atoms: C_9  and  C_11
REMARK    5  A    between atoms: N_13  and  C_14
REMARK    6  A    between atoms: C_14  and  C_15
REMARK    7  A    between atoms: C_15  and  C_17
REMARK    8  A    between atoms: C_15  and  N_22
REMARK                            x       y       z     vdW  Elec       q    Type
REMARK                         _______ _______ _______ _____ _____    ______ ____
ROOT
ATOM      1  C   UNL     1       0.556   0.410   4.924  0.00  0.00    +0.299 C 
ATOM      2  O   UNL     1       0.358   1.608   4.945  0.00  0.00    -0.265 OA
ATOM      3  N   UNL     1       0.786  -0.255   6.073  0.00  0.00    -0.309 N 
ATOM      4  H   UNL     1       0.943  -1.212   6.056  0.00  0.00    +0.149 HD
ENDROOT
BRANCH   1   6
ATOM      5  N   UNL     1       0.313   0.340   2.475  0.00  0.00    -0.277 N 
ATOM      6  C   UNL     1       0.543  -0.325   3.624  0.00  0.00    +0.303 C 
ATOM      7  O   UNL     1       0.740  -1.523   3.603  0.00  0.00    -0.265 OA
ATOM      8  H   UNL     1       0.083   1.282   2.498  0.00  0.00    +0.155 HD
BRANCH   5  15
ATOM      9  C   UNL     1      -1.081   1.427   0.248  0.00  0.00    +0.046 C 
ATOM     10  C   UNL     1      -0.258   0.169   0.139  0.00  0.00    -0.017 A 
ATOM     11  C   UNL     1      -0.157  -0.497  -1.083  0.00  0.00    +0.041 A 
ATOM     12  C   UNL     1       0.607  -1.661  -1.176  0.00  0.00    +0.013 A 
ATOM     13  C   UNL     1       1.260  -2.150  -0.062  0.00  0.00    +0.003 A 
ATOM     14  C   UNL     1       1.160  -1.490   1.148  0.00  0.00    +0.023 A 
ATOM     15  C   UNL     1       0.406  -0.327   1.250  0.00  0.00    +0.037 A 
BRANCH  11  16
ATOM     16  C   UNL     1      -0.858   0.028  -2.274  0.00  0.00    +0.242 C 
ATOM     17  O   UNL     1      -1.422   1.103  -2.223  0.00  0.00    -0.270 OA
ATOM     18  N   UNL     1      -0.873  -0.687  -3.417  0.00  0.00    -0.325 N 
ATOM     19  H   UNL     1      -0.423  -1.545  -3.458  0.00  0.00    +0.145 HD
ATOM     20  H   UNL     1      -1.332  -0.342  -4.198  0.00  0.00    +0.145 HD
ENDBRANCH  11  16
ENDBRANCH   5  15
ENDBRANCH   1   6
BRANCH   3  21
ATOM     21  C   UNL     1       0.798   0.466   7.348  0.00  0.00    +0.097 C 
BRANCH  21  22
ATOM     22  C   UNL     1       1.193  -0.492   8.473  0.00  0.00    +0.016 C 
BRANCH  22  23
ATOM     23  N   UNL     1       1.356   0.261   9.723  0.00  0.00    +0.387 N 
ATOM     24  C   UNL     1       1.870  -0.630  10.794  0.00  0.00    -0.078 C 
ATOM     25  C   UNL     1       2.504   0.359  11.804  0.00  0.00    -0.020 C 
ATOM     26  C   UNL     1       3.135   1.432  10.888  0.00  0.00    -0.020 C 
ATOM     27  C   UNL     1       2.377   1.317   9.553  0.00  0.00    -0.078 C 
ATOM     28  H   UNL     1       0.476   0.669  10.001  0.00  0.00    -0.081 HD
ENDBRANCH  22  23
BRANCH  22  29
ATOM     29  C   UNL     1       0.115  -1.531   8.649  0.00  0.00    +0.093 A 
ATOM     30  C   UNL     1       0.149  -2.789   8.172  0.00  0.00    +0.043 A 
ATOM     31  C   UNL     1      -1.058  -3.410   8.567  0.00  0.00    +0.041 A 
ATOM     32  C   UNL     1      -1.757  -2.495   9.262  0.00  0.00    +0.195 A 
ATOM     33  O   UNL     1      -1.039  -1.361   9.313  0.00  0.00    -0.469 OA
ENDBRANCH  22  29
ENDBRANCH  21  22
ENDBRANCH   3  21
TORSDOF 7
