REMARK  Name = ZINC38049942
REMARK  4 active torsions:
REMARK  status: ('A' for Active; 'I' for Inactive)
REMARK    1  A    between atoms: C_2  and  S_8
REMARK    2  A    between atoms: S_8  and  N_11
REMARK    3  A    between atoms: N_11  and  C_12
REMARK    4  A    between atoms: C_18  and  N_20
REMARK                            x       y       z     vdW  Elec       q    Type
REMARK                         _______ _______ _______ _____ _____    ______ ____
ROOT
ATOM      1  N   UNL     1       1.769   4.275   1.494  0.00  0.00    -0.188 NA
ATOM      2  H   UNL     1       1.151   4.629   2.153  0.00  0.00    +0.148 HD
ENDROOT
BRANCH   1   3
ATOM      3  C   UNL     1       3.173   4.057   1.850  0.00  0.00    +0.062 C 
ATOM      4  C   UNL     1       3.955   5.359   1.665  0.00  0.00    +0.019 C 
ATOM      5  C   UNL     1       3.362   6.443   2.567  0.00  0.00    +0.001 C 
ATOM      6  C   UNL     1       3.455   5.997   4.028  0.00  0.00    -0.001 C 
ATOM      7  C   UNL     1       2.673   4.695   4.214  0.00  0.00    -0.015 C 
ATOM      8  C   UNL     1       3.266   3.611   3.311  0.00  0.00    -0.056 C 
BRANCH   8   9
ATOM      9  N   UNL     1       2.515   2.361   3.489  0.00  0.00    +0.381 N 
ATOM     10  H   UNL     1       2.906   1.646   2.894  0.00  0.00    -0.090 HD
ATOM     11  H   UNL     1       2.576   2.066   4.452  0.00  0.00    -0.090 HD
ATOM     12  H   UNL     1       1.548   2.511   3.244  0.00  0.00    -0.090 HD
ENDBRANCH   8   9
ENDBRANCH   1   3
BRANCH   1  13
ATOM     13  S   UNL     1       1.237   3.918  -0.033  0.00  0.00    +0.061 S 
ATOM     14  O   UNL     1       2.162   4.510  -0.934  0.00  0.00    -0.153 OA
ATOM     15  O   UNL     1      -0.151   4.219  -0.060  0.00  0.00    -0.153 OA
BRANCH  13  17
ATOM     16  C   UNL     1       2.269   1.645  -1.156  0.00  0.00    +0.057 A 
ATOM     17  C   UNL     1       1.379   2.174  -0.239  0.00  0.00    +0.132 A 
ATOM     18  C   UNL     1       0.617   1.329   0.499  0.00  0.00    +0.106 A 
ATOM     19  S   UNL     1       1.151  -0.267  -0.097  0.00  0.00    -0.063 S 
ATOM     20  C   UNL     1       2.353   0.298  -1.289  0.00  0.00    +0.081 A 
ATOM     21 CL   UNL     1       3.366  -0.635  -2.346  0.00  0.00    -0.076 Cl
ATOM     22 CL   UNL     1      -0.570   1.703   1.710  0.00  0.00    -0.074 Cl
ENDBRANCH  13  17
ENDBRANCH   1  13
TORSDOF 4
