REMARK  Name = ZINC45774693
REMARK  7 active torsions:
REMARK  status: ('A' for Active; 'I' for Inactive)
REMARK    1  A    between atoms: C_1  and  C_2
REMARK    2  A    between atoms: C_2  and  C_9
REMARK    3  A    between atoms: C_11  and  S_17
REMARK    4  A    between atoms: C_14  and  O_15
REMARK    5  A    between atoms: O_15  and  C_16
REMARK    6  A    between atoms: S_17  and  N_20
REMARK    7  A    between atoms: N_20  and  C_21
REMARK                            x       y       z     vdW  Elec       q    Type
REMARK                         _______ _______ _______ _____ _____    ______ ____
ROOT
ATOM      1  C   UNL     1      -1.401  -0.551  -0.040  0.00  0.00    +0.028 A 
ATOM      2  C   UNL     1      -1.854  -1.373   0.975  0.00  0.00    +0.038 A 
ATOM      3  C   UNL     1      -3.141  -1.876   0.936  0.00  0.00    +0.111 A 
ATOM      4  C   UNL     1      -3.979  -1.558  -0.117  0.00  0.00    +0.032 A 
ATOM      5  C   UNL     1      -3.532  -0.737  -1.133  0.00  0.00    +0.048 A 
ATOM      6  C   UNL     1      -2.242  -0.226  -1.094  0.00  0.00    +0.126 A 
ENDROOT
BRANCH   1   8
ATOM      7  C   UNL     1      -0.019   1.526   0.010  0.00  0.00    +0.047 C 
ATOM      8  C   UNL     1       0.002  -0.004   0.002  0.00  0.00    +0.138 C 
ATOM      9  C   UNL     1       0.815  -0.520  -1.169  0.00  0.00    +0.248 C 
ATOM     10  O   UNL     1       0.595  -0.342  -2.348  0.00  0.00    -0.273 OA
ATOM     11  N   UNL     1       1.833  -1.217  -0.627  0.00  0.00    -0.238 N 
ATOM     12  C   UNL     1       1.777  -1.214   0.710  0.00  0.00    +0.307 C 
ATOM     13  O   UNL     1       2.586  -1.776   1.421  0.00  0.00    -0.252 OA
ATOM     14  N   UNL     1       0.724  -0.519   1.178  0.00  0.00    -0.281 N 
ATOM     15  H   UNL     1       2.520  -1.667  -1.143  0.00  0.00    +0.159 HD
ATOM     16  H   UNL     1       0.487  -0.383   2.109  0.00  0.00    +0.152 HD
ENDBRANCH   1   8
BRANCH   3  17
ATOM     17  S   UNL     1      -3.714  -2.925   2.231  0.00  0.00    +0.092 S 
ATOM     18  O   UNL     1      -4.771  -3.703   1.686  0.00  0.00    -0.148 OA
ATOM     19  O   UNL     1      -2.561  -3.511   2.820  0.00  0.00    -0.148 OA
BRANCH  17  20
ATOM     20  N   UNL     1      -4.391  -1.950   3.386  0.00  0.00    -0.098 NA
BRANCH  20  21
ATOM     21  C   UNL     1      -4.936  -2.513   4.543  0.00  0.00    +0.080 A 
ATOM     22  C   UNL     1      -4.905  -3.889   4.728  0.00  0.00    +0.065 A 
ATOM     23  C   UNL     1      -5.445  -4.445   5.874  0.00  0.00    +0.128 A 
ATOM     24  C   UNL     1      -6.016  -3.630   6.836  0.00  0.00    +0.076 A 
ATOM     25  C   UNL     1      -6.049  -2.257   6.654  0.00  0.00    +0.128 A 
ATOM     26  C   UNL     1      -5.504  -1.697   5.512  0.00  0.00    +0.065 A 
ATOM     27  F   UNL     1      -6.608  -1.465   7.594  0.00  0.00    -0.205 F 
ATOM     28  F   UNL     1      -5.415  -5.784   6.054  0.00  0.00    -0.205 F 
ENDBRANCH  20  21
ENDBRANCH  17  20
ENDBRANCH   3  17
BRANCH   6  29
ATOM     29  O   UNL     1      -1.802   0.586  -2.090  0.00  0.00    -0.495 OA
ATOM     30  C   UNL     1      -2.722   0.879  -3.144  0.00  0.00    +0.277 C 
ENDBRANCH   6  29
TORSDOF 5
