REMARK  Name = ZINC31811096
REMARK  9 active torsions:
REMARK  status: ('A' for Active; 'I' for Inactive)
REMARK    1  A    between atoms: C_1  and  C_2
REMARK    2  A    between atoms: C_5  and  C_11
REMARK    3  A    between atoms: C_6  and  C_10
REMARK    4  A    between atoms: C_7  and  O_8
REMARK    5  A    between atoms: O_8  and  C_9
REMARK    6  A    between atoms: C_11  and  N_12
REMARK    7  A    between atoms: N_15  and  C_18
REMARK    8  A    between atoms: C_18  and  C_20
REMARK    9  A    between atoms: C_18  and  C_31
REMARK                            x       y       z     vdW  Elec       q    Type
REMARK                         _______ _______ _______ _____ _____    ______ ____
ROOT
ATOM      1  N   UNL     1      -1.746  -4.784   1.491  0.00  0.00    -0.300 NA
ATOM      2  C   UNL     1      -2.171  -4.339   0.156  0.00  0.00    +0.066 C 
ATOM      3  C   UNL     1      -3.583  -4.856  -0.125  0.00  0.00    -0.062 C 
ATOM      4  N   UNL     1      -3.591  -6.323  -0.054  0.00  0.00    +0.393 N 
ATOM      5  C   UNL     1      -3.188  -6.752   1.292  0.00  0.00    -0.062 C 
ATOM      6  C   UNL     1      -1.773  -6.250   1.585  0.00  0.00    +0.066 C 
ATOM      7  H   UNL     1      -2.944  -6.696  -0.733  0.00  0.00    -0.080 HD
ENDROOT
BRANCH   1   8
ATOM      8  C   UNL     1      -0.415  -4.259   1.822  0.00  0.00    +0.137 C 
BRANCH   8  13
ATOM      9  C   UNL     1      -0.641   1.460   2.224  0.00  0.00    +0.049 C 
ATOM     10  C   UNL     1      -0.596  -0.045   2.155  0.00  0.00    +0.007 A 
ATOM     11  C   UNL     1      -0.132  -0.680   1.021  0.00  0.00    +0.089 A 
ATOM     12  N   UNL     1      -0.089  -1.997   0.953  0.00  0.00    -0.363 N 
ATOM     13  C   UNL     1      -0.485  -2.759   1.955  0.00  0.00    +0.037 A 
ATOM     14  C   UNL     1      -0.962  -2.201   3.123  0.00  0.00    +0.012 A 
ATOM     15  C   UNL     1      -1.018  -0.814   3.237  0.00  0.00    +0.129 A 
ATOM     16  C   UNL     1      -1.411  -3.079   4.262  0.00  0.00    +0.049 C 
ATOM     17  H   UNL     1       0.242  -2.417   0.144  0.00  0.00    +0.165 HD
BRANCH  15  18
ATOM     18  O   UNL     1      -1.476  -0.227   4.372  0.00  0.00    -0.494 OA
ATOM     19  C   UNL     1      -2.878   0.040   4.443  0.00  0.00    +0.277 C 
ENDBRANCH  15  18
ENDBRANCH   8  13
ENDBRANCH   1   8
BRANCH   4  20
ATOM     20  C   UNL     1      -4.943  -6.821  -0.342  0.00  0.00    +0.080 C 
BRANCH  20  21
ATOM     21  C   UNL     1      -5.376  -6.338  -1.702  0.00  0.00    -0.025 A 
ATOM     22  C   UNL     1      -4.572  -6.001  -2.723  0.00  0.00    +0.086 A 
ATOM     23  N   UNL     1      -5.323  -5.611  -3.799  0.00  0.00    -0.360 N 
ATOM     24  H   UNL     1      -4.965  -5.323  -4.654  0.00  0.00    +0.165 HD
ATOM     25  C   UNL     1      -6.662  -5.690  -3.489  0.00  0.00    +0.048 A 
ATOM     26  C   UNL     1      -6.754  -6.154  -2.164  0.00  0.00    +0.002 A 
ATOM     27  C   UNL     1      -8.007  -6.338  -1.575  0.00  0.00    +0.011 A 
ATOM     28  C   UNL     1      -9.139  -6.068  -2.291  0.00  0.00    +0.021 A 
ATOM     29  C   UNL     1      -9.054  -5.613  -3.600  0.00  0.00    +0.043 A 
ATOM     30  C   UNL     1      -7.827  -5.418  -4.198  0.00  0.00    +0.046 A 
ATOM     31 CL   UNL     1     -10.507  -5.278  -4.490  0.00  0.00    -0.083 Cl
ENDBRANCH  20  21
BRANCH  20  32
ATOM     32  C   UNL     1      -4.939  -8.327  -0.321  0.00  0.00    +0.347 C 
ATOM     33  O   UNL     1      -3.887  -8.936  -0.420  0.00  0.00    -0.248 OA
ATOM     34  O   UNL     1      -5.988  -8.938  -0.205  0.00  0.00    -0.248 OA
ENDBRANCH  20  32
ENDBRANCH   4  20
TORSDOF 6
