REMARK  Name = ZINC00283769
REMARK  5 active torsions:
REMARK  status: ('A' for Active; 'I' for Inactive)
REMARK    1  A    between atoms: C_1  and  C_2
REMARK    2  A    between atoms: C_5  and  N_8
REMARK    3  A    between atoms: N_8  and  N_9
REMARK    4  A    between atoms: N_9  and  S_10
REMARK    5  A    between atoms: S_10  and  C_13
REMARK                            x       y       z     vdW  Elec       q    Type
REMARK                         _______ _______ _______ _____ _____    ______ ____
ROOT
ATOM      1  N   UNL     1       1.154   4.329   1.596  0.00  0.00    -0.110 NA
ATOM      2  H   UNL     1       0.422   4.862   1.944  0.00  0.00    +0.172 HD
ENDROOT
BRANCH   1   3
ATOM      3  S   UNL     1       1.146   3.847   0.011  0.00  0.00    +0.073 S 
ATOM      4  O   UNL     1       2.380   4.274  -0.549  0.00  0.00    -0.152 OA
ATOM      5  O   UNL     1      -0.110   4.239  -0.526  0.00  0.00    -0.152 OA
BRANCH   3   6
ATOM      6  C   UNL     1       1.171   2.086   0.002  0.00  0.00    +0.107 A 
ATOM      7  C   UNL     1      -0.017   1.378   0.010  0.00  0.00    +0.030 A 
ATOM      8  C   UNL     1       0.002  -0.004   0.002  0.00  0.00    +0.022 A 
ATOM      9  C   UNL     1       1.210  -0.679  -0.013  0.00  0.00    +0.041 A 
ATOM     10  C   UNL     1       2.398   0.030  -0.021  0.00  0.00    +0.022 A 
ATOM     11  C   UNL     1       2.378   1.412  -0.013  0.00  0.00    +0.030 A 
ATOM     12 CL   UNL     1       1.234  -2.415  -0.022  0.00  0.00    -0.084 Cl
ENDBRANCH   3   6
ENDBRANCH   1   3
BRANCH   1  13
ATOM     13  N   UNL     1       2.218   3.967   2.432  0.00  0.00    -0.262 N 
ATOM     14  H   UNL     1       2.460   3.033   2.532  0.00  0.00    +0.168 HD
BRANCH  13  19
ATOM     15  C   UNL     1       5.107   7.962   5.234  0.00  0.00    +0.044 C 
ATOM     16  C   UNL     1       4.339   6.901   4.489  0.00  0.00    -0.050 A 
ATOM     17  C   UNL     1       4.686   5.570   4.634  0.00  0.00    +0.005 A 
ATOM     18  C   UNL     1       3.984   4.594   3.953  0.00  0.00    +0.024 A 
ATOM     19  C   UNL     1       2.929   4.951   3.123  0.00  0.00    +0.043 A 
ATOM     20  C   UNL     1       2.587   6.290   2.976  0.00  0.00    +0.024 A 
ATOM     21  C   UNL     1       3.289   7.260   3.664  0.00  0.00    +0.005 A 
ENDBRANCH  13  19
ENDBRANCH   1  13
TORSDOF 4
