REMARK  Name = ZINC67440844
REMARK  7 active torsions:
REMARK  status: ('A' for Active; 'I' for Inactive)
REMARK    1  A    between atoms: C_1  and  C_2
REMARK    2  A    between atoms: C_2  and  C_3
REMARK    3  A    between atoms: C_6  and  C_8
REMARK    4  A    between atoms: C_8  and  N_9
REMARK    5  A    between atoms: N_9  and  C_10
REMARK    6  A    between atoms: N_9  and  C_11
REMARK    7  A    between atoms: C_11  and  N_12
REMARK                            x       y       z     vdW  Elec       q    Type
REMARK                         _______ _______ _______ _____ _____    ______ ____
ROOT
ATOM      1  N   UNL     1       2.485  -5.152  -6.228  0.00  0.00    -0.211 N 
ATOM      2  C   UNL     1       3.741  -5.547  -5.933  0.00  0.00    +0.248 C 
ATOM      3  O   UNL     1       4.706  -4.839  -5.736  0.00  0.00    -0.273 OA
ATOM      4  C   UNL     1       3.691  -7.056  -5.898  0.00  0.00    +0.117 C 
ATOM      5  C   UNL     1       4.068  -7.572  -4.512  0.00  0.00    +0.063 C 
ATOM      6  C   UNL     1       4.053  -9.104  -4.524  0.00  0.00    +0.162 C 
ATOM      7  O   UNL     1       4.938  -9.579  -5.540  0.00  0.00    -0.380 OA
ATOM      8  C   UNL     1       4.581  -9.175  -6.864  0.00  0.00    +0.162 C 
ATOM      9  C   UNL     1       4.620  -7.646  -6.956  0.00  0.00    +0.063 C 
ATOM     10  N   UNL     1       2.292  -7.376  -6.204  0.00  0.00    -0.285 N 
ATOM     11  C   UNL     1       1.662  -6.198  -6.377  0.00  0.00    +0.310 C 
ATOM     12  O   UNL     1       0.480  -6.095  -6.642  0.00  0.00    -0.252 OA
ATOM     13  H   UNL     1       1.898  -8.260  -6.267  0.00  0.00    +0.151 HD
ENDROOT
BRANCH   1  14
ATOM     14  C   UNL     1       2.071  -3.753  -6.363  0.00  0.00    +0.205 C 
BRANCH  14  15
ATOM     15  N   UNL     1       1.635  -3.244  -5.056  0.00  0.00    -0.285 NA
ATOM     16  C   UNL     1       0.253  -3.651  -4.768  0.00  0.00    +0.106 C 
BRANCH  15  17
ATOM     17  C   UNL     1       1.778  -1.783  -4.986  0.00  0.00    +0.129 C 
BRANCH  17  21
ATOM     18  C   UNL     1       0.707  -0.490  -1.238  0.00  0.00    +0.078 A 
ATOM     19  N   UNL     1       1.981  -0.749  -1.401  0.00  0.00    -0.252 NA
ATOM     20  C   UNL     1       2.453  -1.171  -2.557  0.00  0.00    +0.123 A 
ATOM     21  C   UNL     1       1.558  -1.325  -3.567  0.00  0.00    +0.024 A 
ATOM     22  S   UNL     1       0.049  -0.839  -2.747  0.00  0.00    -0.076 S 
BRANCH  18  24
ATOM     23  C   UNL     1      -0.019   1.526   0.010  0.00  0.00    +0.011 C 
ATOM     24  C   UNL     1       0.002  -0.004   0.002  0.00  0.00    +0.059 C 
ENDBRANCH  18  24
ENDBRANCH  17  21
ENDBRANCH  15  17
ENDBRANCH  14  15
ENDBRANCH   1  14
TORSDOF 5
