REMARK  Name = ZINC67390503
REMARK  10 active torsions:
REMARK  status: ('A' for Active; 'I' for Inactive)
REMARK    1  A    between atoms: C_1  and  C_2
REMARK    2  A    between atoms: C_6  and  C_7
REMARK    3  A    between atoms: N_9  and  N_10
REMARK    4  A    between atoms: N_13  and  C_14
REMARK    5  A    between atoms: C_14  and  C_15
REMARK    6  A    between atoms: C_15  and  C_16
REMARK    7  A    between atoms: C_16  and  C_17
REMARK    8  A    between atoms: C_17  and  N_18
REMARK    9  A    between atoms: C_20  and  C_27
REMARK   10  A    between atoms: C_23  and  C_26
REMARK                            x       y       z     vdW  Elec       q    Type
REMARK                         _______ _______ _______ _____ _____    ______ ____
ROOT
ATOM      1  N   UNL     1       0.058  -0.732   4.900  0.00  0.00    -0.218 N 
ATOM      2  C   UNL     1       0.080  -1.625   5.909  0.00  0.00    +0.316 C 
ATOM      3  O   UNL     1       0.086  -1.239   7.062  0.00  0.00    -0.251 OA
ATOM      4  N   UNL     1       0.096  -2.945   5.640  0.00  0.00    -0.298 N 
ATOM      5  H   UNL     1       0.047   0.219   5.094  0.00  0.00    +0.174 HD
ATOM      6  H   UNL     1       0.091  -3.253   4.720  0.00  0.00    +0.150 HD
ENDROOT
BRANCH   1   9
ATOM      7  C   UNL     1       0.030  -0.283   2.562  0.00  0.00    +0.267 C 
ATOM      8  O   UNL     1       0.016   0.910   2.805  0.00  0.00    -0.268 OA
ATOM      9  N   UNL     1       0.052  -1.176   3.571  0.00  0.00    -0.229 N 
ATOM     10  H   UNL     1       0.063  -2.126   3.378  0.00  0.00    +0.173 HD
BRANCH   7  16
ATOM     11  C   UNL     1      -0.018   1.503   0.010  0.00  0.00    +0.045 C 
ATOM     12  C   UNL     1       0.002  -0.004   0.002  0.00  0.00    -0.031 A 
ATOM     13  C   UNL     1       0.007  -0.729  -1.166  0.00  0.00    +0.011 A 
ATOM     14  C   UNL     1       0.026  -2.083  -1.101  0.00  0.00    +0.046 A 
ATOM     15  S   UNL     1       0.038  -2.416   0.545  0.00  0.00    -0.092 S 
ATOM     16  C   UNL     1       0.023  -0.748   1.172  0.00  0.00    +0.078 A 
ENDBRANCH   7  16
ENDBRANCH   1   9
BRANCH   4  17
ATOM     17  C   UNL     1       0.119  -3.916   6.737  0.00  0.00    +0.106 C 
BRANCH  17  18
ATOM     18  C   UNL     1       0.133  -5.334   6.163  0.00  0.00    +0.017 C 
BRANCH  18  19
ATOM     19  C   UNL     1       0.158  -6.348   7.308  0.00  0.00    -0.017 C 
BRANCH  19  20
ATOM     20  C   UNL     1       0.172  -7.766   6.734  0.00  0.00    -0.079 C 
BRANCH  20  21
ATOM     21  N   UNL     1       0.195  -8.740   7.834  0.00  0.00    +0.380 N 
ATOM     22  C   UNL     1       1.451  -8.602   8.581  0.00  0.00    -0.076 C 
ATOM     23  C   UNL     1       1.446  -9.557   9.776  0.00  0.00    -0.031 C 
ATOM     24  C   UNL     1       1.306 -10.996   9.271  0.00  0.00    +0.003 C 
ATOM     25  C   UNL     1       0.030 -11.110   8.431  0.00  0.00    -0.031 C 
ATOM     26  C   UNL     1       0.088 -10.097   7.286  0.00  0.00    -0.076 C 
ATOM     27  C   UNL     1      -0.080 -12.525   7.859  0.00  0.00    +0.005 C 
ATOM     28  C   UNL     1       0.271  -9.220  10.694  0.00  0.00    +0.005 C 
ATOM     29  H   UNL     1      -0.582  -8.565   8.453  0.00  0.00    -0.082 HD
ENDBRANCH  20  21
ENDBRANCH  19  20
ENDBRANCH  18  19
ENDBRANCH  17  18
ENDBRANCH   4  17
TORSDOF 7
