REMARK  Name = ZINC16886218
REMARK  9 active torsions:
REMARK  status: ('A' for Active; 'I' for Inactive)
REMARK    1  A    between atoms: C_1  and  C_2
REMARK    2  A    between atoms: C_2  and  O_21
REMARK    3  A    between atoms: C_4  and  C_19
REMARK    4  A    between atoms: C_4  and  C_20
REMARK    5  A    between atoms: C_6  and  S_8
REMARK    6  A    between atoms: S_8  and  C_9
REMARK    7  A    between atoms: C_9  and  C_10
REMARK    8  A    between atoms: C_13  and  O_17
REMARK    9  A    between atoms: O_17  and  C_18
REMARK                            x       y       z     vdW  Elec       q    Type
REMARK                         _______ _______ _______ _____ _____    ______ ____
ROOT
ATOM      1  C   UNL     1       0.269   1.587   0.319  0.00  0.00    +0.063 C 
ATOM      2  C   UNL     1       0.246   0.057   0.317  0.00  0.00    +0.131 C 
ATOM      3  C   UNL     1       0.668  -0.469  -1.062  0.00  0.00    +0.082 C 
ATOM      4  C   UNL     1       2.085   0.027  -1.357  0.00  0.00    +0.039 C 
ATOM      5  N   UNL     1       2.968  -0.241  -0.228  0.00  0.00    -0.363 N 
ATOM      6  C   UNL     1       2.549  -0.451   0.978  0.00  0.00    +0.131 C 
ATOM      7  N   UNL     1       1.212  -0.459   1.300  0.00  0.00    -0.298 N 
ATOM      8  C   UNL     1       2.623  -0.689  -2.599  0.00  0.00    +0.034 C 
ATOM      9  C   UNL     1       2.047   1.534  -1.621  0.00  0.00    +0.034 C 
ATOM     10  H   UNL     1       0.912  -0.798   2.157  0.00  0.00    +0.151 HD
ATOM     11  H   UNL     1       3.925  -0.264  -0.390  0.00  0.00    +0.162 HD
ENDROOT
BRANCH   2  12
ATOM     12  O   UNL     1      -1.067  -0.409   0.636  0.00  0.00    -0.372 OA
ATOM     13  H   UNL     1      -1.386  -0.123   1.503  0.00  0.00    +0.212 HD
ENDBRANCH   2  12
BRANCH   6  14
ATOM     14  S   UNL     1       3.732  -0.738   2.252  0.00  0.00    -0.088 S 
BRANCH  14  15
ATOM     15  C   UNL     1       2.724  -0.978   3.740  0.00  0.00    +0.112 C 
BRANCH  15  16
ATOM     16  C   UNL     1       3.625  -1.236   4.921  0.00  0.00    -0.036 A 
ATOM     17  C   UNL     1       3.996  -2.530   5.237  0.00  0.00    +0.008 A 
ATOM     18  C   UNL     1       4.821  -2.770   6.318  0.00  0.00    +0.047 A 
ATOM     19  C   UNL     1       5.279  -1.710   7.088  0.00  0.00    +0.138 A 
ATOM     20  C   UNL     1       4.907  -0.412   6.769  0.00  0.00    +0.083 A 
ATOM     21  C   UNL     1       4.085  -0.177   5.682  0.00  0.00    +0.028 A 
ATOM     22 CL   UNL     1       5.478   0.917   7.730  0.00  0.00    -0.080 Cl
BRANCH  19  23
ATOM     23  O   UNL     1       6.091  -1.944   8.153  0.00  0.00    -0.494 OA
ATOM     24  C   UNL     1       6.433  -3.305   8.422  0.00  0.00    +0.277 C 
ENDBRANCH  19  23
ENDBRANCH  15  16
ENDBRANCH  14  15
ENDBRANCH   6  14
TORSDOF 5
