REMARK  Name = ZINC52946407
REMARK  9 active torsions:
REMARK  status: ('A' for Active; 'I' for Inactive)
REMARK    1  A    between atoms: C_1  and  C_2
REMARK    2  A    between atoms: C_5  and  C_11
REMARK    3  A    between atoms: C_6  and  C_10
REMARK    4  A    between atoms: C_7  and  O_8
REMARK    5  A    between atoms: O_8  and  C_9
REMARK    6  A    between atoms: C_11  and  C_12
REMARK    7  A    between atoms: C_12  and  C_14
REMARK    8  A    between atoms: C_12  and  C_16
REMARK    9  A    between atoms: C_14  and  N_15
REMARK                            x       y       z     vdW  Elec       q    Type
REMARK                         _______ _______ _______ _____ _____    ______ ____
ROOT
ATOM      1  C   UNL     1       1.585  -4.835  -0.357  0.00  0.00    -0.018 C 
ENDROOT
BRANCH   1   2
ATOM      2  C   UNL     1       1.519  -6.343  -0.610  0.00  0.00    +0.013 C 
ATOM      3  C   UNL     1       2.926  -6.867  -0.942  0.00  0.00    +0.028 C 
ATOM      4  C   UNL     1       2.890  -8.420  -0.884  0.00  0.00    +0.166 C 
ATOM      5  S   UNL     1       1.835  -8.678   0.604  0.00  0.00    -0.031 S 
ATOM      6  O   UNL     1       0.883  -9.695   0.325  0.00  0.00    -0.174 OA
ATOM      7  O   UNL     1       2.670  -8.796   1.748  0.00  0.00    -0.174 OA
ATOM      8  C   UNL     1       0.978  -7.053   0.654  0.00  0.00    +0.169 C 
ENDBRANCH   1   2
BRANCH   1   9
ATOM      9  C   UNL     1       0.188  -4.314  -0.014  0.00  0.00    +0.057 C 
BRANCH   9  14
ATOM     10  C   UNL     1       0.487   1.257   1.323  0.00  0.00    +0.049 C 
ATOM     11  C   UNL     1       0.417  -0.215   1.009  0.00  0.00    +0.010 A 
ATOM     12  C   UNL     1       0.099  -0.645  -0.263  0.00  0.00    +0.118 A 
ATOM     13  N   UNL     1       0.036  -1.933  -0.546  0.00  0.00    -0.259 NA
ATOM     14  C   UNL     1       0.274  -2.858   0.365  0.00  0.00    +0.048 A 
ATOM     15  C   UNL     1       0.599  -2.509   1.659  0.00  0.00    +0.013 A 
ATOM     16  C   UNL     1       0.680  -1.160   1.997  0.00  0.00    +0.129 A 
ATOM     17  C   UNL     1       0.868  -3.573   2.692  0.00  0.00    +0.049 C 
BRANCH  16  18
ATOM     18  O   UNL     1       1.002  -0.777   3.259  0.00  0.00    -0.494 OA
ATOM     19  C   UNL     1      -0.077  -0.604   4.180  0.00  0.00    +0.277 C 
ENDBRANCH  16  18
ENDBRANCH   9  14
ENDBRANCH   1   9
BRANCH   1  20
ATOM     20  C   UNL     1       2.098  -4.129  -1.614  0.00  0.00    -0.082 C 
BRANCH  20  21
ATOM     21  N   UNL     1       1.237  -4.471  -2.754  0.00  0.00    +0.378 N 
ATOM     22  H   UNL     1       1.584  -4.017  -3.585  0.00  0.00    -0.090 HD
ATOM     23  H   UNL     1       1.240  -5.471  -2.890  0.00  0.00    -0.090 HD
ATOM     24  H   UNL     1       0.295  -4.160  -2.569  0.00  0.00    -0.090 HD
ENDBRANCH  20  21
ENDBRANCH   1  20
TORSDOF 6
