REMARK  Name = ZINC52808874
REMARK  6 active torsions:
REMARK  status: ('A' for Active; 'I' for Inactive)
REMARK    1  A    between atoms: C_1  and  O_2
REMARK    2  A    between atoms: O_2  and  C_3
REMARK    3  A    between atoms: C_3  and  C_4
REMARK    4  A    between atoms: C_4  and  C_5
REMARK    5  A    between atoms: C_5  and  C_7
REMARK    6  A    between atoms: C_5  and  N_21
REMARK                            x       y       z     vdW  Elec       q    Type
REMARK                         _______ _______ _______ _____ _____    ______ ____
ROOT
ATOM      1  C   UNL     1       1.379  -4.200  -2.107  0.00  0.00    +0.201 C 
ATOM      2  O   UNL     1       0.579  -4.908  -2.681  0.00  0.00    -0.277 OA
ATOM      3  N   UNL     1       2.333  -4.754  -1.331  0.00  0.00    -0.303 N 
ATOM      4  C   UNL     1       3.305  -3.909  -0.625  0.00  0.00    +0.110 C 
ATOM      5  C   UNL     1       4.719  -4.377  -0.987  0.00  0.00    +0.054 C 
ATOM      6  C   UNL     1       4.844  -5.871  -0.707  0.00  0.00    +0.115 C 
ATOM      7  C   UNL     1       3.837  -6.664  -1.534  0.00  0.00    +0.054 C 
ATOM      8  C   UNL     1       2.413  -6.212  -1.172  0.00  0.00    +0.110 C 
ATOM      9  C   UNL     1       6.250  -6.345  -0.992  0.00  0.00    +0.244 C 
ATOM     10  O   UNL     1       6.834  -6.316  -2.054  0.00  0.00    -0.273 OA
ATOM     11  N   UNL     1       6.720  -6.808   0.185  0.00  0.00    -0.238 N 
ATOM     12  C   UNL     1       5.809  -6.691   1.160  0.00  0.00    +0.307 C 
ATOM     13  O   UNL     1       6.000  -7.039   2.309  0.00  0.00    -0.252 OA
ATOM     14  N   UNL     1       4.659  -6.143   0.725  0.00  0.00    -0.285 N 
ATOM     15  H   UNL     1       7.607  -7.181   0.310  0.00  0.00    +0.159 HD
ATOM     16  H   UNL     1       3.865  -5.963   1.252  0.00  0.00    +0.151 HD
ENDROOT
BRANCH   1  17
ATOM     17  C   UNL     1       1.309  -2.703  -2.261  0.00  0.00    +0.015 C 
BRANCH  17  18
ATOM     18  N   UNL     1       0.548  -2.371  -3.474  0.00  0.00    +0.386 N 
ATOM     19  H   UNL     1       0.501  -1.368  -3.577  0.00  0.00    -0.089 HD
ATOM     20  H   UNL     1       1.007  -2.771  -4.279  0.00  0.00    -0.089 HD
ATOM     21  H   UNL     1      -0.386  -2.746  -3.398  0.00  0.00    -0.089 HD
ENDBRANCH  17  18
BRANCH  17  22
ATOM     22  C   UNL     1       0.613  -2.097  -1.041  0.00  0.00    +0.021 C 
BRANCH  22  23
ATOM     23  C   UNL     1       0.652  -0.570  -1.138  0.00  0.00    +0.158 C 
BRANCH  23  25
ATOM     24  C   UNL     1      -0.017   1.425   0.010  0.00  0.00    +0.193 C 
ATOM     25  O   UNL     1       0.002  -0.004   0.002  0.00  0.00    -0.383 OA
ENDBRANCH  23  25
ENDBRANCH  22  23
ENDBRANCH  17  22
ENDBRANCH   1  17
TORSDOF 5
