REMARK  Name = ZINC54557089
REMARK  9 active torsions:
REMARK  status: ('A' for Active; 'I' for Inactive)
REMARK    1  A    between atoms: C_1  and  C_2
REMARK    2  A    between atoms: C_2  and  C_3
REMARK    3  A    between atoms: C_7  and  C_22
REMARK    4  A    between atoms: N_10  and  C_11
REMARK    5  A    between atoms: C_11  and  C_20
REMARK    6  A    between atoms: C_14  and  C_17
REMARK    7  A    between atoms: C_17  and  C_18
REMARK    8  A    between atoms: C_17  and  C_19
REMARK    9  A    between atoms: C_20  and  N_21
REMARK                            x       y       z     vdW  Elec       q    Type
REMARK                         _______ _______ _______ _____ _____    ______ ____
ROOT
ATOM      1  C   UNL     1      -2.341   1.416  -1.516  0.00  0.00    +0.007 C 
ATOM      2  C   UNL     1      -3.192   2.341  -0.643  0.00  0.00    +0.021 C 
ATOM      3  C   UNL     1      -3.257   3.729  -1.284  0.00  0.00    +0.005 C 
ATOM      4  C   UNL     1      -3.886   3.619  -2.675  0.00  0.00    -0.008 C 
ATOM      5  C   UNL     1      -3.036   2.693  -3.547  0.00  0.00    +0.005 C 
ATOM      6  C   UNL     1      -2.970   1.306  -2.906  0.00  0.00    +0.021 C 
ENDROOT
BRANCH   1  12
ATOM      7  C   UNL     1      -1.191  -0.716  -1.485  0.00  0.00    +0.083 C 
ATOM      8  C   UNL     1      -1.198  -2.113  -0.859  0.00  0.00    +0.179 C 
ATOM      9  O   UNL     1      -1.079  -1.994   0.561  0.00  0.00    -0.374 OA
ATOM     10  C   UNL     1      -2.121  -1.223   1.164  0.00  0.00    +0.129 C 
ATOM     11  C   UNL     1      -2.124   0.183   0.559  0.00  0.00    +0.116 C 
ATOM     12  N   UNL     1      -2.278   0.084  -0.900  0.00  0.00    -0.291 NA
ATOM     13  C   UNL     1      -3.471  -1.895   0.903  0.00  0.00    +0.039 C 
BRANCH   7  15
ATOM     14  C   UNL     1      -2.855  -1.204  -3.284  0.00  0.00    +0.005 C 
ATOM     15  C   UNL     1      -1.399  -0.832  -2.996  0.00  0.00    +0.018 C 
ENDBRANCH   7  15
ENDBRANCH   1  12
BRANCH   4  16
ATOM     16  C   UNL     1      -3.952   5.006  -3.316  0.00  0.00    -0.014 C 
ATOM     17  C   UNL     1      -4.581   4.896  -4.706  0.00  0.00    +0.007 C 
ATOM     18  C   UNL     1      -4.803   5.931  -2.443  0.00  0.00    +0.007 C 
ENDBRANCH   4  16
BRANCH   1  19
ATOM     19  C   UNL     1      -0.927   1.988  -1.639  0.00  0.00    -0.064 C 
BRANCH  19  20
ATOM     20  N   UNL     1      -0.195   1.263  -2.685  0.00  0.00    +0.379 N 
ATOM     21  H   UNL     1      -0.200   0.276  -2.477  0.00  0.00    -0.090 HD
ATOM     22  H   UNL     1      -0.639   1.421  -3.578  0.00  0.00    -0.090 HD
ATOM     23  H   UNL     1       0.758   1.594  -2.720  0.00  0.00    -0.090 HD
ENDBRANCH  19  20
ENDBRANCH   1  19
TORSDOF 5
