REMARK  Name = ZINC39352080
REMARK  8 active torsions:
REMARK  status: ('A' for Active; 'I' for Inactive)
REMARK    1  A    between atoms: C_1  and  N_2
REMARK    2  A    between atoms: N_2  and  C_3
REMARK    3  A    between atoms: N_2  and  C_4
REMARK    4  A    between atoms: C_4  and  C_5
REMARK    5  A    between atoms: C_5  and  N_6
REMARK    6  A    between atoms: C_7  and  C_22
REMARK    7  A    between atoms: C_9  and  C_14
REMARK    8  A    between atoms: C_14  and  C_16
REMARK                            x       y       z     vdW  Elec       q    Type
REMARK                         _______ _______ _______ _____ _____    ______ ____
ROOT
ATOM      1  N   UNL     1       0.618  -1.034   3.365  0.00  0.00    -0.287 N 
ATOM      2  C   UNL     1       0.387  -2.352   3.967  0.00  0.00    +0.140 C 
ATOM      3  C   UNL     1       1.134  -2.353   5.280  0.00  0.00    +0.074 C 
ATOM      4  C   UNL     1       1.727  -1.141   5.393  0.00  0.00    +0.249 C 
ATOM      5  C   UNL     1       1.407  -0.331   4.198  0.00  0.00    +0.287 C 
ATOM      6  O   UNL     1       1.796   0.803   3.999  0.00  0.00    -0.266 OA
ATOM      7  O   UNL     1       2.494  -0.737   6.431  0.00  0.00    -0.282 OA
ENDROOT
BRANCH   2   8
ATOM      8  C   UNL     1       0.928  -3.451   3.051  0.00  0.00    +0.127 C 
ATOM      9  C   UNL     1       0.651  -4.814   3.647  0.00  0.00    +0.001 C 
ATOM     10  C   UNL     1       1.842  -5.377   3.843  0.00  0.00    +0.015 C 
ATOM     11  C   UNL     1       2.894  -4.458   3.408  0.00  0.00    +0.078 C 
ATOM     12  N   UNL     1       2.390  -3.356   2.953  0.00  0.00    -0.382 N 
ATOM     13  H   UNL     1       2.890  -2.600   2.607  0.00  0.00    +0.160 HD
ENDBRANCH   2   8
BRANCH   3  14
ATOM     14  C   UNL     1       1.204  -3.454   6.245  0.00  0.00    +0.195 C 
ATOM     15  O   UNL     1       2.265  -4.011   6.456  0.00  0.00    -0.287 OA
BRANCH  14  16
ATOM     16  C   UNL     1      -0.013  -3.886   6.964  0.00  0.00    +0.022 A 
ATOM     17  C   UNL     1      -1.222  -3.216   6.760  0.00  0.00    +0.012 A 
ATOM     18  C   UNL     1      -2.355  -3.625   7.433  0.00  0.00    +0.001 A 
ATOM     19  C   UNL     1      -2.295  -4.695   8.309  0.00  0.00    +0.000 A 
ATOM     20  C   UNL     1      -1.100  -5.363   8.515  0.00  0.00    +0.001 A 
ATOM     21  C   UNL     1       0.038  -4.968   7.844  0.00  0.00    +0.012 A 
ENDBRANCH  14  16
ENDBRANCH   3  14
BRANCH   1  22
ATOM     22  C   UNL     1       0.089  -0.568   2.080  0.00  0.00    +0.090 C 
BRANCH  22  23
ATOM     23  C   UNL     1       1.132  -0.800   0.985  0.00  0.00    -0.060 C 
BRANCH  23  25
ATOM     24  C   UNL     1       0.252   0.973  -0.370  0.00  0.00    -0.097 C 
ATOM     25  N   UNL     1       0.552  -0.464  -0.322  0.00  0.00    +0.377 N 
ATOM     26  C   UNL     1       1.511  -0.799  -1.383  0.00  0.00    -0.097 C 
ATOM     27  H   UNL     1      -0.298  -0.990  -0.458  0.00  0.00    -0.083 HD
ENDBRANCH  23  25
ENDBRANCH  22  23
ENDBRANCH   1  22
TORSDOF 6
