REMARK  Name = ZINC04279740
REMARK  6 active torsions:
REMARK  status: ('A' for Active; 'I' for Inactive)
REMARK    1  A    between atoms: C_1  and  C_2
REMARK    2  A    between atoms: C_5  and  C_8
REMARK    3  A    between atoms: C_8  and  C_10
REMARK    4  A    between atoms: C_12  and  C_24
REMARK    5  A    between atoms: C_18  and  C_19
REMARK    6  A    between atoms: C_18  and  O_23
REMARK                            x       y       z     vdW  Elec       q    Type
REMARK                         _______ _______ _______ _____ _____    ______ ____
ROOT
ATOM      1  C   UNL     1       3.476   4.065   0.060  0.00  0.00    +0.144 C 
ATOM      2  C   UNL     1       4.889   4.542   0.411  0.00  0.00    +0.123 C 
ATOM      3  N   UNL     1       5.067   5.913  -0.070  0.00  0.00    -0.292 N 
ATOM      4  C   UNL     1       4.402   6.368  -1.143  0.00  0.00    +0.302 C 
ATOM      5  O   UNL     1       4.594   7.512  -1.507  0.00  0.00    -0.253 OA
ATOM      6  N   UNL     1       3.535   5.609  -1.831  0.00  0.00    -0.264 N 
ATOM      7  C   UNL     1       3.270   4.221  -1.450  0.00  0.00    +0.243 C 
ATOM      8  H   UNL     1       5.677   6.505   0.396  0.00  0.00    +0.151 HD
ATOM      9  H   UNL     1       3.074   5.989  -2.595  0.00  0.00    +0.153 HD
ENDROOT
BRANCH   2  10
ATOM     10  C   UNL     1       5.076   4.505   1.906  0.00  0.00    +0.009 A 
ATOM     11  C   UNL     1       4.828   5.635   2.662  0.00  0.00    +0.008 A 
ATOM     12  C   UNL     1       4.999   5.601   4.033  0.00  0.00    +0.000 A 
ATOM     13  C   UNL     1       5.418   4.437   4.650  0.00  0.00    +0.003 A 
ATOM     14  C   UNL     1       5.668   3.307   3.896  0.00  0.00    +0.039 A 
ATOM     15  C   UNL     1       5.492   3.338   2.523  0.00  0.00    +0.128 A 
ATOM     16  F   UNL     1       5.729   2.231   1.786  0.00  0.00    -0.205 F 
ENDBRANCH   2  10
BRANCH   7  17
ATOM     17  C   UNL     1       1.827   3.858  -1.810  0.00  0.00    +0.436 C 
ATOM     18  F   UNL     1       0.948   4.623  -1.037  0.00  0.00    -0.166 F 
ATOM     19  F   UNL     1       1.605   4.119  -3.166  0.00  0.00    -0.166 F 
ATOM     20  F   UNL     1       1.611   2.499  -1.555  0.00  0.00    -0.166 F 
ENDBRANCH   7  17
BRANCH   1  21
ATOM     21  C   UNL     1       3.320   2.617   0.445  0.00  0.00    +0.173 C 
ATOM     22  O   UNL     1       3.985   1.767  -0.109  0.00  0.00    -0.292 OA
BRANCH  21  27
ATOM     23  C   UNL     1      -0.423   1.118   4.543  0.00  0.00    +0.044 C 
ATOM     24  C   UNL     1       0.558   1.511   3.468  0.00  0.00    -0.050 A 
ATOM     25  C   UNL     1       0.789   2.849   3.203  0.00  0.00    +0.004 A 
ATOM     26  C   UNL     1       1.685   3.217   2.222  0.00  0.00    +0.011 A 
ATOM     27  C   UNL     1       2.362   2.233   1.494  0.00  0.00    +0.018 A 
ATOM     28  C   UNL     1       2.124   0.882   1.769  0.00  0.00    +0.011 A 
ATOM     29  C   UNL     1       1.224   0.531   2.753  0.00  0.00    +0.004 A 
ENDBRANCH  21  27
ENDBRANCH   1  21
BRANCH   7  30
ATOM     30  O   UNL     1       4.168   3.355  -2.147  0.00  0.00    -0.364 OA
ATOM     31  H   UNL     1       4.092   3.402  -3.110  0.00  0.00    +0.212 HD
ENDBRANCH   7  30
TORSDOF 5
