REMARK  Name = ZINC22196716
REMARK  12 active torsions:
REMARK  status: ('A' for Active; 'I' for Inactive)
REMARK    1  A    between atoms: C_1  and  N_2
REMARK    2  A    between atoms: N_2  and  C_3
REMARK    3  A    between atoms: N_2  and  C_4
REMARK    4  A    between atoms: C_7  and  C_13
REMARK    5  A    between atoms: C_9  and  N_10
REMARK    6  A    between atoms: N_15  and  C_16
REMARK    7  A    between atoms: C_18  and  S_23
REMARK    8  A    between atoms: C_21  and  O_22
REMARK    9  A    between atoms: S_23  and  N_26
REMARK   10  A    between atoms: N_26  and  C_27
REMARK   11  A    between atoms: C_32  and  O_33
REMARK   12  A    between atoms: O_33  and  C_34
REMARK                            x       y       z     vdW  Elec       q    Type
REMARK                         _______ _______ _______ _____ _____    ______ ____
ROOT
ATOM      1  C   UNL     1      -0.257   2.267   0.643  0.00  0.00    +0.077 A 
ATOM      2  C   UNL     1       1.043   2.718   0.464  0.00  0.00    +0.055 A 
ATOM      3  C   UNL     1       2.074   1.811   0.316  0.00  0.00    +0.110 A 
ATOM      4  C   UNL     1       1.815   0.453   0.345  0.00  0.00    +0.032 A 
ATOM      5  C   UNL     1       0.522  -0.004   0.523  0.00  0.00    +0.049 A 
ATOM      6  C   UNL     1      -0.518   0.899   0.673  0.00  0.00    +0.138 A 
ENDROOT
BRANCH   1   9
ATOM      7  C   UNL     1      -1.086   4.368   1.396  0.00  0.00    +0.248 C 
ATOM      8  O   UNL     1      -0.005   4.600   1.903  0.00  0.00    -0.270 OA
ATOM      9  N   UNL     1      -1.305   3.185   0.788  0.00  0.00    -0.279 N 
ATOM     10  H   UNL     1      -2.307   2.941   0.406  0.00  0.00    +0.155 HD
BRANCH   7  14
ATOM     11  C   UNL     1      -4.170   7.283   1.544  0.00  0.00    +0.060 A 
ATOM     12  C   UNL     1      -4.398   6.062   0.915  0.00  0.00    +0.026 A 
ATOM     13  C   UNL     1      -3.399   5.117   0.861  0.00  0.00    +0.015 A 
ATOM     14  C   UNL     1      -2.157   5.380   1.448  0.00  0.00    +0.039 A 
ATOM     15  C   UNL     1      -1.931   6.607   2.078  0.00  0.00    +0.047 A 
ATOM     16  C   UNL     1      -2.933   7.551   2.124  0.00  0.00    +0.148 A 
BRANCH  11  18
ATOM     17  C   UNL     1      -5.595   8.633   0.240  0.00  0.00    +0.129 C 
ATOM     18  N   UNL     1      -5.179   8.238   1.592  0.00  0.00    -0.334 N 
ATOM     19  C   UNL     1      -6.324   7.754   2.374  0.00  0.00    +0.129 C 
ENDBRANCH  11  18
BRANCH  16  20
ATOM     20  N   UNL     1      -2.694   8.850   2.791  0.00  0.00    +0.058 N 
ATOM     21  O   UNL     1      -1.613   9.085   3.299  0.00  0.00    -0.126 OA
ATOM     22  O   UNL     1      -3.580   9.685   2.832  0.00  0.00    -0.126 OA
ENDBRANCH  16  20
ENDBRANCH   7  14
ENDBRANCH   1   9
BRANCH   3  23
ATOM     23  S   UNL     1       3.724   2.385   0.089  0.00  0.00    +0.073 S 
ATOM     24  O   UNL     1       3.779   3.692   0.644  0.00  0.00    -0.150 OA
ATOM     25  O   UNL     1       4.582   1.338   0.521  0.00  0.00    -0.150 OA
BRANCH  23  26
ATOM     26  N   UNL     1       3.965   2.553  -1.541  0.00  0.00    -0.213 N 
ATOM     27  H   UNL     1       4.755   1.975  -2.042  0.00  0.00    +0.174 HD
BRANCH  26  28
ATOM     28  C   UNL     1       3.163   3.430  -2.280  0.00  0.00    +0.090 A 
ATOM     29  C   UNL     1       2.730   4.621  -1.715  0.00  0.00    +0.028 A 
ATOM     30  C   UNL     1       1.942   5.487  -2.449  0.00  0.00    +0.002 A 
ATOM     31  C   UNL     1       1.575   5.165  -3.743  0.00  0.00    +0.004 A 
ATOM     32  C   UNL     1       1.998   3.978  -4.310  0.00  0.00    +0.047 A 
ATOM     33  C   UNL     1       2.791   3.106  -3.583  0.00  0.00    +0.142 A 
BRANCH  33  34
ATOM     34  O   UNL     1       3.207   1.937  -4.140  0.00  0.00    -0.493 OA
ATOM     35  C   UNL     1       2.788   1.671  -5.481  0.00  0.00    +0.277 C 
ENDBRANCH  33  34
ENDBRANCH  26  28
ENDBRANCH  23  26
ENDBRANCH   3  23
BRANCH   6  36
ATOM     36  O   UNL     1      -1.790   0.451   0.848  0.00  0.00    -0.505 OA
ATOM     37  H   UNL     1      -1.994  -0.629   0.871  0.00  0.00    +0.292 HD
ENDBRANCH   6  36
TORSDOF 9
