REMARK  Name = ZINC66976002
REMARK  11 active torsions:
REMARK  status: ('A' for Active; 'I' for Inactive)
REMARK    1  A    between atoms: C_1  and  N_2
REMARK    2  A    between atoms: N_2  and  C_3
REMARK    3  A    between atoms: N_2  and  C_4
REMARK    4  A    between atoms: C_4  and  C_6
REMARK    5  A    between atoms: C_4  and  C_23
REMARK    6  A    between atoms: C_6  and  N_7
REMARK    7  A    between atoms: N_10  and  C_11
REMARK    8  A    between atoms: C_11  and  C_12
REMARK    9  A    between atoms: C_12  and  O_22
REMARK   10  A    between atoms: C_26  and  O_29
REMARK   11  A    between atoms: O_29  and  C_30
REMARK                            x       y       z     vdW  Elec       q    Type
REMARK                         _______ _______ _______ _____ _____    ______ ____
ROOT
ATOM      1  N   UNL     1      -1.498   1.446  -1.405  0.00  0.00    -0.301 N 
ATOM      2  C   UNL     1      -2.111   2.216  -2.326  0.00  0.00    +0.300 C 
ATOM      3  O   UNL     1      -2.876   1.714  -3.126  0.00  0.00    -0.253 OA
ATOM      4  N   UNL     1      -1.875   3.543  -2.360  0.00  0.00    -0.296 N 
ATOM      5  H   UNL     1      -0.887   1.847  -0.767  0.00  0.00    +0.150 HD
ATOM      6  H   UNL     1      -1.264   3.943  -1.722  0.00  0.00    +0.150 HD
ENDROOT
BRANCH   1   7
ATOM      7  C   UNL     1      -1.754   0.004  -1.369  0.00  0.00    +0.095 C 
BRANCH   7   8
ATOM      8  C   UNL     1      -0.857  -0.646  -0.314  0.00  0.00    -0.021 C 
BRANCH   8   9
ATOM      9  C   UNL     1      -1.237  -0.138   1.053  0.00  0.00    -0.059 A 
ATOM     10  C   UNL     1      -2.330  -0.673   1.709  0.00  0.00    +0.005 A 
ATOM     11  C   UNL     1      -2.681  -0.209   2.961  0.00  0.00    +0.046 A 
ATOM     12  C   UNL     1      -1.936   0.796   3.561  0.00  0.00    +0.120 A 
ATOM     13  C   UNL     1      -0.840   1.332   2.901  0.00  0.00    +0.046 A 
ATOM     14  C   UNL     1      -0.490   0.860   1.651  0.00  0.00    +0.005 A 
BRANCH  12  15
ATOM     15  O   UNL     1      -2.280   1.256   4.793  0.00  0.00    -0.495 OA
ATOM     16  C   UNL     1      -1.468   2.292   5.349  0.00  0.00    +0.277 C 
ENDBRANCH  12  15
ENDBRANCH   8   9
BRANCH   8  18
ATOM     17  C   UNL     1      -0.651  -2.601  -1.689  0.00  0.00    -0.096 C 
ATOM     18  N   UNL     1      -1.027  -2.105  -0.359  0.00  0.00    +0.382 N 
ATOM     19  C   UNL     1      -0.169  -2.729   0.657  0.00  0.00    -0.096 C 
ATOM     20  H   UNL     1      -1.991  -2.337  -0.173  0.00  0.00    -0.082 HD
ENDBRANCH   8  18
ENDBRANCH   7   8
ENDBRANCH   1   7
BRANCH   4  21
ATOM     21  C   UNL     1      -2.541   4.380  -3.361  0.00  0.00    +0.145 C 
BRANCH  21  22
ATOM     22  C   UNL     1      -2.005   5.810  -3.268  0.00  0.00    +0.107 C 
ATOM     23  C   UNL     1      -0.489   5.793  -3.447  0.00  0.00    +0.041 C 
ATOM     24  C   UNL     1       0.001   7.240  -3.569  0.00  0.00    +0.008 C 
ATOM     25  C   UNL     1      -0.473   7.797  -4.910  0.00  0.00    +0.035 C 
ATOM     26  C   UNL     1      -1.952   7.569  -5.085  0.00  0.00    -0.041 A 
ATOM     27  C   UNL     1      -2.655   6.654  -4.333  0.00  0.00    -0.011 A 
ATOM     28  C   UNL     1      -4.016   6.488  -4.550  0.00  0.00    +0.007 A 
ATOM     29  C   UNL     1      -4.670   7.234  -5.508  0.00  0.00    +0.000 A 
ATOM     30  C   UNL     1      -3.966   8.156  -6.259  0.00  0.00    +0.000 A 
ATOM     31  C   UNL     1      -2.612   8.321  -6.047  0.00  0.00    +0.004 A 
BRANCH  22  32
ATOM     32  O   UNL     1      -2.321   6.349  -1.982  0.00  0.00    -0.382 OA
ATOM     33  H   UNL     1      -3.269   6.384  -1.793  0.00  0.00    +0.211 HD
ENDBRANCH  22  32
ENDBRANCH  21  22
ENDBRANCH   4  21
TORSDOF 8
