REMARK  Name = ZINC67304514
REMARK  10 active torsions:
REMARK  status: ('A' for Active; 'I' for Inactive)
REMARK    1  A    between atoms: C_1  and  C_2
REMARK    2  A    between atoms: C_2  and  C_3
REMARK    3  A    between atoms: C_2  and  C_4
REMARK    4  A    between atoms: C_4  and  C_6
REMARK    5  A    between atoms: C_4  and  N_21
REMARK    6  A    between atoms: C_6  and  N_7
REMARK    7  A    between atoms: C_8  and  C_10
REMARK    8  A    between atoms: C_10  and  C_11
REMARK    9  A    between atoms: C_14  and  S_17
REMARK   10  A    between atoms: S_17  and  N_20
REMARK                            x       y       z     vdW  Elec       q    Type
REMARK                         _______ _______ _______ _____ _____    ______ ____
ROOT
ATOM      1  N   UNL     1      -1.776   1.062   2.575  0.00  0.00    -0.317 N 
ATOM      2  C   UNL     1      -1.519   1.866   3.625  0.00  0.00    +0.217 C 
ATOM      3  O   UNL     1      -0.523   2.560   3.627  0.00  0.00    -0.275 OA
ATOM      4  H   UNL     1      -2.572   0.507   2.572  0.00  0.00    +0.149 HD
ENDROOT
BRANCH   1   5
ATOM      5  C   UNL     1      -0.855   1.025   1.436  0.00  0.00    +0.089 C 
BRANCH   5   6
ATOM      6  C   UNL     1      -1.288  -0.075   0.465  0.00  0.00    -0.049 C 
BRANCH   6   7
ATOM      7  N   UNL     1      -1.332  -1.363   1.171  0.00  0.00    +0.383 N 
ATOM      8  C   UNL     1      -0.454  -1.322   2.319  0.00  0.00    -0.078 C 
ATOM      9  C   UNL     1       0.241  -2.677   2.538  0.00  0.00    -0.019 C 
ATOM     10  C   UNL     1      -0.705  -3.873   2.317  0.00  0.00    -0.002 C 
ATOM     11  C   UNL     1      -2.074  -3.667   2.912  0.00  0.00    -0.002 C 
ATOM     12  C   UNL     1      -3.001  -3.033   1.847  0.00  0.00    -0.019 C 
ATOM     13  C   UNL     1      -2.697  -1.617   1.662  0.00  0.00    -0.078 C 
ATOM     14  H   UNL     1      -1.048  -2.104   0.549  0.00  0.00    -0.081 HD
ENDBRANCH   6   7
BRANCH   6  16
ATOM     15  C   UNL     1      -0.132   1.219  -1.333  0.00  0.00    +0.005 C 
ATOM     16  C   UNL     1      -0.286  -0.160  -0.688  0.00  0.00    -0.029 C 
ATOM     17  C   UNL     1       1.069  -0.628  -0.154  0.00  0.00    +0.005 C 
ENDBRANCH   6  16
ENDBRANCH   5   6
ENDBRANCH   1   5
BRANCH   2  18
ATOM     18  C   UNL     1      -2.467   1.904   4.795  0.00  0.00    +0.130 C 
BRANCH  18  19
ATOM     19  C   UNL     1      -1.953   2.876   5.827  0.00  0.00    -0.039 A 
ATOM     20  C   UNL     1      -1.099   2.439   6.822  0.00  0.00    +0.006 A 
ATOM     21  C   UNL     1      -0.627   3.330   7.768  0.00  0.00    +0.029 A 
ATOM     22  C   UNL     1      -1.009   4.658   7.718  0.00  0.00    +0.105 A 
ATOM     23  C   UNL     1      -1.863   5.094   6.722  0.00  0.00    +0.029 A 
ATOM     24  C   UNL     1      -2.331   4.204   5.774  0.00  0.00    +0.006 A 
BRANCH  22  25
ATOM     25  S   UNL     1      -0.409   5.793   8.925  0.00  0.00    +0.056 S 
ATOM     26  O   UNL     1      -1.347   6.860   8.980  0.00  0.00    -0.153 OA
ATOM     27  O   UNL     1      -0.061   5.025  10.068  0.00  0.00    -0.153 OA
BRANCH  25  28
ATOM     28  N   UNL     1       1.001   6.432   8.337  0.00  0.00    -0.204 NA
ATOM     29  H   UNL     1       1.265   7.333   8.583  0.00  0.00    +0.144 HD
ATOM     30  H   UNL     1       1.563   5.906   7.747  0.00  0.00    +0.144 HD
ENDBRANCH  25  28
ENDBRANCH  22  25
ENDBRANCH  18  19
ENDBRANCH   2  18
TORSDOF 8
