REMARK  Name = ZINC61698585
REMARK  10 active torsions:
REMARK  status: ('A' for Active; 'I' for Inactive)
REMARK    1  A    between atoms: C_1  and  C_2
REMARK    2  A    between atoms: C_2  and  C_3
REMARK    3  A    between atoms: C_3  and  N_4
REMARK    4  A    between atoms: N_4  and  C_5
REMARK    5  A    between atoms: C_5  and  C_7
REMARK    6  A    between atoms: C_5  and  C_8
REMARK    7  A    between atoms: C_11  and  N_15
REMARK    8  A    between atoms: C_18  and  C_20
REMARK    9  A    between atoms: C_20  and  C_21
REMARK   10  A    between atoms: C_20  and  C_22
REMARK                            x       y       z     vdW  Elec       q    Type
REMARK                         _______ _______ _______ _____ _____    ______ ____
ROOT
ATOM      1  C   UNL     1      -2.772  -4.013   0.131  0.00  0.00    -0.060 A 
ATOM      2  C   UNL     1      -1.926  -4.756  -0.673  0.00  0.00    +0.004 A 
ATOM      3  C   UNL     1      -1.905  -6.133  -0.570  0.00  0.00    +0.029 A 
ATOM      4  C   UNL     1      -2.734  -6.773   0.342  0.00  0.00    +0.084 A 
ATOM      5  C   UNL     1      -3.583  -6.024   1.149  0.00  0.00    +0.067 A 
ATOM      6  C   UNL     1      -3.595  -4.646   1.044  0.00  0.00    +0.024 A 
ATOM      7 CL   UNL     1      -4.621  -6.819   2.290  0.00  0.00    -0.081 Cl
ENDROOT
BRANCH   4   8
ATOM      8  N   UNL     1      -2.716  -8.171   0.449  0.00  0.00    -0.238 N 
ATOM      9  C   UNL     1      -1.612  -8.947   0.541  0.00  0.00    +0.115 A 
ATOM     10  C   UNL     1      -2.021 -10.234   0.627  0.00  0.00    +0.045 A 
ATOM     11  C   UNL     1      -3.419 -10.246   0.585  0.00  0.00    +0.066 A 
ATOM     12  N   UNL     1      -3.837  -9.010   0.484  0.00  0.00    -0.171 NA
BRANCH  11  13
ATOM     13  C   UNL     1      -4.294 -11.471   0.650  0.00  0.00    +0.033 C 
ATOM     14  C   UNL     1      -4.444 -12.066  -0.752  0.00  0.00    +0.014 C 
ATOM     15  C   UNL     1      -3.654 -12.506   1.577  0.00  0.00    +0.014 C 
ENDBRANCH  11  13
ENDBRANCH   4   8
BRANCH   1  16
ATOM     16  C   UNL     1      -2.792  -2.511   0.015  0.00  0.00    -0.044 C 
ATOM     17  C   UNL     1      -3.647  -2.103  -1.186  0.00  0.00    -0.009 C 
BRANCH  16  18
ATOM     18  N   UNL     1      -1.421  -2.016  -0.168  0.00  0.00    +0.383 N 
ATOM     19  H   UNL     1      -1.059  -2.347  -1.050  0.00  0.00    -0.085 HD
ATOM     20  H   UNL     1      -0.838  -2.354   0.582  0.00  0.00    -0.085 HD
BRANCH  18  21
ATOM     21  C   UNL     1      -1.426  -0.547  -0.161  0.00  0.00    -0.082 C 
BRANCH  21  23
ATOM     22  C   UNL     1      -0.003   1.499  -0.345  0.00  0.00    +0.002 C 
ATOM     23  C   UNL     1       0.002  -0.031  -0.353  0.00  0.00    -0.022 C 
ENDBRANCH  21  23
ENDBRANCH  18  21
ENDBRANCH  16  18
ENDBRANCH   1  16
TORSDOF 6
