REMARK  Name = ZINC66499874
REMARK  7 active torsions:
REMARK  status: ('A' for Active; 'I' for Inactive)
REMARK    1  A    between atoms: C_1  and  C_2
REMARK    2  A    between atoms: C_2  and  C_3
REMARK    3  A    between atoms: C_2  and  C_4
REMARK    4  A    between atoms: N_11  and  C_12
REMARK    5  A    between atoms: C_12  and  C_13
REMARK    6  A    between atoms: C_13  and  C_14
REMARK    7  A    between atoms: N_16  and  N_17
REMARK                            x       y       z     vdW  Elec       q    Type
REMARK                         _______ _______ _______ _____ _____    ______ ____
ROOT
ATOM      1  C   UNL     1      -0.363  -4.681  -2.201  0.00  0.00    +0.228 C 
ATOM      2  O   UNL     1      -0.186  -3.961  -3.161  0.00  0.00    -0.274 OA
ATOM      3  N   UNL     1      -0.162  -6.009  -2.309  0.00  0.00    -0.224 N 
ATOM      4  H   UNL     1      -0.303  -6.585  -1.541  0.00  0.00    +0.174 HD
ENDROOT
BRANCH   3   5
ATOM      5  N   UNL     1       0.251  -6.558  -3.530  0.00  0.00    -0.137 N 
ATOM      6  C   UNL     1      -0.556  -7.247  -4.363  0.00  0.00    +0.263 C 
ATOM      7  O   UNL     1      -1.731  -7.499  -4.205  0.00  0.00    -0.271 OA
ATOM      8  C   UNL     1       0.314  -7.637  -5.536  0.00  0.00    +0.114 C 
ATOM      9  C   UNL     1       0.393  -9.155  -5.657  0.00  0.00    +0.035 C 
ATOM     10  C   UNL     1       1.302  -9.529  -6.830  0.00  0.00    +0.003 C 
ATOM     11  C   UNL     1       0.741  -8.927  -8.120  0.00  0.00    +0.000 C 
ATOM     12  C   UNL     1       0.689  -7.403  -7.993  0.00  0.00    +0.003 C 
ATOM     13  C   UNL     1      -0.222  -7.021  -6.824  0.00  0.00    +0.035 C 
ATOM     14  N   UNL     1       1.630  -7.077  -5.206  0.00  0.00    -0.284 N 
ATOM     15  C   UNL     1       1.494  -6.460  -4.017  0.00  0.00    +0.326 C 
ATOM     16  O   UNL     1       2.399  -5.881  -3.448  0.00  0.00    -0.251 OA
ATOM     17  H   UNL     1       2.438  -7.137  -5.741  0.00  0.00    +0.151 HD
ENDBRANCH   3   5
BRANCH   1  18
ATOM     18  C   UNL     1      -0.807  -4.090  -0.888  0.00  0.00    +0.079 C 
BRANCH  18  19
ATOM     19  C   UNL     1      -0.961  -2.575  -1.036  0.00  0.00    -0.068 C 
BRANCH  19  26
ATOM     20  C   UNL     1      -1.426  -0.535   0.139  0.00  0.00    +0.022 C 
ATOM     21  C   UNL     1      -2.062   0.055   1.365  0.00  0.00    +0.200 C 
ATOM     22  O   UNL     1      -1.879   1.230   1.607  0.00  0.00    -0.278 OA
ATOM     23  N   UNL     1      -2.821  -0.662   2.201  0.00  0.00    -0.318 N 
ATOM     24  C   UNL     1      -3.075  -2.087   2.007  0.00  0.00    +0.085 C 
ATOM     25  C   UNL     1      -2.744  -2.484   0.568  0.00  0.00    -0.059 C 
ATOM     26  N   UNL     1      -1.394  -1.999   0.244  0.00  0.00    +0.389 N 
ATOM     27  H   UNL     1      -3.219  -0.218   2.966  0.00  0.00    +0.149 HD
ATOM     28  H   UNL     1      -0.751  -2.271   0.973  0.00  0.00    -0.081 HD
BRANCH  20  30
ATOM     29  C   UNL     1      -0.037   1.502  -0.267  0.00  0.00    +0.006 C 
ATOM     30  C   UNL     1       0.002  -0.004   0.002  0.00  0.00    -0.022 C 
ATOM     31  C   UNL     1       0.771  -0.271   1.298  0.00  0.00    +0.006 C 
ENDBRANCH  20  30
ENDBRANCH  19  26
ENDBRANCH  18  19
ENDBRANCH   1  18
TORSDOF 5
