REMARK  Name = ZINC64061636
REMARK  4 active torsions:
REMARK  status: ('A' for Active; 'I' for Inactive)
REMARK    1  A    between atoms: C_14  and  C_15
REMARK    2  A    between atoms: C_15  and  N_16
REMARK    3  A    between atoms: C_17  and  C_19
REMARK    4  A    between atoms: C_19  and  C_20
REMARK                            x       y       z     vdW  Elec       q    Type
REMARK                         _______ _______ _______ _____ _____    ______ ____
ROOT
ATOM      1  C   UNL     1      -0.017   1.397   0.010  0.00  0.00    +0.007 A 
ATOM      2  C   UNL     1       1.110   2.140   0.003  0.00  0.00    +0.026 A 
ATOM      3  C   UNL     1       2.386   1.515  -0.013  0.00  0.00    +0.043 A 
ATOM      4  N   UNL     1       3.602   2.012  -0.045  0.00  0.00    -0.378 N 
ATOM      5  C   UNL     1       4.555   0.908   0.035  0.00  0.00    +0.106 C 
ATOM      6  C   UNL     1       5.533   0.901  -1.143  0.00  0.00    +0.029 C 
ATOM      7  C   UNL     1       6.294  -0.429  -1.135  0.00  0.00    +0.003 C 
ATOM      8  C   UNL     1       5.355  -1.604  -1.399  0.00  0.00    +0.004 C 
ATOM      9  C   UNL     1       4.329  -1.723  -0.259  0.00  0.00    +0.033 C 
ATOM     10  C   UNL     1       3.717  -0.356  -0.057  0.00  0.00    -0.038 C 
ATOM     11  C   UNL     1       2.434   0.032  -0.030  0.00  0.00    -0.001 A 
ATOM     12  C   UNL     1       1.161  -0.700  -0.017  0.00  0.00    +0.015 A 
ATOM     13  C   UNL     1       0.002  -0.004   0.002  0.00  0.00    -0.030 A 
ATOM     14  H   UNL     1       3.828   2.953  -0.109  0.00  0.00    +0.160 HD
ENDROOT
BRANCH  13  15
ATOM     15  C   UNL     1      -1.304  -0.755   0.015  0.00  0.00    +0.139 C 
BRANCH  15  16
ATOM     16  N   UNL     1      -1.746  -0.992  -1.362  0.00  0.00    -0.311 N 
ATOM     17  C   UNL     1      -2.897  -1.651  -1.597  0.00  0.00    +0.215 C 
ATOM     18  O   UNL     1      -3.568  -2.049  -0.668  0.00  0.00    -0.276 OA
ATOM     19  H   UNL     1      -1.209  -0.673  -2.104  0.00  0.00    +0.149 HD
BRANCH  17  20
ATOM     20  C   UNL     1      -3.351  -1.894  -3.013  0.00  0.00    +0.118 C 
BRANCH  20  21
ATOM     21  C   UNL     1      -4.677  -2.657  -3.000  0.00  0.00    +0.082 C 
ATOM     22  C   UNL     1      -5.112  -2.998  -4.442  0.00  0.00    +0.032 C 
ATOM     23  C   UNL     1      -6.031  -1.803  -4.786  0.00  0.00    +0.097 C 
ATOM     24  C   UNL     1      -6.518  -1.311  -3.441  0.00  0.00    +0.213 C 
ATOM     25  O   UNL     1      -7.468  -0.575  -3.272  0.00  0.00    -0.276 OA
ATOM     26  N   UNL     1      -5.745  -1.809  -2.457  0.00  0.00    -0.312 N 
ATOM     27  H   UNL     1      -5.877  -1.631  -1.513  0.00  0.00    +0.149 HD
ENDBRANCH  20  21
ENDBRANCH  17  20
ENDBRANCH  15  16
ENDBRANCH  13  15
TORSDOF 4
