REMARK  Name = ZINC57701706
REMARK  12 active torsions:
REMARK  status: ('A' for Active; 'I' for Inactive)
REMARK    1  A    between atoms: C_1  and  C_2
REMARK    2  A    between atoms: N_5  and  C_8
REMARK    3  A    between atoms: C_8  and  C_10
REMARK    4  A    between atoms: C_8  and  C_27
REMARK    5  A    between atoms: C_10  and  N_11
REMARK    6  A    between atoms: N_14  and  C_15
REMARK    7  A    between atoms: C_17  and  C_23
REMARK    8  A    between atoms: C_20  and  O_21
REMARK    9  A    between atoms: O_21  and  C_22
REMARK   10  A    between atoms: N_25  and  C_26
REMARK   11  A    between atoms: C_27  and  C_28
REMARK   12  A    between atoms: C_27  and  C_29
REMARK                            x       y       z     vdW  Elec       q    Type
REMARK                         _______ _______ _______ _____ _____    ______ ____
ROOT
ATOM      1  N   UNL     1       2.010  -3.743   2.220  0.00  0.00    -0.301 N 
ATOM      2  C   UNL     1       2.499  -4.124   3.417  0.00  0.00    +0.304 C 
ATOM      3  O   UNL     1       3.593  -4.649   3.488  0.00  0.00    -0.253 OA
ATOM      4  N   UNL     1       1.774  -3.924   4.536  0.00  0.00    -0.266 N 
ATOM      5  H   UNL     1       1.137  -3.324   2.164  0.00  0.00    +0.150 HD
ATOM      6  H   UNL     1       0.862  -3.599   4.472  0.00  0.00    +0.156 HD
ENDROOT
BRANCH   4   7
ATOM      7  C   UNL     1       2.338  -4.184   5.793  0.00  0.00    +0.077 A 
ATOM      8  C   UNL     1       3.711  -4.148   5.955  0.00  0.00    +0.040 A 
ATOM      9  C   UNL     1       4.270  -4.408   7.209  0.00  0.00    +0.039 A 
ATOM     10  C   UNL     1       3.439  -4.703   8.293  0.00  0.00    +0.017 A 
ATOM     11  C   UNL     1       2.072  -4.738   8.125  0.00  0.00    +0.048 A 
ATOM     12  C   UNL     1       1.515  -4.474   6.881  0.00  0.00    +0.141 A 
BRANCH   9  13
ATOM     13  C   UNL     1       5.734  -4.371   7.389  0.00  0.00    +0.244 C 
ATOM     14  O   UNL     1       6.456  -4.114   6.445  0.00  0.00    -0.270 OA
ATOM     15  N   UNL     1       6.271  -4.622   8.599  0.00  0.00    -0.314 N 
ATOM     16  C   UNL     1       7.725  -4.585   8.777  0.00  0.00    +0.128 C 
ATOM     17  H   UNL     1       5.696  -4.826   9.352  0.00  0.00    +0.149 HD
ENDBRANCH   9  13
BRANCH  12  18
ATOM     18  O   UNL     1       0.167  -4.505   6.721  0.00  0.00    -0.493 OA
ATOM     19  C   UNL     1      -0.616  -4.808   7.878  0.00  0.00    +0.277 C 
ENDBRANCH  12  18
ENDBRANCH   4   7
BRANCH   1  20
ATOM     20  C   UNL     1       2.797  -3.961   1.004  0.00  0.00    +0.091 C 
BRANCH  20  21
ATOM     21  C   UNL     1       2.113  -3.270  -0.177  0.00  0.00    -0.048 C 
BRANCH  21  26
ATOM     22  C   UNL     1       2.980   2.119   1.476  0.00  0.00    +0.007 C 
ATOM     23  C   UNL     1       2.926   0.590   1.434  0.00  0.00    -0.018 C 
ATOM     24  C   UNL     1       1.474   0.133   1.270  0.00  0.00    -0.016 C 
ATOM     25  C   UNL     1       1.435  -1.392   1.149  0.00  0.00    -0.078 C 
ATOM     26  N   UNL     1       2.217  -1.813  -0.020  0.00  0.00    +0.383 N 
ATOM     27  C   UNL     1       3.625  -1.442   0.163  0.00  0.00    -0.078 C 
ATOM     28  C   UNL     1       3.748   0.081   0.246  0.00  0.00    -0.016 C 
ATOM     29  H   UNL     1       1.855  -1.361  -0.846  0.00  0.00    -0.081 HD
ENDBRANCH  21  26
BRANCH  21  30
ATOM     30  C   UNL     1       2.795  -3.692  -1.480  0.00  0.00    -0.029 C 
ATOM     31  C   UNL     1       2.578  -5.190  -1.707  0.00  0.00    +0.005 C 
ATOM     32  C   UNL     1       2.195  -2.907  -2.647  0.00  0.00    +0.005 C 
ENDBRANCH  21  30
ENDBRANCH  20  21
ENDBRANCH   1  20
TORSDOF 7
