REMARK  Name = ZINC02307004
REMARK  4 active torsions:
REMARK  status: ('A' for Active; 'I' for Inactive)
REMARK    1  A    between atoms: C_6  and  N_7
REMARK    2  A    between atoms: C_11  and  C_12
REMARK    3  A    between atoms: C_15  and  O_19
REMARK    4  A    between atoms: C_17  and  O_18
REMARK                            x       y       z     vdW  Elec       q    Type
REMARK                         _______ _______ _______ _____ _____    ______ ____
ROOT
ATOM      1  N   UNL     1      -1.222  -0.778   0.502  0.00  0.00    -0.188 N 
ATOM      2  C   UNL     1      -1.202  -2.067   0.100  0.00  0.00    +0.264 C 
ATOM      3  O   UNL     1      -0.185  -2.573  -0.336  0.00  0.00    -0.269 OA
ATOM      4  C   UNL     1      -2.454  -2.840   0.207  0.00  0.00    +0.102 C 
ATOM      5  C   UNL     1      -2.519  -4.171  -0.184  0.00  0.00    +0.030 C 
ATOM      6  C   UNL     1      -3.628  -2.139   0.747  0.00  0.00    +0.276 C 
ATOM      7  O   UNL     1      -4.811  -2.775   0.878  0.00  0.00    -0.268 OA
ATOM      8  N   UNL     1      -3.498  -0.872   1.101  0.00  0.00    -0.123 NA
ATOM      9  C   UNL     1      -2.342  -0.222   0.989  0.00  0.00    +0.340 C 
ATOM     10  O   UNL     1      -2.300   0.944   1.341  0.00  0.00    -0.250 OA
ENDROOT
BRANCH   1  16
ATOM     11  C   UNL     1       0.462   0.335  -0.826  0.00  0.00    +0.025 A 
ATOM     12  C   UNL     1       1.615   1.092  -0.908  0.00  0.00    +0.017 A 
ATOM     13  C   UNL     1       2.255   1.506   0.246  0.00  0.00    +0.018 A 
ATOM     14  C   UNL     1       1.744   1.163   1.485  0.00  0.00    +0.017 A 
ATOM     15  C   UNL     1       0.592   0.407   1.573  0.00  0.00    +0.025 A 
ATOM     16  C   UNL     1      -0.053  -0.010   0.416  0.00  0.00    +0.046 A 
ATOM     17 BR   UNL     1       3.833   2.542   0.130  0.00  0.00    -0.050 Br
ENDBRANCH   1  16
BRANCH   5  18
ATOM     18  C   UNL     1      -3.772  -4.820  -0.275  0.00  0.00    +0.018 A 
ATOM     19  C   UNL     1      -4.834  -4.213  -0.968  0.00  0.00    +0.015 A 
ATOM     20  C   UNL     1      -6.040  -4.841  -1.054  0.00  0.00    +0.046 A 
ATOM     21  C   UNL     1      -6.231  -6.087  -0.458  0.00  0.00    +0.120 A 
ATOM     22  C   UNL     1      -5.195  -6.704   0.230  0.00  0.00    +0.091 A 
ATOM     23  C   UNL     1      -3.963  -6.083   0.323  0.00  0.00    +0.127 A 
BRANCH  23  24
ATOM     24  O   UNL     1      -2.946  -6.682   0.990  0.00  0.00    -0.506 OA
ATOM     25  H   UNL     1      -2.909  -6.463   1.931  0.00  0.00    +0.292 HD
ENDBRANCH  23  24
BRANCH  21  26
ATOM     26  O   UNL     1      -7.437  -6.701  -0.551  0.00  0.00    -0.507 OA
ATOM     27  H   UNL     1      -7.528  -7.275  -1.324  0.00  0.00    +0.292 HD
ENDBRANCH  21  26
ENDBRANCH   5  18
TORSDOF 4
