REMARK  Name = ZINC21813761
REMARK  10 active torsions:
REMARK  status: ('A' for Active; 'I' for Inactive)
REMARK    1  A    between atoms: C_1  and  C_2
REMARK    2  A    between atoms: C_2  and  C_3
REMARK    3  A    between atoms: C_2  and  C_4
REMARK    4  A    between atoms: C_2  and  C_5
REMARK    5  A    between atoms: C_11  and  N_13
REMARK    6  A    between atoms: N_13  and  C_14
REMARK    7  A    between atoms: C_14  and  C_15
REMARK    8  A    between atoms: C_15  and  C_16
REMARK    9  A    between atoms: C_15  and  C_17
REMARK   10  A    between atoms: C_15  and  N_18
REMARK                            x       y       z     vdW  Elec       q    Type
REMARK                         _______ _______ _______ _____ _____    ______ ____
ROOT
ATOM      1  N   UNL     1       1.972   1.242   1.183  0.00  0.00    +0.382 N 
ATOM      2  H   UNL     1       2.170   0.160   1.175  0.00  0.00    -0.085 HD
ATOM      3  H   UNL     1       1.439   1.525   0.264  0.00  0.00    -0.085 HD
ENDROOT
BRANCH   1   9
ATOM      4  C   UNL     1      -0.320   1.268   2.046  0.00  0.00    -0.020 C 
ATOM      5  C   UNL     1      -1.179   1.619   3.262  0.00  0.00    +0.002 C 
ATOM      6  C   UNL     1      -0.722   0.792   4.466  0.00  0.00    +0.000 C 
ATOM      7  C   UNL     1       0.745   1.103   4.771  0.00  0.00    -0.002 C 
ATOM      8  C   UNL     1       1.604   0.752   3.554  0.00  0.00    -0.015 C 
ATOM      9  C   UNL     1       1.147   1.579   2.351  0.00  0.00    -0.068 C 
BRANCH   4  11
ATOM     10  C   UNL     1      -0.026   1.633  -0.408  0.00  0.00    +0.011 C 
ATOM     11  C   UNL     1      -0.777   2.095   0.843  0.00  0.00    -0.036 C 
ATOM     12  C   UNL     1      -0.482   3.574   1.098  0.00  0.00    +0.011 C 
ATOM     13  C   UNL     1      -2.280   1.903   0.634  0.00  0.00    +0.011 C 
ENDBRANCH   4  11
ENDBRANCH   1   9
BRANCH   1  14
ATOM     14  C   UNL     1       3.256   1.955   1.222  0.00  0.00    -0.060 C 
BRANCH  14  15
ATOM     15  C   UNL     1       4.145   1.468   0.077  0.00  0.00    +0.001 C 
ATOM     16  C   UNL     1       3.462   1.762  -1.260  0.00  0.00    +0.025 C 
ATOM     17  C   UNL     1       5.492   2.192   0.133  0.00  0.00    +0.025 C 
BRANCH  15  18
ATOM     18  N   UNL     1       4.362   0.021   0.208  0.00  0.00    -0.295 NA
ATOM     19  C   UNL     1       4.892  -0.315   1.538  0.00  0.00    +0.113 C 
ATOM     20  C   UNL     1       5.046  -1.834   1.651  0.00  0.00    +0.175 C 
ATOM     21  O   UNL     1       5.892  -2.302   0.598  0.00  0.00    -0.377 OA
ATOM     22  C   UNL     1       5.406  -1.993  -0.711  0.00  0.00    +0.175 C 
ATOM     23  C   UNL     1       5.255  -0.476  -0.849  0.00  0.00    +0.113 C 
ENDBRANCH  15  18
ENDBRANCH  14  15
ENDBRANCH   1  14
TORSDOF 5
