REMARK  Name = ZINC36977305
REMARK  6 active torsions:
REMARK  status: ('A' for Active; 'I' for Inactive)
REMARK    1  A    between atoms: C_1  and  C_2
REMARK    2  A    between atoms: C_2  and  C_3
REMARK    3  A    between atoms: C_3  and  C_5
REMARK    4  A    between atoms: C_3  and  N_13
REMARK    5  A    between atoms: C_10  and  O_11
REMARK    6  A    between atoms: N_13  and  C_14
REMARK                            x       y       z     vdW  Elec       q    Type
REMARK                         _______ _______ _______ _____ _____    ______ ____
ROOT
ATOM      1  C   UNL     1      -0.902  -0.448   0.601  0.00  0.00    -0.037 C 
ENDROOT
BRANCH   1   2
ATOM      2  C   UNL     1      -1.156   0.046  -0.800  0.00  0.00    -0.019 A 
ATOM      3  C   UNL     1      -2.451   0.174  -1.263  0.00  0.00    +0.020 A 
ATOM      4  C   UNL     1      -2.684   0.627  -2.549  0.00  0.00    +0.018 A 
ATOM      5  C   UNL     1      -1.622   0.953  -3.374  0.00  0.00    +0.019 A 
ATOM      6  C   UNL     1      -0.326   0.826  -2.914  0.00  0.00    +0.047 A 
ATOM      7  C   UNL     1      -0.090   0.377  -1.623  0.00  0.00    +0.119 A 
ATOM      8 BR   UNL     1      -4.458   0.801  -3.181  0.00  0.00    -0.050 Br
BRANCH   7   9
ATOM      9  O   UNL     1       1.185   0.257  -1.167  0.00  0.00    -0.507 OA
ATOM     10  H   UNL     1       1.582  -0.609  -1.333  0.00  0.00    +0.292 HD
ENDBRANCH   7   9
ENDBRANCH   1   2
BRANCH   1  11
ATOM     11  N   UNL     1      -2.117  -0.276   1.409  0.00  0.00    +0.391 N 
ATOM     12  H   UNL     1      -2.883  -0.765   0.972  0.00  0.00    -0.084 HD
ATOM     13  H   UNL     1      -1.962  -0.649   2.333  0.00  0.00    -0.084 HD
BRANCH  11  14
ATOM     14  C   UNL     1      -2.441   1.154   1.507  0.00  0.00    +0.017 C 
ATOM     15  C   UNL     1      -3.258   1.410   2.776  0.00  0.00    -0.007 C 
ATOM     16  C   UNL     1      -2.810   0.492   3.898  0.00  0.00    +0.000 C 
ATOM     17  C   UNL     1      -1.403   0.771   4.393  0.00  0.00    +0.019 C 
ATOM     18  C   UNL     1      -0.369   0.438   3.316  0.00  0.00    +0.104 C 
ATOM     19  N   UNL     1      -0.202   1.612   2.445  0.00  0.00    -0.317 N 
ATOM     20  C   UNL     1      -1.162   1.961   1.583  0.00  0.00    +0.199 C 
ATOM     21  O   UNL     1      -1.014   2.928   0.865  0.00  0.00    -0.278 OA
ATOM     22  H   UNL     1       0.613   2.136   2.494  0.00  0.00    +0.149 HD
ENDBRANCH  11  14
ENDBRANCH   1  11
BRANCH   1  24
ATOM     23  C   UNL     1      -0.224  -2.420   1.977  0.00  0.00    +0.002 C 
ATOM     24  C   UNL     1      -0.524  -1.930   0.559  0.00  0.00    -0.014 C 
ENDBRANCH   1  24
TORSDOF 5
