REMARK  Name = ZINC52586734
REMARK  11 active torsions:
REMARK  status: ('A' for Active; 'I' for Inactive)
REMARK    1  A    between atoms: C_1  and  C_2
REMARK    2  A    between atoms: C_2  and  O_3
REMARK    3  A    between atoms: O_3  and  C_4
REMARK    4  A    between atoms: C_7  and  C_10
REMARK    5  A    between atoms: N_12  and  N_13
REMARK    6  A    between atoms: N_16  and  C_17
REMARK    7  A    between atoms: C_17  and  C_18
REMARK    8  A    between atoms: C_18  and  N_26
REMARK    9  A    between atoms: C_22  and  C_25
REMARK   10  A    between atoms: N_26  and  C_27
REMARK   11  A    between atoms: N_26  and  C_28
REMARK                            x       y       z     vdW  Elec       q    Type
REMARK                         _______ _______ _______ _____ _____    ______ ____
ROOT
ATOM      1  N   UNL     1       4.063  -8.194  -3.046  0.00  0.00    -0.218 N 
ATOM      2  C   UNL     1       4.237  -8.487  -4.350  0.00  0.00    +0.316 C 
ATOM      3  O   UNL     1       4.375  -9.643  -4.700  0.00  0.00    -0.251 OA
ATOM      4  N   UNL     1       4.260  -7.498  -5.265  0.00  0.00    -0.300 N 
ATOM      5  H   UNL     1       4.046  -8.906  -2.387  0.00  0.00    +0.174 HD
ATOM      6  H   UNL     1       4.150  -6.576  -4.986  0.00  0.00    +0.150 HD
ENDROOT
BRANCH   1   9
ATOM      7  C   UNL     1       3.730  -6.569  -1.338  0.00  0.00    +0.260 C 
ATOM      8  O   UNL     1       3.710  -7.461  -0.512  0.00  0.00    -0.269 OA
ATOM      9  N   UNL     1       3.905  -6.862  -2.642  0.00  0.00    -0.229 N 
ATOM     10  H   UNL     1       3.921  -6.151  -3.301  0.00  0.00    +0.173 HD
BRANCH   7  14
ATOM     11  C   UNL     1       3.252  -2.531  -0.114  0.00  0.00    +0.121 A 
ATOM     12  C   UNL     1       3.228  -3.550   0.832  0.00  0.00    +0.046 A 
ATOM     13  C   UNL     1       3.382  -4.860   0.439  0.00  0.00    +0.016 A 
ATOM     14  C   UNL     1       3.563  -5.166  -0.913  0.00  0.00    +0.038 A 
ATOM     15  C   UNL     1       3.587  -4.139  -1.860  0.00  0.00    +0.016 A 
ATOM     16  C   UNL     1       3.426  -2.831  -1.460  0.00  0.00    +0.046 A 
BRANCH  11  17
ATOM     17  O   UNL     1       3.099  -1.241   0.277  0.00  0.00    -0.492 OA
BRANCH  17  19
ATOM     18  C   UNL     1       2.769   0.499   1.922  0.00  0.00    +0.048 C 
ATOM     19  C   UNL     1       2.924  -1.003   1.675  0.00  0.00    +0.225 C 
ENDBRANCH  17  19
ENDBRANCH  11  17
ENDBRANCH   7  14
ENDBRANCH   1   9
BRANCH   4  20
ATOM     20  C   UNL     1       4.449  -7.816  -6.683  0.00  0.00    +0.094 C 
BRANCH  20  21
ATOM     21  C   UNL     1       4.272  -6.547  -7.519  0.00  0.00    -0.050 C 
ATOM     22  C   UNL     1       5.176  -5.443  -6.967  0.00  0.00    -0.010 C 
ATOM     23  C   UNL     1       4.999  -4.174  -7.803  0.00  0.00    -0.001 C 
ATOM     24  C   UNL     1       5.377  -4.464  -9.257  0.00  0.00    +0.003 C 
ATOM     25  C   UNL     1       4.473  -5.568  -9.808  0.00  0.00    -0.015 C 
ATOM     26  C   UNL     1       4.650  -6.837  -8.973  0.00  0.00    -0.007 C 
ATOM     27  C   UNL     1       4.850  -5.858 -11.262  0.00  0.00    +0.007 C 
BRANCH  21  28
ATOM     28  N   UNL     1       2.871  -6.110  -7.454  0.00  0.00    +0.381 N 
ATOM     29  C   UNL     1       1.997  -7.198  -7.914  0.00  0.00    -0.096 C 
ATOM     30  C   UNL     1       2.530  -5.761  -6.069  0.00  0.00    -0.096 C 
ATOM     31  H   UNL     1       2.743  -5.303  -8.046  0.00  0.00    -0.082 HD
ENDBRANCH  21  28
ENDBRANCH  20  21
ENDBRANCH   4  20
TORSDOF 7
