REMARK  Name = ZINC36741327
REMARK  5 active torsions:
REMARK  status: ('A' for Active; 'I' for Inactive)
REMARK    1  A    between atoms: C_1  and  C_2
REMARK    2  A    between atoms: C_8  and  C_12
REMARK    3  A    between atoms: C_12  and  C_14
REMARK    4  A    between atoms: C_12  and  O_27
REMARK    5  A    between atoms: C_14  and  N_15
REMARK                            x       y       z     vdW  Elec       q    Type
REMARK                         _______ _______ _______ _____ _____    ______ ____
ROOT
ATOM      1  C   UNL     1       0.026  -2.875   3.702  0.00  0.00    +0.160 C 
ENDROOT
BRANCH   1   9
ATOM      2  C   UNL     1      -0.149   1.468  -0.030  0.00  0.00    +0.044 C 
ATOM      3  C   UNL     1      -0.111  -0.038  -0.028  0.00  0.00    -0.050 A 
ATOM      4  C   UNL     1      -0.116  -0.729  -1.233  0.00  0.00    +0.005 A 
ATOM      5  C   UNL     1      -0.083  -2.106  -1.254  0.00  0.00    +0.026 A 
ATOM      6  C   UNL     1      -0.044  -2.814  -0.057  0.00  0.00    +0.047 A 
ATOM      7  C   UNL     1      -0.039  -2.110   1.161  0.00  0.00    +0.006 A 
ATOM      8  C   UNL     1      -0.068  -0.714   1.159  0.00  0.00    +0.013 A 
ATOM      9  C   UNL     1       0.005  -3.126   2.216  0.00  0.00    +0.007 A 
ATOM     10  C   UNL     1       0.023  -4.322   1.608  0.00  0.00    +0.089 A 
ATOM     11  N   UNL     1      -0.006  -4.156   0.250  0.00  0.00    -0.360 N 
ATOM     12  H   UNL     1       0.001  -4.876  -0.400  0.00  0.00    +0.165 HD
ENDBRANCH   1   9
BRANCH   1  13
ATOM     13  O   UNL     1       0.634  -3.985   4.364  0.00  0.00    -0.386 OA
ATOM     14  H   UNL     1       0.177  -4.826   4.223  0.00  0.00    +0.210 HD
ENDBRANCH   1  13
BRANCH   1  15
ATOM     15  C   UNL     1      -1.407  -2.700   4.210  0.00  0.00    +0.120 C 
BRANCH  15  16
ATOM     16  N   UNL     1      -1.381  -2.338   5.633  0.00  0.00    -0.297 NA
ATOM     17  C   UNL     1      -0.770  -1.016   5.829  0.00  0.00    +0.103 C 
ATOM     18  C   UNL     1      -0.597  -0.754   7.328  0.00  0.00    +0.122 C 
ATOM     19  N   UNL     1      -1.898  -0.942   7.989  0.00  0.00    -0.314 N 
ATOM     20  C   UNL     1      -2.636  -2.188   7.731  0.00  0.00    +0.122 C 
ATOM     21  C   UNL     1      -2.729  -2.393   6.215  0.00  0.00    +0.103 C 
ATOM     22  C   UNL     1      -2.416   0.033   8.834  0.00  0.00    +0.099 A 
ATOM     23  C   UNL     1      -3.700  -0.115   9.350  0.00  0.00    +0.042 A 
ATOM     24  C   UNL     1      -4.203   0.862  10.190  0.00  0.00    +0.005 A 
ATOM     25  C   UNL     1      -3.402   1.958  10.486  0.00  0.00    +0.018 A 
ATOM     26  C   UNL     1      -2.138   2.040   9.939  0.00  0.00    +0.084 A 
ATOM     27  N   UNL     1      -1.682   1.089   9.145  0.00  0.00    -0.350 N 
ATOM     28  H   UNL     1      -0.788   1.169   8.776  0.00  0.00    +0.166 HD
ENDBRANCH  15  16
ENDBRANCH   1  15
TORSDOF 4
