REMARK  Name = ZINC22122728
REMARK  12 active torsions:
REMARK  status: ('A' for Active; 'I' for Inactive)
REMARK    1  A    between atoms: C_1  and  C_2
REMARK    2  A    between atoms: C_3  and  C_25
REMARK    3  A    between atoms: C_4  and  C_24
REMARK    4  A    between atoms: C_7  and  C_8
REMARK    5  A    between atoms: C_8  and  C_10
REMARK    6  A    between atoms: C_10  and  S_11
REMARK    7  A    between atoms: S_11  and  C_12
REMARK    8  A    between atoms: C_15  and  C_18
REMARK    9  A    between atoms: N_16  and  N_17
REMARK   10  A    between atoms: C_22  and  C_23
REMARK   11  A    between atoms: C_25  and  O_27
REMARK   12  A    between atoms: O_27  and  C_28
REMARK                            x       y       z     vdW  Elec       q    Type
REMARK                         _______ _______ _______ _____ _____    ______ ____
ROOT
ATOM      1  C   UNL     1       2.767  -0.128  -0.025  0.00  0.00    +0.158 C 
ENDROOT
BRANCH   1   2
ATOM      2  C   UNL     1       2.450   1.345  -0.015  0.00  0.00    +0.190 C 
ATOM      3  O   UNL     1       3.351   2.160  -0.019  0.00  0.00    -0.290 OA
BRANCH   2  10
ATOM      4  C   UNL     1       1.546   4.320   0.011  0.00  0.00    +0.047 C 
ATOM      5  C   UNL     1       0.675   3.090   0.012  0.00  0.00    -0.008 A 
ATOM      6  C   UNL     1      -0.736   3.058   0.025  0.00  0.00    +0.083 A 
ATOM      7  C   UNL     1      -1.115   1.727   0.016  0.00  0.00    +0.028 A 
ATOM      8  N   UNL     1      -0.011   0.966   0.007  0.00  0.00    -0.355 N 
ATOM      9  H   UNL     1      -0.099  -0.131   0.006  0.00  0.00    +0.166 HD
ATOM     10  C   UNL     1       1.103   1.780   0.001  0.00  0.00    +0.087 A 
ATOM     11  C   UNL     1      -2.533   1.218   0.019  0.00  0.00    +0.064 C 
BRANCH   6  12
ATOM     12  C   UNL     1      -1.636   4.224   0.040  0.00  0.00    +0.341 C 
ATOM     13  O   UNL     1      -2.018   4.710  -1.006  0.00  0.00    -0.245 OA
BRANCH  12  14
ATOM     14  O   UNL     1      -2.037   4.751   1.214  0.00  0.00    -0.464 OA
ATOM     15  C   UNL     1      -2.924   5.898   1.153  0.00  0.00    +0.280 C 
ENDBRANCH  12  14
ENDBRANCH   6  12
ENDBRANCH   2  10
ENDBRANCH   1   2
BRANCH   1  16
ATOM     16  S   UNL     1       4.562  -0.359  -0.044  0.00  0.00    -0.076 S 
BRANCH  16  17
ATOM     17  C   UNL     1       4.643  -2.120  -0.054  0.00  0.00    +0.209 A 
ATOM     18  N   UNL     1       3.624  -2.947  -0.049  0.00  0.00    -0.121 NA
ATOM     19  N   UNL     1       4.041  -4.162  -0.060  0.00  0.00    -0.127 NA
ATOM     20  C   UNL     1       5.353  -4.186  -0.072  0.00  0.00    +0.185 A 
ATOM     21  N   UNL     1       5.780  -2.879  -0.075  0.00  0.00    -0.224 N 
BRANCH  20  22
ATOM     22  C   UNL     1       6.210  -5.391  -0.087  0.00  0.00    +0.061 A 
ATOM     23  C   UNL     1       7.678  -5.435  -0.101  0.00  0.00    +0.053 A 
ATOM     24  C   UNL     1       8.010  -6.737  -0.110  0.00  0.00    +0.196 A 
ATOM     25  O   UNL     1       6.889  -7.475  -0.103  0.00  0.00    -0.467 OA
ATOM     26  C   UNL     1       5.802  -6.689  -0.084  0.00  0.00    +0.112 A 
ATOM     27  C   UNL     1       4.372  -7.164  -0.066  0.00  0.00    +0.087 C 
ENDBRANCH  20  22
BRANCH  21  28
ATOM     28  N   UNL     1       7.071  -2.432  -0.092  0.00  0.00    -0.295 N 
ATOM     29  H   UNL     1       7.902  -3.153  -0.108  0.00  0.00    +0.163 HD
ATOM     30  H   UNL     1       7.279  -1.352  -0.090  0.00  0.00    +0.163 HD
ENDBRANCH  21  28
ENDBRANCH  16  17
ENDBRANCH   1  16
TORSDOF 8
