REMARK  Name = ZINC51991266
REMARK  3 active torsions:
REMARK  status: ('A' for Active; 'I' for Inactive)
REMARK    1  A    between atoms: C_8  and  N_13
REMARK    2  A    between atoms: N_13  and  C_14
REMARK    3  A    between atoms: C_20  and  O_22
REMARK                            x       y       z     vdW  Elec       q    Type
REMARK                         _______ _______ _______ _____ _____    ______ ____
ROOT
ATOM      1  C   UNL     1       3.467  -3.027   3.373  0.00  0.00    +0.017 A 
ATOM      2  C   UNL     1       2.430  -2.284   2.849  0.00  0.00    +0.024 A 
ATOM      3  C   UNL     1       2.643  -1.470   1.738  0.00  0.00    +0.035 A 
ATOM      4  C   UNL     1       3.912  -1.422   1.173  0.00  0.00    -0.030 A 
ATOM      5  C   UNL     1       4.946  -2.163   1.698  0.00  0.00    +0.019 A 
ATOM      6  C   UNL     1       4.726  -2.971   2.801  0.00  0.00    +0.018 A 
ATOM      7 BR   UNL     1       6.142  -3.993   3.526  0.00  0.00    -0.050 Br
ATOM      8  C   UNL     1       3.821  -0.467   0.005  0.00  0.00    +0.049 C 
ATOM      9  C   UNL     1       2.376  -0.015   0.010  0.00  0.00    +0.208 C 
ATOM     10  O   UNL     1       1.862   0.762  -0.766  0.00  0.00    -0.277 OA
ATOM     11  N   UNL     1       1.770  -0.638   1.035  0.00  0.00    -0.286 N 
ATOM     12  H   UNL     1       0.834  -0.522   1.261  0.00  0.00    +0.155 HD
ENDROOT
BRANCH   8  13
ATOM     13  N   UNL     1       4.143  -1.157  -1.251  0.00  0.00    +0.393 N 
ATOM     14  H   UNL     1       3.565  -1.980  -1.340  0.00  0.00    -0.084 HD
ATOM     15  H   UNL     1       3.970  -0.539  -2.029  0.00  0.00    -0.084 HD
BRANCH  13  16
ATOM     16  C   UNL     1       5.558  -1.552  -1.243  0.00  0.00    -0.041 C 
ATOM     17  C   UNL     1       6.437  -0.300  -1.207  0.00  0.00    -0.013 C 
ATOM     18  C   UNL     1       7.910  -0.712  -1.199  0.00  0.00    -0.001 C 
ATOM     19  C   UNL     1       8.222  -1.516  -2.463  0.00  0.00    +0.002 C 
ATOM     20  C   UNL     1       7.343  -2.768  -2.499  0.00  0.00    +0.030 C 
ATOM     21  C   UNL     1       5.869  -2.357  -2.507  0.00  0.00    +0.101 C 
BRANCH  21  22
ATOM     22  O   UNL     1       5.604  -1.555  -3.660  0.00  0.00    -0.393 OA
ATOM     23  H   UNL     1       5.780  -2.003  -4.499  0.00  0.00    +0.210 HD
ENDBRANCH  21  22
ENDBRANCH  13  16
ENDBRANCH   8  13
TORSDOF 3
