REMARK  Name = ZINC63684786
REMARK  11 active torsions:
REMARK  status: ('A' for Active; 'I' for Inactive)
REMARK    1  A    between atoms: C_1  and  C_2
REMARK    2  A    between atoms: C_4  and  C_13
REMARK    3  A    between atoms: C_6  and  S_9
REMARK    4  A    between atoms: C_7  and  C_8
REMARK    5  A    between atoms: S_9  and  N_12
REMARK    6  A    between atoms: N_15  and  C_16
REMARK    7  A    between atoms: C_16  and  C_17
REMARK    8  A    between atoms: C_17  and  C_18
REMARK    9  A    between atoms: C_17  and  N_23
REMARK   10  A    between atoms: N_23  and  C_24
REMARK   11  A    between atoms: N_23  and  C_25
REMARK                            x       y       z     vdW  Elec       q    Type
REMARK                         _______ _______ _______ _____ _____    ______ ____
ROOT
ATOM      1  C   UNL     1      -0.124  -2.620  -2.462  0.00  0.00    +0.244 C 
ATOM      2  O   UNL     1      -0.285  -3.824  -2.405  0.00  0.00    -0.270 OA
ATOM      3  N   UNL     1      -0.047  -2.006  -3.659  0.00  0.00    -0.313 N 
ATOM      4  H   UNL     1       0.082  -1.046  -3.704  0.00  0.00    +0.149 HD
ENDROOT
BRANCH   1   8
ATOM      5  C   UNL     1       0.477   1.776  -0.178  0.00  0.00    +0.044 C 
ATOM      6  C   UNL     1       0.276   0.284  -0.114  0.00  0.00    -0.045 A 
ATOM      7  C   UNL     1       0.173  -0.448  -1.279  0.00  0.00    +0.016 A 
ATOM      8  C   UNL     1      -0.012  -1.830  -1.218  0.00  0.00    +0.039 A 
ATOM      9  C   UNL     1      -0.092  -2.463   0.024  0.00  0.00    +0.041 A 
ATOM     10  C   UNL     1       0.013  -1.719   1.182  0.00  0.00    +0.109 A 
ATOM     11  C   UNL     1       0.202  -0.350   1.114  0.00  0.00    -0.021 A 
ATOM     12  C   UNL     1       0.321   0.455   2.382  0.00  0.00    +0.046 C 
BRANCH  10  13
ATOM     13  S   UNL     1      -0.088  -2.516   2.750  0.00  0.00    +0.056 S 
ATOM     14  O   UNL     1      -1.020  -1.773   3.524  0.00  0.00    -0.153 OA
ATOM     15  O   UNL     1      -0.249  -3.904   2.491  0.00  0.00    -0.153 OA
BRANCH  13  16
ATOM     16  N   UNL     1       1.385  -2.339   3.485  0.00  0.00    -0.204 NA
ATOM     17  H   UNL     1       1.443  -2.296   4.452  0.00  0.00    +0.144 HD
ATOM     18  H   UNL     1       2.191  -2.278   2.948  0.00  0.00    +0.144 HD
ENDBRANCH  13  16
ENDBRANCH  10  13
ENDBRANCH   1   8
BRANCH   3  19
ATOM     19  C   UNL     1      -0.157  -2.789  -4.893  0.00  0.00    +0.094 C 
BRANCH  19  20
ATOM     20  C   UNL     1      -0.150  -1.847  -6.098  0.00  0.00    -0.020 C 
BRANCH  20  21
ATOM     21  C   UNL     1       1.179  -1.141  -6.175  0.00  0.00    -0.052 A 
ATOM     22  C   UNL     1       1.316   0.151  -5.702  0.00  0.00    +0.009 A 
ATOM     23  C   UNL     1       2.525   0.757  -5.787  0.00  0.00    +0.045 A 
ATOM     24  S   UNL     1       3.521  -0.510  -6.554  0.00  0.00    -0.105 S 
ATOM     25  C   UNL     1       2.260  -1.765  -6.705  0.00  0.00    +0.047 A 
ENDBRANCH  20  21
BRANCH  20  26
ATOM     26  N   UNL     1      -0.365  -2.622  -7.327  0.00  0.00    +0.382 N 
ATOM     27  C   UNL     1      -1.656  -3.318  -7.247  0.00  0.00    -0.096 C 
ATOM     28  C   UNL     1      -0.369  -1.715  -8.483  0.00  0.00    -0.096 C 
ATOM     29  H   UNL     1       0.376  -3.298  -7.432  0.00  0.00    -0.082 HD
ENDBRANCH  20  26
ENDBRANCH  19  20
ENDBRANCH   3  19
TORSDOF 7
