REMARK  Name = ZINC06194806
REMARK  9 active torsions:
REMARK  status: ('A' for Active; 'I' for Inactive)
REMARK    1  A    between atoms: C_1  and  C_2
REMARK    2  A    between atoms: C_2  and  O_3
REMARK    3  A    between atoms: O_3  and  C_4
REMARK    4  A    between atoms: C_4  and  C_6
REMARK    5  A    between atoms: C_11  and  C_13
REMARK    6  A    between atoms: C_11  and  C_28
REMARK    7  A    between atoms: C_11  and  N_67
REMARK    8  A    between atoms: N_32  and  C_33
REMARK    9  A    between atoms: C_33  and  C_34
REMARK                            x       y       z     vdW  Elec       q    Type
REMARK                         _______ _______ _______ _____ _____    ______ ____
ROOT
ATOM      1  C   UNL     1      -4.985   1.042   0.056  0.00  0.00    +0.039 C 
ENDROOT
BRANCH   1   2
ATOM      2  C   UNL     1      -3.754   1.904  -0.058  0.00  0.00    +0.011 A 
ATOM      3  C   UNL     1      -3.578   2.691  -1.150  0.00  0.00    +0.017 A 
ATOM      4  C   UNL     1      -2.376   3.520  -1.228  0.00  0.00    +0.002 A 
ATOM      5  C   UNL     1      -2.139   4.346  -2.334  0.00  0.00    +0.059 A 
ATOM      6  C   UNL     1      -0.995   5.112  -2.382  0.00  0.00    +0.167 A 
ATOM      7  C   UNL     1      -0.067   5.061  -1.333  0.00  0.00    +0.168 A 
ATOM      8  C   UNL     1      -0.290   4.243  -0.240  0.00  0.00    +0.075 A 
ATOM      9  C   UNL     1      -1.439   3.465  -0.177  0.00  0.00    +0.053 A 
ATOM     10  N   UNL     1      -1.678   2.643   0.905  0.00  0.00    -0.322 N 
ATOM     11  H   UNL     1      -1.015   2.607   1.653  0.00  0.00    +0.169 HD
ATOM     12  C   UNL     1      -2.789   1.888   0.969  0.00  0.00    +0.251 A 
ATOM     13  O   UNL     1      -2.966   1.173   1.940  0.00  0.00    -0.268 OA
ATOM     14  O   UNL     1       0.963   5.905  -1.627  0.00  0.00    -0.453 OA
ATOM     15  C   UNL     1       0.865   6.158  -3.040  0.00  0.00    +0.466 C 
ATOM     16  O   UNL     1      -0.536   5.987  -3.324  0.00  0.00    -0.453 OA
ENDBRANCH   1   2
BRANCH   1  22
ATOM     17  C   UNL     1      -7.950   2.450   2.795  0.00  0.00    +0.094 C 
ATOM     18  C   UNL     1      -7.658   0.949   2.706  0.00  0.00    -0.004 C 
ATOM     19  C   UNL     1      -6.980   0.645   1.368  0.00  0.00    -0.077 C 
ATOM     20  C   UNL     1      -5.992   2.857   1.300  0.00  0.00    -0.077 C 
ATOM     21  C   UNL     1      -6.641   3.227   2.636  0.00  0.00    -0.004 C 
ATOM     22  N   UNL     1      -5.714   1.405   1.288  0.00  0.00    +0.389 N 
ATOM     23  H   UNL     1      -5.133   1.171   2.101  0.00  0.00    -0.080 HD
BRANCH  17  24
ATOM     24  C   UNL     1      -8.564   2.764   4.135  0.00  0.00    +0.310 C 
ATOM     25  O   UNL     1      -8.748   1.880   4.938  0.00  0.00    -0.251 OA
BRANCH  24  26
ATOM     26  O   UNL     1      -8.905   4.027   4.437  0.00  0.00    -0.465 OA
BRANCH  26  28
ATOM     27  C   UNL     1      -9.811   5.744   5.908  0.00  0.00    +0.048 C 
ATOM     28  C   UNL     1      -9.490   4.256   5.746  0.00  0.00    +0.229 C 
ENDBRANCH  26  28
ENDBRANCH  24  26
ENDBRANCH  17  24
ENDBRANCH   1  22
BRANCH   1  29
ATOM     29  C   UNL     1      -5.856   1.249  -1.157  0.00  0.00    +0.143 A 
ATOM     30  N   UNL     1      -6.617   2.286  -1.405  0.00  0.00    -0.115 NA
ATOM     31  N   UNL     1      -7.200   2.090  -2.538  0.00  0.00    -0.023 NA
ATOM     32  N   UNL     1      -6.837   0.950  -3.013  0.00  0.00    -0.044 NA
ATOM     33  N   UNL     1      -6.009   0.401  -2.191  0.00  0.00    -0.228 N 
BRANCH  33  34
ATOM     34  C   UNL     1      -5.356  -0.901  -2.352  0.00  0.00    +0.178 C 
BRANCH  34  35
ATOM     35  C   UNL     1      -6.228  -1.990  -1.725  0.00  0.00    +0.140 C 
ATOM     36  C   UNL     1      -5.582  -3.383  -1.933  0.00  0.00    +0.035 C 
ATOM     37  C   UNL     1      -6.201  -4.175  -0.749  0.00  0.00    +0.031 C 
ATOM     38  C   UNL     1      -6.309  -3.094   0.348  0.00  0.00    +0.160 C 
ATOM     39  O   UNL     1      -6.295  -1.817  -0.301  0.00  0.00    -0.375 OA
ENDBRANCH  34  35
ENDBRANCH  33  34
ENDBRANCH   1  29
TORSDOF 8
