REMARK  Name = ZINC43258826
REMARK  5 active torsions:
REMARK  status: ('A' for Active; 'I' for Inactive)
REMARK    1  A    between atoms: C_5  and  C_6
REMARK    2  A    between atoms: C_6  and  C_8
REMARK    3  A    between atoms: C_6  and  N_10
REMARK    4  A    between atoms: C_8  and  N_9
REMARK    5  A    between atoms: C_14  and  C_17
REMARK                            x       y       z     vdW  Elec       q    Type
REMARK                         _______ _______ _______ _____ _____    ______ ____
ROOT
ATOM      1  C   UNL     1      -1.156  -0.969   0.009  0.00  0.00    +0.076 C 
ENDROOT
BRANCH   1   6
ATOM      2  C   UNL     1      -0.101   1.387  -0.133  0.00  0.00    +0.014 A 
ATOM      3  C   UNL     1       1.073   2.116  -0.173  0.00  0.00    +0.023 A 
ATOM      4  C   UNL     1       2.257   1.457  -0.128  0.00  0.00    +0.055 A 
ATOM      5  S   UNL     1       1.729  -0.245  -0.025  0.00  0.00    -0.085 S 
ATOM      6  C   UNL     1      -0.034   0.036  -0.049  0.00  0.00    +0.006 A 
ATOM      7 BR   UNL     1       4.013   2.159  -0.164  0.00  0.00    -0.043 Br
ENDBRANCH   1   6
BRANCH   1   8
ATOM      8  N   UNL     1      -0.915  -2.029  -0.979  0.00  0.00    -0.296 NA
ATOM      9  C   UNL     1       0.259  -2.832  -0.614  0.00  0.00    +0.085 C 
ATOM     10  C   UNL     1       0.394  -4.011  -1.580  0.00  0.00    +0.016 C 
ATOM     11  C   UNL     1       0.540  -3.479  -3.009  0.00  0.00    +0.015 C 
ATOM     12  C   UNL     1      -0.673  -2.608  -3.347  0.00  0.00    +0.089 C 
ATOM     13  C   UNL     1      -0.776  -1.469  -2.329  0.00  0.00    +0.097 C 
BRANCH  12  14
ATOM     14  C   UNL     1      -0.509  -2.034  -4.731  0.00  0.00    +0.215 C 
ATOM     15  O   UNL     1      -0.482  -0.831  -4.889  0.00  0.00    -0.276 OA
ATOM     16  N   UNL     1      -0.394  -2.856  -5.792  0.00  0.00    -0.329 N 
ATOM     17  H   UNL     1      -0.416  -3.817  -5.665  0.00  0.00    +0.145 HD
ATOM     18  H   UNL     1      -0.289  -2.486  -6.683  0.00  0.00    +0.145 HD
ENDBRANCH  12  14
ENDBRANCH   1   8
BRANCH   1  19
ATOM     19  C   UNL     1      -1.220  -1.581   1.409  0.00  0.00    -0.062 C 
BRANCH  19  20
ATOM     20  N   UNL     1      -2.233  -2.644   1.433  0.00  0.00    +0.379 N 
ATOM     21  H   UNL     1      -1.987  -3.359   0.764  0.00  0.00    -0.090 HD
ATOM     22  H   UNL     1      -2.276  -3.048   2.356  0.00  0.00    -0.090 HD
ATOM     23  H   UNL     1      -3.134  -2.256   1.194  0.00  0.00    -0.090 HD
ENDBRANCH  19  20
ENDBRANCH   1  19
TORSDOF 5
