REMARK  Name = ZINC57847842
REMARK  9 active torsions:
REMARK  status: ('A' for Active; 'I' for Inactive)
REMARK    1  A    between atoms: C_1  and  C_2
REMARK    2  A    between atoms: C_2  and  C_3
REMARK    3  A    between atoms: C_3  and  C_5
REMARK    4  A    between atoms: C_3  and  N_6
REMARK    5  A    between atoms: C_7  and  C_9
REMARK    6  A    between atoms: C_9  and  N_10
REMARK    7  A    between atoms: N_18  and  C_22
REMARK    8  A    between atoms: C_22  and  C_23
REMARK    9  A    between atoms: C_23  and  O_24
REMARK                            x       y       z     vdW  Elec       q    Type
REMARK                         _______ _______ _______ _____ _____    ______ ____
ROOT
ATOM      1  N   UNL     1      -5.546   0.379   2.436  0.00  0.00    +0.386 N 
ATOM      2  C   UNL     1      -5.875   1.450   1.487  0.00  0.00    -0.076 C 
ATOM      3  C   UNL     1      -7.381   1.445   1.212  0.00  0.00    +0.017 C 
ATOM      4  C   UNL     1      -8.134   1.650   2.522  0.00  0.00    +0.109 C 
ATOM      5  C   UNL     1      -7.721   0.595   3.544  0.00  0.00    +0.017 C 
ATOM      6  C   UNL     1      -6.201   0.634   3.725  0.00  0.00    -0.076 C 
ATOM      7  C   UNL     1      -9.626   1.605   2.289  0.00  0.00    +0.246 C 
ATOM      8  O   UNL     1     -10.273   0.676   1.856  0.00  0.00    -0.273 OA
ATOM      9  N   UNL     1     -10.085   2.817   2.663  0.00  0.00    -0.222 N 
ATOM     10  C   UNL     1      -9.095   3.608   3.096  0.00  0.00    +0.309 C 
ATOM     11  O   UNL     1      -9.261   4.746   3.487  0.00  0.00    -0.252 OA
ATOM     12  N   UNL     1      -7.894   2.999   3.049  0.00  0.00    -0.285 N 
ATOM     13  H   UNL     1      -7.040   3.377   3.312  0.00  0.00    +0.151 HD
ATOM     14  H   UNL     1      -5.865  -0.504   2.067  0.00  0.00    -0.081 HD
ENDROOT
BRANCH   1  15
ATOM     15  C   UNL     1      -4.090   0.329   2.630  0.00  0.00    +0.019 C 
BRANCH  15  17
ATOM     16  N   UNL     1      -2.082  -0.162   1.273  0.00  0.00    -0.314 N 
ATOM     17  C   UNL     1      -3.424  -0.053   1.334  0.00  0.00    +0.197 C 
ATOM     18  O   UNL     1      -4.095  -0.264   0.346  0.00  0.00    -0.278 OA
ATOM     19  H   UNL     1      -1.545   0.006   2.063  0.00  0.00    +0.149 HD
BRANCH  16  20
ATOM     20  C   UNL     1      -1.433  -0.534   0.013  0.00  0.00    +0.070 C 
ATOM     21  C   UNL     1      -1.416  -2.058  -0.121  0.00  0.00    +0.028 C 
BRANCH  20  23
ATOM     22  C   UNL     1      -0.019   1.526   0.010  0.00  0.00    +0.005 C 
ATOM     23  C   UNL     1       0.002  -0.004   0.002  0.00  0.00    +0.018 C 
ENDBRANCH  20  23
ENDBRANCH  16  20
ENDBRANCH  15  17
ENDBRANCH   1  15
BRANCH   9  24
ATOM     24  C   UNL     1     -11.493   3.219   2.604  0.00  0.00    +0.146 C 
BRANCH  24  25
ATOM     25  C   UNL     1     -12.179   2.868   3.925  0.00  0.00    +0.175 C 
BRANCH  25  26
ATOM     26  O   UNL     1     -11.609   3.647   4.979  0.00  0.00    -0.393 OA
ATOM     27  H   UNL     1     -11.997   3.476   5.849  0.00  0.00    +0.209 HD
ENDBRANCH  25  26
ENDBRANCH  24  25
ENDBRANCH   9  24
TORSDOF 7
