REMARK  Name = ZINC04574834
REMARK  6 active torsions:
REMARK  status: ('A' for Active; 'I' for Inactive)
REMARK    1  A    between atoms: C_1  and  C_2
REMARK    2  A    between atoms: C_3  and  C_28
REMARK    3  A    between atoms: C_4  and  C_21
REMARK    4  A    between atoms: C_10  and  S_12
REMARK    5  A    between atoms: S_12  and  C_13
REMARK    6  A    between atoms: C_13  and  C_14
REMARK                            x       y       z     vdW  Elec       q    Type
REMARK                         _______ _______ _______ _____ _____    ______ ____
ROOT
ATOM      1  C   UNL     1      -0.504   1.592  -0.296  0.00  0.00    +0.064 C 
ATOM      2  C   UNL     1      -0.287   0.107  -0.155  0.00  0.00    +0.026 C 
ATOM      3  C   UNL     1      -1.374  -0.722  -0.123  0.00  0.00    +0.059 C 
ATOM      4  C   UNL     1      -1.108  -2.210   0.020  0.00  0.00    +0.167 C 
ATOM      5  N   UNL     1       0.302  -2.608   0.109  0.00  0.00    -0.187 N 
ATOM      6  C   UNL     1       1.272  -1.635   0.060  0.00  0.00    +0.217 C 
ATOM      7  N   UNL     1       0.950  -0.355  -0.071  0.00  0.00    -0.330 N 
ATOM      8  N   UNL     1       2.460  -2.247   0.160  0.00  0.00    -0.190 NA
ATOM      9  C   UNL     1       2.296  -3.553   0.270  0.00  0.00    +0.197 C 
ATOM     10  N   UNL     1       0.957  -3.835   0.243  0.00  0.00    -0.118 NA
ATOM     11  H   UNL     1       1.674   0.289  -0.105  0.00  0.00    +0.168 HD
ENDROOT
BRANCH   4  12
ATOM     12  C   UNL     1      -1.808  -2.696   1.263  0.00  0.00    -0.002 A 
ATOM     13  C   UNL     1      -2.187  -1.794   2.240  0.00  0.00    +0.007 A 
ATOM     14  C   UNL     1      -2.829  -2.239   3.380  0.00  0.00    +0.000 A 
ATOM     15  C   UNL     1      -3.094  -3.586   3.544  0.00  0.00    +0.001 A 
ATOM     16  C   UNL     1      -2.716  -4.488   2.568  0.00  0.00    +0.020 A 
ATOM     17  C   UNL     1      -2.078  -4.043   1.423  0.00  0.00    +0.046 A 
ATOM     18 CL   UNL     1      -1.609  -5.175   0.194  0.00  0.00    -0.083 Cl
ENDBRANCH   4  12
BRANCH   3  19
ATOM     19  C   UNL     1      -2.683  -0.217  -0.217  0.00  0.00    +0.241 C 
ATOM     20  O   UNL     1      -2.873   0.986  -0.222  0.00  0.00    -0.271 OA
ATOM     21  N   UNL     1      -3.727  -1.065  -0.302  0.00  0.00    -0.325 N 
ATOM     22  H   UNL     1      -3.583  -2.022  -0.226  0.00  0.00    +0.145 HD
ATOM     23  H   UNL     1      -4.623  -0.719  -0.439  0.00  0.00    +0.145 HD
ENDBRANCH   3  19
BRANCH   9  24
ATOM     24  S   UNL     1       3.589  -4.739   0.424  0.00  0.00    -0.082 S 
BRANCH  24  25
ATOM     25  C   UNL     1       5.104  -3.742   0.394  0.00  0.00    +0.115 C 
BRANCH  25  26
ATOM     26  C   UNL     1       6.303  -4.646   0.521  0.00  0.00    -0.002 A 
ATOM     27  C   UNL     1       6.804  -4.960   1.770  0.00  0.00    +0.007 A 
ATOM     28  C   UNL     1       7.904  -5.789   1.887  0.00  0.00    +0.000 A 
ATOM     29  C   UNL     1       8.504  -6.306   0.753  0.00  0.00    +0.003 A 
ATOM     30  C   UNL     1       8.005  -5.994  -0.497  0.00  0.00    +0.038 A 
ATOM     31  C   UNL     1       6.900  -5.168  -0.614  0.00  0.00    +0.127 A 
ATOM     32  F   UNL     1       6.409  -4.865  -1.836  0.00  0.00    -0.205 F 
ENDBRANCH  25  26
ENDBRANCH  24  25
ENDBRANCH   9  24
TORSDOF 5
