REMARK  Name = ZINC16033788
REMARK  4 active torsions:
REMARK  status: ('A' for Active; 'I' for Inactive)
REMARK    1  A    between atoms: C_1  and  C_2
REMARK    2  A    between atoms: C_2  and  C_3
REMARK    3  A    between atoms: C_2  and  C_4
REMARK    4  A    between atoms: N_12  and  C_15
REMARK                            x       y       z     vdW  Elec       q    Type
REMARK                         _______ _______ _______ _____ _____    ______ ____
ROOT
ATOM      1  C   UNL     1      -1.530  -0.584  -0.015  0.00  0.00    +0.070 C 
ATOM      2  C   UNL     1      -1.440  -2.114   0.171  0.00  0.00    +0.107 C 
ATOM      3  C   UNL     1      -2.648  -2.477   1.079  0.00  0.00    +0.123 C 
ATOM      4  C   UNL     1      -1.991  -2.981   2.345  0.00  0.00    +0.233 C 
ATOM      5  O   UNL     1      -2.578  -3.380   3.328  0.00  0.00    -0.274 OA
ATOM      6  N   UNL     1      -0.661  -2.917   2.212  0.00  0.00    -0.209 N 
ATOM      7  C   UNL     1      -0.234  -2.444   1.019  0.00  0.00    +0.232 C 
ATOM      8  O   UNL     1       0.921  -2.303   0.679  0.00  0.00    -0.274 OA
ATOM      9  C   UNL     1      -3.349  -1.139   1.343  0.00  0.00    +0.136 C 
ATOM     10  N   UNL     1      -2.309  -0.100   1.156  0.00  0.00    -0.295 NA
ATOM     11  C   UNL     1      -4.523  -0.943   0.426  0.00  0.00    +0.003 A 
ATOM     12  C   UNL     1      -4.658  -0.891  -0.943  0.00  0.00    +0.008 A 
ATOM     13  C   UNL     1      -5.905  -0.692  -1.509  0.00  0.00    +0.000 A 
ATOM     14  C   UNL     1      -7.014  -0.546  -0.695  0.00  0.00    +0.002 A 
ATOM     15  C   UNL     1      -6.883  -0.597   0.677  0.00  0.00    +0.023 A 
ATOM     16  C   UNL     1      -5.631  -0.796   1.255  0.00  0.00    +0.039 A 
ATOM     17  N   UNL     1      -5.247  -0.882   2.595  0.00  0.00    -0.283 N 
ATOM     18  C   UNL     1      -3.922  -1.082   2.732  0.00  0.00    +0.243 C 
ATOM     19  O   UNL     1      -3.311  -1.195   3.774  0.00  0.00    -0.273 OA
ATOM     20  H   UNL     1      -1.720  -0.013   1.971  0.00  0.00    +0.124 HD
ATOM     21  H   UNL     1      -5.864  -0.807   3.340  0.00  0.00    +0.155 HD
ENDROOT
BRANCH   6  22
ATOM     22  C   UNL     1       0.220  -3.314   3.224  0.00  0.00    +0.052 A 
ATOM     23  C   UNL     1       0.731  -4.593   3.237  0.00  0.00    +0.024 A 
ATOM     24  C   UNL     1       1.609  -4.999   4.238  0.00  0.00    +0.002 A 
ATOM     25  C   UNL     1       1.986  -4.145   5.230  0.00  0.00    +0.008 A 
ATOM     26  C   UNL     1       1.488  -2.832   5.252  0.00  0.00    -0.016 A 
ATOM     27  C   UNL     1       0.598  -2.406   4.235  0.00  0.00    +0.004 A 
ATOM     28  C   UNL     1       0.104  -1.092   4.256  0.00  0.00    +0.010 A 
ATOM     29  C   UNL     1       0.490  -0.243   5.248  0.00  0.00    +0.001 A 
ATOM     30  C   UNL     1       1.370  -0.659   6.245  0.00  0.00    +0.001 A 
ATOM     31  C   UNL     1       1.859  -1.929   6.263  0.00  0.00    +0.008 A 
ENDBRANCH   6  22
BRANCH   1  33
ATOM     32  C   UNL     1       0.604  -0.368  -1.297  0.00  0.00    +0.009 C 
ATOM     33  C   UNL     1      -0.131   0.035  -0.017  0.00  0.00    +0.001 C 
ATOM     34  C   UNL     1      -0.247   1.559   0.046  0.00  0.00    +0.009 C 
ENDBRANCH   1  33
TORSDOF 2
