REMARK  Name = ZINC42441107
REMARK  9 active torsions:
REMARK  status: ('A' for Active; 'I' for Inactive)
REMARK    1  A    between atoms: C_1  and  C_2
REMARK    2  A    between atoms: C_2  and  C_3
REMARK    3  A    between atoms: C_3  and  C_5
REMARK    4  A    between atoms: C_3  and  N_10
REMARK    5  A    between atoms: C_5  and  C_6
REMARK    6  A    between atoms: N_7  and  O_8
REMARK    7  A    between atoms: N_10  and  C_11
REMARK    8  A    between atoms: N_10  and  C_12
REMARK    9  A    between atoms: C_12  and  C_13
REMARK                            x       y       z     vdW  Elec       q    Type
REMARK                         _______ _______ _______ _____ _____    ______ ____
ROOT
ATOM      1  C   UNL     1       0.458  -0.821  -1.411  0.00  0.00    -0.062 C 
ENDROOT
BRANCH   1   2
ATOM      2  N   UNL     1      -0.100  -0.449  -2.718  0.00  0.00    +0.383 N 
ATOM      3  C   UNL     1       0.648  -1.131  -3.782  0.00  0.00    -0.095 C 
ATOM      4  H   UNL     1      -1.070  -0.722  -2.759  0.00  0.00    -0.081 HD
BRANCH   2   5
ATOM      5  C   UNL     1       0.007   1.005  -2.899  0.00  0.00    -0.042 C 
BRANCH   5   6
ATOM      6  C   UNL     1      -0.721   1.410  -4.155  0.00  0.00    -0.050 A 
ATOM      7  C   UNL     1      -0.014   1.638  -5.321  0.00  0.00    +0.003 A 
ATOM      8  C   UNL     1      -0.682   2.008  -6.473  0.00  0.00    +0.000 A 
ATOM      9  C   UNL     1      -2.058   2.151  -6.460  0.00  0.00    +0.001 A 
ATOM     10  C   UNL     1      -2.765   1.923  -5.294  0.00  0.00    +0.015 A 
ATOM     11  C   UNL     1      -2.097   1.547  -4.142  0.00  0.00    +0.019 A 
ATOM     12 BR   UNL     1      -3.065   1.228  -2.550  0.00  0.00    -0.050 Br
ENDBRANCH   5   6
ENDBRANCH   2   5
ENDBRANCH   1   2
BRANCH   1  14
ATOM     13  C   UNL     1      -1.292  -2.558  -1.008  0.00  0.00    +0.002 C 
ATOM     14  C   UNL     1       0.210  -2.309  -1.156  0.00  0.00    -0.018 C 
ENDBRANCH   1  14
BRANCH   1  15
ATOM     15  C   UNL     1       1.963  -0.547  -1.402  0.00  0.00    +0.059 C 
BRANCH  15  16
ATOM     16  C   UNL     1       2.204   0.928  -1.207  0.00  0.00    +0.130 C 
ATOM     17  N   UNL     1       1.212   1.716  -0.952  0.00  0.00    -0.077 NA
ATOM     18  N   UNL     1       3.480   1.436  -1.302  0.00  0.00    -0.344 N 
ATOM     19  H   UNL     1       4.225   0.845  -1.494  0.00  0.00    +0.143 HD
ATOM     20  H   UNL     1       3.635   2.386  -1.177  0.00  0.00    +0.143 HD
BRANCH  17  21
ATOM     21  O   UNL     1       1.438   3.102  -0.769  0.00  0.00    -0.408 OA
ATOM     22  H   UNL     1       0.636   3.610  -0.582  0.00  0.00    +0.328 HD
ENDBRANCH  17  21
ENDBRANCH  15  16
ENDBRANCH   1  15
TORSDOF 7
