REMARK  Name = ZINC55193783
REMARK  9 active torsions:
REMARK  status: ('A' for Active; 'I' for Inactive)
REMARK    1  A    between atoms: C_1  and  C_2
REMARK    2  A    between atoms: C_5  and  C_11
REMARK    3  A    between atoms: C_5  and  N_21
REMARK    4  A    between atoms: C_7  and  C_9
REMARK    5  A    between atoms: C_7  and  C_10
REMARK    6  A    between atoms: C_14  and  O_19
REMARK    7  A    between atoms: C_15  and  O_17
REMARK    8  A    between atoms: O_17  and  C_18
REMARK    9  A    between atoms: O_19  and  C_20
REMARK                            x       y       z     vdW  Elec       q    Type
REMARK                         _______ _______ _______ _____ _____    ______ ____
ROOT
ATOM      1  C   UNL     1       0.179   1.024   1.646  0.00  0.00    +0.007 C 
ATOM      2  C   UNL     1       0.141  -0.360   0.995  0.00  0.00    -0.015 C 
ATOM      3  C   UNL     1       0.636  -0.259  -0.449  0.00  0.00    -0.005 C 
ATOM      4  C   UNL     1       0.598  -1.643  -1.100  0.00  0.00    -0.044 C 
ATOM      5  C   UNL     1       1.501  -2.599  -0.318  0.00  0.00    -0.002 C 
ATOM      6  C   UNL     1       1.006  -2.701   1.127  0.00  0.00    -0.036 C 
ATOM      7  C   UNL     1       1.043  -1.317   1.777  0.00  0.00    +0.009 C 
ATOM      8  C   UNL     1      -0.430  -3.231   1.137  0.00  0.00    +0.011 C 
ATOM      9  C   UNL     1       1.908  -3.657   1.909  0.00  0.00    +0.011 C 
ENDROOT
BRANCH   4  10
ATOM     10  C   UNL     1      -0.815  -2.164  -1.089  0.00  0.00    -0.055 A 
ATOM     11  C   UNL     1      -1.860  -1.319  -0.765  0.00  0.00    +0.006 A 
ATOM     12  C   UNL     1      -3.159  -1.792  -0.754  0.00  0.00    +0.049 A 
ATOM     13  C   UNL     1      -3.416  -3.117  -1.068  0.00  0.00    +0.161 A 
ATOM     14  C   UNL     1      -2.364  -3.968  -1.395  0.00  0.00    +0.162 A 
ATOM     15  C   UNL     1      -1.065  -3.486  -1.409  0.00  0.00    +0.051 A 
BRANCH  14  16
ATOM     16  O   UNL     1      -2.611  -5.269  -1.704  0.00  0.00    -0.491 OA
ATOM     17  C   UNL     1      -1.484  -6.085  -2.029  0.00  0.00    +0.277 C 
ENDBRANCH  14  16
BRANCH  13  18
ATOM     18  O   UNL     1      -4.693  -3.585  -1.057  0.00  0.00    -0.491 OA
ATOM     19  C   UNL     1      -5.721  -2.655  -0.713  0.00  0.00    +0.277 C 
ENDBRANCH  13  18
ENDBRANCH   4  10
BRANCH   4  20
ATOM     20  N   UNL     1       1.074  -1.545  -2.486  0.00  0.00    +0.385 N 
ATOM     21  H   UNL     1       2.020  -1.196  -2.494  0.00  0.00    -0.089 HD
ATOM     22  H   UNL     1       1.049  -2.458  -2.916  0.00  0.00    -0.089 HD
ATOM     23  H   UNL     1       0.479  -0.914  -3.002  0.00  0.00    -0.089 HD
ENDBRANCH   4  20
TORSDOF 4
