REMARK  Name = ZINC62424969
REMARK  6 active torsions:
REMARK  status: ('A' for Active; 'I' for Inactive)
REMARK    1  A    between atoms: C_1  and  C_2
REMARK    2  A    between atoms: C_2  and  C_3
REMARK    3  A    between atoms: C_2  and  C_4
REMARK    4  A    between atoms: C_5  and  C_21
REMARK    5  A    between atoms: C_11  and  C_14
REMARK    6  A    between atoms: C_21  and  N_22
REMARK                            x       y       z     vdW  Elec       q    Type
REMARK                         _______ _______ _______ _____ _____    ______ ____
ROOT
ATOM      1  C   UNL     1      -1.556  -0.491  -0.210  0.00  0.00    +0.071 A 
ATOM      2  C   UNL     1      -1.923  -1.421  -1.117  0.00  0.00    +0.069 A 
ATOM      3  N   UNL     1      -3.147  -1.858  -0.820  0.00  0.00    -0.136 NA
ATOM      4  N   UNL     1      -3.585  -1.257   0.231  0.00  0.00    -0.059 NA
ATOM      5  N   UNL     1      -2.591  -0.367   0.668  0.00  0.00    -0.192 N 
ATOM      6  C   UNL     1      -2.653   0.477   1.776  0.00  0.00    +0.196 A 
ATOM      7  N   UNL     1      -3.590   0.550   2.692  0.00  0.00    -0.221 NA
ATOM      8  C   UNL     1      -3.505   1.413   3.695  0.00  0.00    +0.080 A 
ATOM      9  C   UNL     1      -2.396   2.214   3.720  0.00  0.00    +0.077 A 
ATOM     10  S   UNL     1      -1.539   1.641   2.262  0.00  0.00    -0.056 S 
ENDROOT
BRANCH   8  11
ATOM     11  C   UNL     1      -4.558   1.506   4.736  0.00  0.00    +0.001 A 
ATOM     12  C   UNL     1      -4.436   2.429   5.772  0.00  0.00    +0.013 A 
ATOM     13  C   UNL     1      -5.418   2.512   6.738  0.00  0.00    +0.039 A 
ATOM     14  C   UNL     1      -6.523   1.678   6.679  0.00  0.00    +0.123 A 
ATOM     15  C   UNL     1      -6.647   0.758   5.651  0.00  0.00    +0.039 A 
ATOM     16  C   UNL     1      -5.674   0.673   4.677  0.00  0.00    +0.013 A 
ATOM     17  F   UNL     1      -7.481   1.762   7.628  0.00  0.00    -0.205 F 
ENDBRANCH   8  11
BRANCH   1  19
ATOM     18  C   UNL     1       0.912  -0.734  -0.197  0.00  0.00    +0.014 C 
ATOM     19  C   UNL     1      -0.250   0.261  -0.172  0.00  0.00    +0.034 C 
ATOM     20  C   UNL     1      -0.157   1.184  -1.389  0.00  0.00    +0.014 C 
ENDBRANCH   1  19
BRANCH   2  21
ATOM     21  C   UNL     1      -1.085  -1.888  -2.279  0.00  0.00    -0.026 C 
BRANCH  21  22
ATOM     22  N   UNL     1      -0.363  -3.111  -1.902  0.00  0.00    +0.382 N 
ATOM     23  H   UNL     1       0.201  -2.930  -1.085  0.00  0.00    -0.090 HD
ATOM     24  H   UNL     1      -1.027  -3.843  -1.697  0.00  0.00    -0.090 HD
ATOM     25  H   UNL     1       0.232  -3.399  -2.664  0.00  0.00    -0.090 HD
ENDBRANCH  21  22
ENDBRANCH   2  21
TORSDOF 4
