REMARK  Name = ZINC36749493
REMARK  6 active torsions:
REMARK  status: ('A' for Active; 'I' for Inactive)
REMARK    1  A    between atoms: C_1  and  C_2
REMARK    2  A    between atoms: C_3  and  N_17
REMARK    3  A    between atoms: C_4  and  O_8
REMARK    4  A    between atoms: N_5  and  C_7
REMARK    5  A    between atoms: O_8  and  C_9
REMARK    6  A    between atoms: C_12  and  C_15
REMARK                            x       y       z     vdW  Elec       q    Type
REMARK                         _______ _______ _______ _____ _____    ______ ____
ROOT
ATOM      1  C   UNL     1      -0.006   1.508  -0.007  0.00  0.00    +0.069 C 
ATOM      2  C   UNL     1       0.010   0.002  -0.011  0.00  0.00    +0.084 A 
ATOM      3  C   UNL     1       0.015  -0.815  -1.148  0.00  0.00    +0.110 A 
ATOM      4  C   UNL     1       0.032  -2.112  -0.731  0.00  0.00    +0.240 A 
ATOM      5  N   UNL     1       0.037  -2.102   0.630  0.00  0.00    -0.234 N 
ATOM      6  N   UNL     1       0.029  -0.766   1.050  0.00  0.00    -0.172 NA
ATOM      7  C   UNL     1       0.054  -3.280   1.500  0.00  0.00    +0.176 C 
ENDROOT
BRANCH   3   8
ATOM      8  N   UNL     1       0.004  -0.373  -2.490  0.00  0.00    -0.352 N 
ATOM      9  H   UNL     1      -0.008   0.577  -2.687  0.00  0.00    +0.143 HD
ATOM     10  H   UNL     1       0.008  -1.019  -3.213  0.00  0.00    +0.143 HD
ENDBRANCH   3   8
BRANCH   4  11
ATOM     11  O   UNL     1       0.041  -3.213  -1.527  0.00  0.00    -0.437 OA
BRANCH  11  12
ATOM     12  C   UNL     1       1.243  -3.717  -1.904  0.00  0.00    +0.130 A 
ATOM     13  C   UNL     1       2.414  -3.179  -1.383  0.00  0.00    +0.047 A 
ATOM     14  C   UNL     1       3.636  -3.688  -1.762  0.00  0.00    +0.022 A 
ATOM     15  C   UNL     1       3.698  -4.747  -2.672  0.00  0.00    +0.052 A 
ATOM     16  C   UNL     1       2.518  -5.285  -3.194  0.00  0.00    +0.022 A 
ATOM     17  C   UNL     1       1.300  -4.774  -2.805  0.00  0.00    +0.047 A 
BRANCH  15  18
ATOM     18  C   UNL     1       4.966  -5.280  -3.070  0.00  0.00    +0.099 C 
ATOM     19  N   UNL     1       5.973  -5.702  -3.385  0.00  0.00    -0.191 NA
ENDBRANCH  15  18
ENDBRANCH  11  12
ENDBRANCH   4  11
TORSDOF 4
