REMARK  Name = ZINC45563718
REMARK  10 active torsions:
REMARK  status: ('A' for Active; 'I' for Inactive)
REMARK    1  A    between atoms: C_1  and  C_2
REMARK    2  A    between atoms: C_9  and  C_11
REMARK    3  A    between atoms: N_13  and  N_14
REMARK    4  A    between atoms: N_17  and  C_18
REMARK    5  A    between atoms: C_18  and  C_19
REMARK    6  A    between atoms: C_19  and  C_20
REMARK    7  A    between atoms: C_19  and  C_21
REMARK    8  A    between atoms: C_19  and  N_22
REMARK    9  A    between atoms: N_22  and  C_23
REMARK   10  A    between atoms: N_22  and  C_24
REMARK                            x       y       z     vdW  Elec       q    Type
REMARK                         _______ _______ _______ _____ _____    ______ ____
ROOT
ATOM      1  C   UNL     1       2.384  -5.150   2.537  0.00  0.00    +0.267 C 
ATOM      2  O   UNL     1       2.637  -4.846   3.688  0.00  0.00    -0.268 OA
ATOM      3  N   UNL     1       2.301  -6.448   2.186  0.00  0.00    -0.229 N 
ATOM      4  H   UNL     1       2.098  -6.690   1.269  0.00  0.00    +0.173 HD
ENDROOT
BRANCH   1  12
ATOM      5  C   UNL     1       1.389   1.590  -0.760  0.00  0.00    +0.008 C 
ATOM      6  C   UNL     1       1.234   0.070  -0.668  0.00  0.00    -0.009 C 
ATOM      7  C   UNL     1       1.818  -0.578  -1.927  0.00  0.00    +0.009 C 
ATOM      8  C   UNL     1       1.417  -2.059  -1.950  0.00  0.00    +0.043 C 
ATOM      9  C   UNL     1       1.707  -2.651  -0.603  0.00  0.00    -0.006 A 
ATOM     10  C   UNL     1       1.962  -1.968   0.551  0.00  0.00    -0.036 A 
ATOM     11  C   UNL     1       2.206  -2.729   1.684  0.00  0.00    +0.024 A 
ATOM     12  C   UNL     1       2.168  -4.104   1.534  0.00  0.00    +0.076 A 
ATOM     13  S   UNL     1       1.787  -4.270  -0.200  0.00  0.00    -0.088 S 
ATOM     14  C   UNL     1       1.972  -0.442   0.568  0.00  0.00    +0.039 C 
ENDBRANCH   1  12
BRANCH   3  15
ATOM     15  N   UNL     1       2.507  -7.448   3.145  0.00  0.00    -0.218 N 
ATOM     16  C   UNL     1       2.424  -8.747   2.793  0.00  0.00    +0.316 C 
ATOM     17  O   UNL     1       2.603  -9.614   3.626  0.00  0.00    -0.251 OA
ATOM     18  N   UNL     1       2.143  -9.083   1.519  0.00  0.00    -0.300 N 
ATOM     19  H   UNL     1       2.709  -7.206   4.062  0.00  0.00    +0.174 HD
ATOM     20  H   UNL     1       2.000  -8.391   0.855  0.00  0.00    +0.150 HD
BRANCH  18  21
ATOM     21  C   UNL     1       2.053 -10.495   1.137  0.00  0.00    +0.093 C 
BRANCH  21  22
ATOM     22  C   UNL     1       1.597 -10.601  -0.320  0.00  0.00    -0.056 C 
ATOM     23  C   UNL     1       2.672 -10.009  -1.235  0.00  0.00    -0.008 C 
ATOM     24  C   UNL     1       1.375 -12.071  -0.679  0.00  0.00    -0.008 C 
BRANCH  22  25
ATOM     25  N   UNL     1       0.342  -9.858  -0.495  0.00  0.00    +0.380 N 
ATOM     26  C   UNL     1      -0.097  -9.963  -1.893  0.00  0.00    -0.096 C 
ATOM     27  C   UNL     1      -0.688 -10.423   0.386  0.00  0.00    -0.096 C 
ATOM     28  H   UNL     1       0.490  -8.888  -0.261  0.00  0.00    -0.082 HD
ENDBRANCH  22  25
ENDBRANCH  21  22
ENDBRANCH  18  21
ENDBRANCH   3  15
TORSDOF 5
