REMARK  Name = ZINC64497155
REMARK  6 active torsions:
REMARK  status: ('A' for Active; 'I' for Inactive)
REMARK    1  A    between atoms: C_1  and  C_2
REMARK    2  A    between atoms: C_2  and  C_3
REMARK    3  A    between atoms: C_3  and  N_4
REMARK    4  A    between atoms: N_7  and  N_8
REMARK    5  A    between atoms: C_9  and  C_11
REMARK    6  A    between atoms: C_13  and  C_14
REMARK                            x       y       z     vdW  Elec       q    Type
REMARK                         _______ _______ _______ _____ _____    ______ ____
ROOT
ATOM      1  N   UNL     1       0.775  -4.698   1.179  0.00  0.00    -0.233 N 
ATOM      2  C   UNL     1       0.794  -6.045   1.171  0.00  0.00    +0.233 C 
ATOM      3  O   UNL     1       1.336  -6.649   2.073  0.00  0.00    -0.274 OA
ATOM      4  H   UNL     1       0.342  -4.215   0.458  0.00  0.00    +0.173 HD
ENDROOT
BRANCH   1   8
ATOM      5  N   UNL     1       0.762  -1.976   1.234  0.00  0.00    -0.298 N 
ATOM      6  C   UNL     1       1.364  -2.647   2.235  0.00  0.00    +0.316 C 
ATOM      7  O   UNL     1       1.891  -2.037   3.145  0.00  0.00    -0.251 OA
ATOM      8  N   UNL     1       1.383  -3.995   2.228  0.00  0.00    -0.218 N 
ATOM      9  H   UNL     1       0.342  -2.462   0.507  0.00  0.00    +0.150 HD
ATOM     10  H   UNL     1       1.816  -4.478   2.948  0.00  0.00    +0.174 HD
BRANCH   5  11
ATOM     11  C   UNL     1       0.742  -0.511   1.242  0.00  0.00    +0.105 C 
BRANCH  11  13
ATOM     12  C   UNL     1      -0.019   1.526   0.010  0.00  0.00    +0.005 C 
ATOM     13  C   UNL     1       0.002  -0.004   0.002  0.00  0.00    +0.015 C 
ENDBRANCH  11  13
ENDBRANCH   5  11
ENDBRANCH   1   8
BRANCH   2  14
ATOM     14  C   UNL     1       0.141  -6.802   0.043  0.00  0.00    +0.084 C 
ATOM     15  C   UNL     1      -1.122  -7.602   0.367  0.00  0.00    +0.022 C 
ATOM     16  C   UNL     1       0.195  -8.330   0.092  0.00  0.00    +0.032 C 
BRANCH  16  17
ATOM     17  C   UNL     1       0.325  -9.064  -1.217  0.00  0.00    -0.042 A 
ATOM     18  C   UNL     1      -0.644  -8.913  -2.193  0.00  0.00    +0.004 A 
ATOM     19  C   UNL     1      -0.526  -9.586  -3.394  0.00  0.00    +0.001 A 
ATOM     20  C   UNL     1       0.561 -10.410  -3.621  0.00  0.00    +0.015 A 
ATOM     21  C   UNL     1       1.530 -10.561  -2.646  0.00  0.00    +0.018 A 
ATOM     22  C   UNL     1       1.414  -9.883  -1.446  0.00  0.00    +0.019 A 
ATOM     23 BR   UNL     1       3.016 -11.689  -2.956  0.00  0.00    -0.050 Br
ENDBRANCH  16  17
ENDBRANCH   2  14
TORSDOF 5
