REMARK  Name = ZINC56850522
REMARK  7 active torsions:
REMARK  status: ('A' for Active; 'I' for Inactive)
REMARK    1  A    between atoms: C_1  and  C_2
REMARK    2  A    between atoms: C_5  and  C_8
REMARK    3  A    between atoms: C_17  and  C_20
REMARK    4  A    between atoms: N_22  and  C_23
REMARK    5  A    between atoms: C_23  and  C_24
REMARK    6  A    between atoms: C_24  and  S_25
REMARK    7  A    between atoms: S_25  and  N_28
REMARK                            x       y       z     vdW  Elec       q    Type
REMARK                         _______ _______ _______ _____ _____    ______ ____
ROOT
ATOM      1  C   UNL     1       0.059  -4.275  -0.021  0.00  0.00    -0.003 C 
ATOM      2  C   UNL     1      -1.187  -4.798  -0.739  0.00  0.00    +0.015 C 
ATOM      3  C   UNL     1      -1.167  -6.327  -0.747  0.00  0.00    -0.009 C 
ATOM      4  C   UNL     1       0.084  -6.817  -1.478  0.00  0.00    +0.007 C 
ATOM      5  C   UNL     1       1.331  -6.295  -0.761  0.00  0.00    -0.009 C 
ATOM      6  C   UNL     1       1.311  -4.765  -0.752  0.00  0.00    +0.015 C 
ATOM      7  C   UNL     1       1.345  -6.813   0.679  0.00  0.00    +0.019 C 
ATOM      8  C   UNL     1       0.094  -6.323   1.410  0.00  0.00    +0.048 C 
ATOM      9  C   UNL     1      -1.153  -6.845   0.693  0.00  0.00    +0.019 C 
ATOM     10  C   UNL     1       0.074  -4.793   1.418  0.00  0.00    +0.027 C 
ENDROOT
BRANCH   1  15
ATOM     11  C   UNL     1      -0.018   1.503   0.010  0.00  0.00    +0.044 C 
ATOM     12  C   UNL     1       0.002  -0.004   0.002  0.00  0.00    -0.050 A 
ATOM     13  C   UNL     1       0.006  -0.689  -1.199  0.00  0.00    +0.003 A 
ATOM     14  C   UNL     1       0.025  -2.071  -1.206  0.00  0.00    +0.004 A 
ATOM     15  C   UNL     1       0.040  -2.768  -0.013  0.00  0.00    -0.041 A 
ATOM     16  C   UNL     1       0.037  -2.084   1.188  0.00  0.00    +0.004 A 
ATOM     17  C   UNL     1       0.023  -0.702   1.195  0.00  0.00    +0.003 A 
ENDBRANCH   1  15
BRANCH   8  18
ATOM     18  C   UNL     1       0.108  -6.833   2.828  0.00  0.00    +0.219 C 
ATOM     19  O   UNL     1       0.103  -6.050   3.754  0.00  0.00    -0.275 OA
ATOM     20  N   UNL     1       0.127  -8.159   3.067  0.00  0.00    -0.313 N 
ATOM     21  H   UNL     1       0.131  -8.786   2.326  0.00  0.00    +0.149 HD
BRANCH  20  22
ATOM     22  C   UNL     1       0.141  -8.655   4.445  0.00  0.00    +0.128 C 
BRANCH  22  23
ATOM     23  C   UNL     1       0.160 -10.185   4.437  0.00  0.00    +0.203 C 
BRANCH  23  24
ATOM     24  S   UNL     1       0.178 -10.799   6.144  0.00  0.00    +0.028 S 
ATOM     25  O   UNL     1       1.411 -10.473   6.769  0.00  0.00    -0.158 OA
ATOM     26  O   UNL     1      -1.058 -10.505   6.782  0.00  0.00    -0.158 OA
BRANCH  24  27
ATOM     27  N   UNL     1       0.198 -12.449   6.002  0.00  0.00    -0.208 NA
ATOM     28  H   UNL     1       0.629 -12.988   6.684  0.00  0.00    +0.144 HD
ATOM     29  H   UNL     1      -0.221 -12.875   5.239  0.00  0.00    +0.144 HD
ENDBRANCH  24  27
ENDBRANCH  23  24
ENDBRANCH  22  23
ENDBRANCH  20  22
ENDBRANCH   8  18
TORSDOF 6
