REMARK  Name = ZINC63818676
REMARK  7 active torsions:
REMARK  status: ('A' for Active; 'I' for Inactive)
REMARK    1  A    between atoms: C_4  and  N_7
REMARK    2  A    between atoms: C_8  and  C_10
REMARK    3  A    between atoms: C_10  and  C_11
REMARK    4  A    between atoms: C_14  and  C_18
REMARK    5  A    between atoms: N_20  and  C_21
REMARK    6  A    between atoms: C_21  and  C_22
REMARK    7  A    between atoms: C_22  and  C_23
REMARK                            x       y       z     vdW  Elec       q    Type
REMARK                         _______ _______ _______ _____ _____    ______ ____
ROOT
ATOM      1  C   UNL     1       4.708  -4.227   0.249  0.00  0.00    +0.158 C 
ATOM      2  N   UNL     1       5.985  -4.948   0.439  0.00  0.00    -0.265 NA
ATOM      3  C   UNL     1       6.130  -5.847  -0.729  0.00  0.00    +0.297 C 
ATOM      4  O   UNL     1       4.780  -6.057  -1.202  0.00  0.00    -0.270 OA
ATOM      5  N   UNL     1       4.143  -4.732  -1.024  0.00  0.00    -0.181 NA
ATOM      6  H   UNL     1       6.759  -4.303   0.497  0.00  0.00    +0.126 HD
ATOM      7  H   UNL     1       4.370  -4.116  -1.791  0.00  0.00    +0.156 HD
ENDROOT
BRANCH   3   8
ATOM      8  C   UNL     1       6.751  -7.155  -0.310  0.00  0.00    +0.259 C 
ATOM      9  O   UNL     1       6.086  -8.169  -0.307  0.00  0.00    -0.271 OA
ATOM     10  N   UNL     1       8.046  -7.197   0.061  0.00  0.00    -0.312 N 
ATOM     11  H   UNL     1       8.579  -6.386   0.058  0.00  0.00    +0.149 HD
BRANCH  10  12
ATOM     12  C   UNL     1       8.650  -8.469   0.468  0.00  0.00    +0.108 C 
BRANCH  12  13
ATOM     13  C   UNL     1      10.118  -8.241   0.837  0.00  0.00    +0.052 C 
BRANCH  13  14
ATOM     14  C   UNL     1      10.739  -9.549   1.255  0.00  0.00    -0.040 C 
ATOM     15  C   UNL     1      11.447 -10.399   0.477  0.00  0.00    -0.001 A 
ATOM     16  C   UNL     1      11.834 -10.363  -0.938  0.00  0.00    +0.010 A 
ATOM     17  C   UNL     1      12.561 -11.384  -1.446  0.00  0.00    +0.001 A 
ATOM     18  C   UNL     1      12.951 -12.475  -0.656  0.00  0.00    +0.002 A 
ATOM     19  C   UNL     1      12.633 -12.579   0.651  0.00  0.00    +0.026 A 
ATOM     20  C   UNL     1      11.872 -11.561   1.290  0.00  0.00    +0.043 A 
ATOM     21  N   UNL     1      11.444 -11.434   2.522  0.00  0.00    -0.380 N 
ATOM     22  C   UNL     1      10.703 -10.173   2.632  0.00  0.00    +0.144 C 
ATOM     23  H   UNL     1      11.595 -12.067   3.242  0.00  0.00    +0.160 HD
ENDBRANCH  13  14
ENDBRANCH  12  13
ENDBRANCH  10  12
ENDBRANCH   3   8
BRANCH   1  24
ATOM     24  C   UNL     1       4.962  -2.721   0.153  0.00  0.00    +0.132 C 
BRANCH  24  26
ATOM     25  N   UNL     1       3.622  -0.651  -0.037  0.00  0.00    -0.285 N 
ATOM     26  C   UNL     1       3.645  -1.995   0.057  0.00  0.00    +0.220 C 
ATOM     27  O   UNL     1       2.606  -2.620   0.064  0.00  0.00    -0.275 OA
ATOM     28  H   UNL     1       4.452  -0.156  -0.121  0.00  0.00    +0.155 HD
BRANCH  25  32
ATOM     29  C   UNL     1      -0.015   1.381   0.029  0.00  0.00    +0.000 A 
ATOM     30  C   UNL     1       0.140   0.218   0.763  0.00  0.00    +0.002 A 
ATOM     31  C   UNL     1       1.344  -0.457   0.743  0.00  0.00    +0.023 A 
ATOM     32  C   UNL     1       2.400   0.031  -0.015  0.00  0.00    +0.033 A 
ATOM     33  C   UNL     1       2.241   1.198  -0.751  0.00  0.00    +0.023 A 
ATOM     34  C   UNL     1       1.034   1.870  -0.727  0.00  0.00    +0.002 A 
ENDBRANCH  25  32
ENDBRANCH  24  26
ENDBRANCH   1  24
TORSDOF 7
