REMARK  Name = ZINC45586256
REMARK  8 active torsions:
REMARK  status: ('A' for Active; 'I' for Inactive)
REMARK    1  A    between atoms: C_1  and  C_2
REMARK    2  A    between atoms: C_2  and  C_3
REMARK    3  A    between atoms: C_2  and  C_16
REMARK    4  A    between atoms: C_2  and  N_19
REMARK    5  A    between atoms: C_3  and  C_4
REMARK    6  A    between atoms: C_4  and  C_5
REMARK    7  A    between atoms: C_5  and  S_6
REMARK    8  A    between atoms: S_6  and  C_7
REMARK                            x       y       z     vdW  Elec       q    Type
REMARK                         _______ _______ _______ _____ _____    ______ ____
ROOT
ATOM      1  C   UNL     1       0.742  -0.511   1.242  0.00  0.00    -0.003 C 
ENDROOT
BRANCH   1   3
ATOM      2  C   UNL     1      -0.019   1.526   0.010  0.00  0.00    -0.001 C 
ATOM      3  C   UNL     1       0.002  -0.004   0.002  0.00  0.00    +0.004 C 
BRANCH   3   4
ATOM      4  C   UNL     1       0.707  -0.490  -1.238  0.00  0.00    +0.199 C 
ATOM      5  O   UNL     1       1.889  -0.763  -1.196  0.00  0.00    -0.278 OA
ATOM      6  N   UNL     1       0.026  -0.622  -2.393  0.00  0.00    -0.330 N 
ATOM      7  H   UNL     1      -0.919  -0.404  -2.426  0.00  0.00    +0.145 HD
ATOM      8  H   UNL     1       0.480  -0.934  -3.191  0.00  0.00    +0.145 HD
ENDBRANCH   3   4
BRANCH   3   9
ATOM      9  N   UNL     1      -1.376  -0.512   0.012  0.00  0.00    +0.387 N 
ATOM     10  H   UNL     1      -1.864  -0.178  -0.805  0.00  0.00    -0.089 HD
ATOM     11  H   UNL     1      -1.362  -1.521   0.007  0.00  0.00    -0.089 HD
ATOM     12  H   UNL     1      -1.848  -0.187   0.843  0.00  0.00    -0.089 HD
ENDBRANCH   3   9
ENDBRANCH   1   3
BRANCH   1  13
ATOM     13  C   UNL     1      -0.042  -0.124   2.497  0.00  0.00    +0.010 C 
BRANCH  13  14
ATOM     14  C   UNL     1       0.698  -0.630   3.737  0.00  0.00    +0.079 C 
BRANCH  14  15
ATOM     15  S   UNL     1      -0.231  -0.171   5.226  0.00  0.00    -0.067 S 
BRANCH  15  16
ATOM     16  C   UNL     1       0.738  -0.817   6.548  0.00  0.00    +0.258 A 
ATOM     17  N   UNL     1       1.866  -1.465   6.405  0.00  0.00    -0.203 NA
ATOM     18  C   UNL     1       2.330  -1.811   7.638  0.00  0.00    +0.110 A 
ATOM     19  C   UNL     1       3.461  -2.496   8.084  0.00  0.00    +0.031 A 
ATOM     20  C   UNL     1       3.653  -2.691   9.434  0.00  0.00    +0.002 A 
ATOM     21  C   UNL     1       2.730  -2.211  10.351  0.00  0.00    +0.004 A 
ATOM     22  C   UNL     1       1.607  -1.531   9.922  0.00  0.00    +0.048 A 
ATOM     23  C   UNL     1       1.399  -1.326   8.568  0.00  0.00    +0.156 A 
ATOM     24  O   UNL     1       0.428  -0.712   7.853  0.00  0.00    -0.431 OA
ENDBRANCH  15  16
ENDBRANCH  14  15
ENDBRANCH  13  14
ENDBRANCH   1  13
TORSDOF 7
