REMARK  Name = ZINC37814885
REMARK  8 active torsions:
REMARK  status: ('A' for Active; 'I' for Inactive)
REMARK    1  A    between atoms: C_1  and  N_2
REMARK    2  A    between atoms: N_2  and  C_3
REMARK    3  A    between atoms: C_4  and  C_6
REMARK    4  A    between atoms: C_6  and  N_7
REMARK    5  A    between atoms: N_7  and  C_8
REMARK    6  A    between atoms: C_8  and  C_9
REMARK    7  A    between atoms: C_13  and  C_15
REMARK    8  A    between atoms: C_15  and  N_20
REMARK                            x       y       z     vdW  Elec       q    Type
REMARK                         _______ _______ _______ _____ _____    ______ ____
ROOT
ATOM      1  N   UNL     1      -3.220  -2.261   0.190  0.00  0.00    -0.285 N 
ATOM      2  C   UNL     1      -3.458  -2.542   1.486  0.00  0.00    +0.205 C 
ATOM      3  O   UNL     1      -4.590  -2.758   1.862  0.00  0.00    -0.277 OA
ENDROOT
BRANCH   2   4
ATOM      4  C   UNL     1      -2.316  -2.587   2.469  0.00  0.00    +0.007 C 
ATOM      5  C   UNL     1      -1.530  -3.914   2.326  0.00  0.00    -0.004 C 
ATOM      6  C   UNL     1      -2.401  -4.915   3.125  0.00  0.00    -0.001 C 
ATOM      7  C   UNL     1      -2.905  -4.099   4.333  0.00  0.00    -0.001 C 
ATOM      8  C   UNL     1      -2.851  -2.619   3.916  0.00  0.00    -0.004 C 
BRANCH   4   9
ATOM      9  N   UNL     1      -1.426  -1.435   2.275  0.00  0.00    +0.388 N 
ATOM     10  H   UNL     1      -1.978  -0.604   2.129  0.00  0.00    -0.089 HD
ATOM     11  H   UNL     1      -0.848  -1.316   3.093  0.00  0.00    -0.089 HD
ATOM     12  H   UNL     1      -0.840  -1.596   1.469  0.00  0.00    -0.089 HD
ENDBRANCH   4   9
ENDBRANCH   2   4
BRANCH   1  13
ATOM     13  C   UNL     1      -1.842  -2.115  -0.287  0.00  0.00    +0.203 C 
BRANCH  13  17
ATOM     14  C   UNL     1       0.157   1.133  -0.626  0.00  0.00    +0.131 C 
ATOM     15  N   UNL     1      -0.221  -0.282  -0.655  0.00  0.00    -0.306 N 
ATOM     16  C   UNL     1       0.739  -1.288  -1.116  0.00  0.00    +0.131 C 
ATOM     17  C   UNL     1      -1.453  -0.659  -0.257  0.00  0.00    +0.232 C 
ATOM     18  O   UNL     1      -2.248   0.174   0.124  0.00  0.00    -0.274 OA
ENDBRANCH  13  17
ENDBRANCH   1  13
BRANCH   1  19
ATOM     19  C   UNL     1      -4.338  -2.103  -0.743  0.00  0.00    +0.221 C 
BRANCH  19  20
ATOM     20  C   UNL     1      -4.609  -3.435  -1.445  0.00  0.00    +0.405 C 
ATOM     21  F   UNL     1      -4.842  -4.428  -0.487  0.00  0.00    -0.169 F 
ATOM     22  F   UNL     1      -5.733  -3.308  -2.268  0.00  0.00    -0.169 F 
ATOM     23  F   UNL     1      -3.500  -3.788  -2.221  0.00  0.00    -0.169 F 
ENDBRANCH  19  20
ENDBRANCH   1  19
TORSDOF 6
