REMARK  Name = ZINC63129597
REMARK  4 active torsions:
REMARK  status: ('A' for Active; 'I' for Inactive)
REMARK    1  A    between atoms: C_7  and  C_20
REMARK    2  A    between atoms: C_12  and  C_17
REMARK    3  A    between atoms: C_20  and  C_21
REMARK    4  A    between atoms: C_21  and  N_22
REMARK                            x       y       z     vdW  Elec       q    Type
REMARK                         _______ _______ _______ _____ _____    ______ ____
ROOT
ATOM      1  C   UNL     1       0.152   1.351   0.447  0.00  0.00    +0.000 A 
ATOM      2  C   UNL     1       1.368   2.010   0.449  0.00  0.00    +0.002 A 
ATOM      3  C   UNL     1       2.540   1.305   0.280  0.00  0.00    +0.024 A 
ATOM      4  C   UNL     1       2.510  -0.080   0.106  0.00  0.00    +0.039 A 
ATOM      5  C   UNL     1       1.286  -0.732   0.106  0.00  0.00    -0.021 A 
ATOM      6  C   UNL     1       0.114  -0.020   0.276  0.00  0.00    +0.006 A 
ATOM      7  C   UNL     1       1.528  -2.210  -0.099  0.00  0.00    +0.037 C 
ATOM      8  C   UNL     1       3.056  -2.338  -0.219  0.00  0.00    +0.120 C 
ATOM      9  N   UNL     1       3.568  -0.973  -0.080  0.00  0.00    -0.284 N 
ATOM     10  C   UNL     1       4.905  -0.619  -0.125  0.00  0.00    +0.138 A 
ATOM     11  C   UNL     1       5.499  -0.288  -1.355  0.00  0.00    +0.077 A 
ATOM     12  C   UNL     1       6.853   0.067  -1.375  0.00  0.00    +0.018 A 
ATOM     13  C   UNL     1       7.548   0.076  -0.179  0.00  0.00    +0.021 A 
ATOM     14  C   UNL     1       6.894  -0.262   0.992  0.00  0.00    +0.113 A 
ATOM     15  N   UNL     1       5.616  -0.589   0.992  0.00  0.00    -0.239 NA
ENDROOT
BRANCH  11  16
ATOM     16  C   UNL     1       4.711  -0.314  -2.601  0.00  0.00    +0.245 C 
ATOM     17  O   UNL     1       3.513  -0.519  -2.558  0.00  0.00    -0.270 OA
ATOM     18  N   UNL     1       5.319  -0.111  -3.787  0.00  0.00    -0.325 N 
ATOM     19  H   UNL     1       6.274   0.053  -3.820  0.00  0.00    +0.145 HD
ATOM     20  H   UNL     1       4.800  -0.128  -4.606  0.00  0.00    +0.145 HD
ENDBRANCH  11  16
BRANCH   7  21
ATOM     21  C   UNL     1       1.016  -3.006   1.103  0.00  0.00    -0.010 C 
BRANCH  21  22
ATOM     22  C   UNL     1       1.144  -4.504   0.815  0.00  0.00    -0.086 C 
BRANCH  22  23
ATOM     23  N   UNL     1       0.755  -5.267   2.008  0.00  0.00    +0.378 N 
ATOM     24  H   UNL     1       0.840  -6.254   1.818  0.00  0.00    -0.090 HD
ATOM     25  H   UNL     1       1.359  -5.019   2.777  0.00  0.00    -0.090 HD
ATOM     26  H   UNL     1      -0.201  -5.052   2.248  0.00  0.00    -0.090 HD
ENDBRANCH  22  23
ENDBRANCH  21  22
ENDBRANCH   7  21
TORSDOF 4
