REMARK  Name = ZINC62237547
REMARK  6 active torsions:
REMARK  status: ('A' for Active; 'I' for Inactive)
REMARK    1  A    between atoms: C_1  and  C_2
REMARK    2  A    between atoms: C_5  and  C_8
REMARK    3  A    between atoms: C_9  and  C_10
REMARK    4  A    between atoms: C_11  and  C_22
REMARK    5  A    between atoms: N_14  and  C_15
REMARK    6  A    between atoms: C_22  and  N_23
REMARK                            x       y       z     vdW  Elec       q    Type
REMARK                         _______ _______ _______ _____ _____    ______ ____
ROOT
ATOM      1  C   UNL     1       0.172  -6.401   1.012  0.00  0.00    +0.089 A 
ATOM      2  C   UNL     1       1.050  -7.217   1.693  0.00  0.00    +0.073 A 
ATOM      3  N   UNL     1       0.626  -8.473   1.592  0.00  0.00    -0.136 NA
ATOM      4  N   UNL     1      -0.456  -8.527   0.899  0.00  0.00    -0.060 NA
ATOM      5  N   UNL     1      -0.800  -7.226   0.503  0.00  0.00    -0.210 N 
ENDROOT
BRANCH   5   6
ATOM      6  C   UNL     1      -1.912  -6.846  -0.261  0.00  0.00    +0.103 A 
ATOM      7  C   UNL     1      -2.701  -5.777   0.142  0.00  0.00    +0.031 A 
ATOM      8  C   UNL     1      -3.796  -5.404  -0.612  0.00  0.00    +0.002 A 
ATOM      9  C   UNL     1      -4.109  -6.095  -1.769  0.00  0.00    +0.003 A 
ATOM     10  C   UNL     1      -3.327  -7.160  -2.175  0.00  0.00    +0.040 A 
ATOM     11  C   UNL     1      -2.225  -7.535  -1.428  0.00  0.00    +0.149 A 
ATOM     12  F   UNL     1      -1.457  -8.572  -1.828  0.00  0.00    -0.203 F 
ENDBRANCH   5   6
BRANCH   1  14
ATOM     13  C   UNL     1       0.270  -4.389  -0.361  0.00  0.00    +0.010 C 
ATOM     14  C   UNL     1       0.256  -4.943   0.865  0.00  0.00    +0.030 C 
BRANCH  13  19
ATOM     15  C   UNL     1       0.597   1.322  -0.936  0.00  0.00    +0.044 C 
ATOM     16  C   UNL     1       0.511  -0.175  -0.785  0.00  0.00    -0.050 A 
ATOM     17  C   UNL     1       0.447  -0.977  -1.911  0.00  0.00    +0.004 A 
ATOM     18  C   UNL     1       0.368  -2.348  -1.781  0.00  0.00    +0.008 A 
ATOM     19  C   UNL     1       0.354  -2.926  -0.509  0.00  0.00    -0.025 A 
ATOM     20  C   UNL     1       0.420  -2.109   0.624  0.00  0.00    +0.008 A 
ATOM     21  C   UNL     1       0.503  -0.740   0.478  0.00  0.00    +0.004 A 
ENDBRANCH  13  19
ENDBRANCH   1  14
BRANCH   2  22
ATOM     22  C   UNL     1       2.284  -6.761   2.428  0.00  0.00    -0.026 C 
BRANCH  22  23
ATOM     23  N   UNL     1       1.938  -6.453   3.822  0.00  0.00    +0.382 N 
ATOM     24  H   UNL     1       1.567  -7.279   4.267  0.00  0.00    -0.090 HD
ATOM     25  H   UNL     1       2.764  -6.148   4.314  0.00  0.00    -0.090 HD
ATOM     26  H   UNL     1       1.245  -5.720   3.842  0.00  0.00    -0.090 HD
ENDBRANCH  22  23
ENDBRANCH   2  22
TORSDOF 5
