REMARK  Name = ZINC19869320
REMARK  3 active torsions:
REMARK  status: ('A' for Active; 'I' for Inactive)
REMARK    1  A    between atoms: C_6  and  O_7
REMARK    2  A    between atoms: O_7  and  C_8
REMARK    3  A    between atoms: C_13  and  N_14
REMARK                            x       y       z     vdW  Elec       q    Type
REMARK                         _______ _______ _______ _____ _____    ______ ____
ROOT
ATOM      1  C   UNL     1       0.040  -2.696   0.092  0.00  0.00    +0.153 A 
ATOM      2  C   UNL     1      -1.147  -1.981   0.105  0.00  0.00    +0.097 A 
ATOM      3  C   UNL     1      -2.359  -2.645   0.219  0.00  0.00    +0.166 A 
ATOM      4  C   UNL     1      -2.384  -4.031   0.319  0.00  0.00    +0.164 A 
ATOM      5  C   UNL     1      -1.197  -4.748   0.307  0.00  0.00    +0.075 A 
ATOM      6  C   UNL     1       0.015  -4.085   0.188  0.00  0.00    +0.071 A 
ATOM      7  O   UNL     1      -3.566  -4.700   0.427  0.00  0.00    -0.485 OA
ATOM      8  C   UNL     1      -4.709  -3.929   0.814  0.00  0.00    +0.270 C 
ATOM      9  C   UNL     1      -4.725  -2.643  -0.024  0.00  0.00    +0.270 C 
ATOM     10  O   UNL     1      -3.515  -1.924   0.235  0.00  0.00    -0.485 OA
ENDROOT
BRANCH   6  11
ATOM     11  N   UNL     1       1.214  -4.811   0.170  0.00  0.00    -0.355 N 
ATOM     12  H   UNL     1       1.194  -5.908   0.246  0.00  0.00    +0.142 HD
ATOM     13  H   UNL     1       2.175  -4.284   0.080  0.00  0.00    +0.142 HD
ENDBRANCH   6  11
BRANCH   1  14
ATOM     14  O   UNL     1       1.228  -2.042  -0.021  0.00  0.00    -0.454 OA
BRANCH  14  20
ATOM     15  C   UNL     1       1.543   0.041  -1.124  0.00  0.00    +0.050 A 
ATOM     16  C   UNL     1       1.529   1.423  -1.093  0.00  0.00    +0.053 A 
ATOM     17  C   UNL     1       1.188   2.088   0.073  0.00  0.00    +0.166 A 
ATOM     18  C   UNL     1       0.857   1.363   1.215  0.00  0.00    +0.170 A 
ATOM     19  C   UNL     1       0.871  -0.021   1.182  0.00  0.00    +0.095 A 
ATOM     20  C   UNL     1       1.214  -0.683   0.012  0.00  0.00    +0.132 A 
ATOM     21  O   UNL     1       0.561   2.240   2.219  0.00  0.00    -0.452 OA
ATOM     22  C   UNL     1       1.110   3.504   1.799  0.00  0.00    +0.466 C 
ATOM     23  O   UNL     1       1.099   3.421   0.361  0.00  0.00    -0.453 OA
ENDBRANCH  14  20
ENDBRANCH   1  14
TORSDOF 3
