REMARK  Name = ZINC67539026
REMARK  3 active torsions:
REMARK  status: ('A' for Active; 'I' for Inactive)
REMARK    1  A    between atoms: C_4  and  C_7
REMARK    2  A    between atoms: N_15  and  C_16
REMARK    3  A    between atoms: C_17  and  C_25
REMARK                            x       y       z     vdW  Elec       q    Type
REMARK                         _______ _______ _______ _____ _____    ______ ____
ROOT
ATOM      1  C   UNL     1       2.859  -0.454  -2.507  0.00  0.00    +0.107 A 
ATOM      2  N   UNL     1       2.572  -0.251  -3.778  0.00  0.00    -0.144 NA
ATOM      3  N   UNL     1       3.312  -0.762  -4.665  0.00  0.00    -0.126 NA
ATOM      4  C   UNL     1       4.365  -1.494  -4.356  0.00  0.00    +0.189 A 
ATOM      5  S   UNL     1       4.326  -1.462  -2.671  0.00  0.00    -0.035 S 
ATOM      6  N   UNL     1       5.274  -2.123  -5.201  0.00  0.00    -0.247 N 
ATOM      7  C   UNL     1       5.133  -2.022  -6.537  0.00  0.00    +0.310 C 
ATOM      8  O   UNL     1       4.212  -1.381  -7.005  0.00  0.00    -0.252 OA
ATOM      9  N   UNL     1       6.014  -2.631  -7.356  0.00  0.00    -0.262 N 
ATOM     10  H   UNL     1       6.009  -2.634  -4.828  0.00  0.00    +0.158 HD
ATOM     11  H   UNL     1       6.749  -3.143  -6.982  0.00  0.00    +0.157 HD
ENDROOT
BRANCH   9  12
ATOM     12  C   UNL     1       5.869  -2.527  -8.732  0.00  0.00    +0.091 A 
ATOM     13  C   UNL     1       6.668  -3.087  -9.717  0.00  0.00    +0.084 A 
ATOM     14  C   UNL     1       6.299  -2.826 -11.094  0.00  0.00    -0.022 A 
ATOM     15  C   UNL     1       5.198  -2.052 -11.238  0.00  0.00    -0.021 A 
ATOM     16  S   UNL     1       4.681  -1.701  -9.585  0.00  0.00    -0.079 S 
ATOM     17  C   UNL     1       4.588  -1.617 -12.533  0.00  0.00    -0.039 C 
ATOM     18  N   UNL     1       5.575  -1.836 -13.607  0.00  0.00    +0.382 N 
ATOM     19  C   UNL     1       6.096  -3.207 -13.525  0.00  0.00    -0.077 C 
ATOM     20  C   UNL     1       7.034  -3.346 -12.322  0.00  0.00    +0.018 C 
ATOM     21  H   UNL     1       5.133  -1.698 -14.503  0.00  0.00    -0.085 HD
ATOM     22  H   UNL     1       6.336  -1.182 -13.503  0.00  0.00    -0.085 HD
BRANCH  13  23
ATOM     23  C   UNL     1       7.809  -3.887  -9.389  0.00  0.00    +0.102 C 
ATOM     24  N   UNL     1       8.714  -4.522  -9.128  0.00  0.00    -0.191 NA
ENDBRANCH  13  23
ENDBRANCH   9  12
BRANCH   1  28
ATOM     25  C   UNL     1      -0.019   1.526   0.010  0.00  0.00    +0.000 C 
ATOM     26  C   UNL     1       1.417   2.055  -0.000  0.00  0.00    +0.001 C 
ATOM     27  C   UNL     1       2.133   1.562  -1.259  0.00  0.00    +0.010 C 
ATOM     28  C   UNL     1       2.154   0.032  -1.268  0.00  0.00    +0.047 C 
ATOM     29  C   UNL     1       0.718  -0.497  -1.257  0.00  0.00    +0.010 C 
ATOM     30  C   UNL     1       0.002  -0.004   0.002  0.00  0.00    +0.001 C 
ENDBRANCH   1  28
TORSDOF 3
