REMARK  Name = ZINC61819387
REMARK  7 active torsions:
REMARK  status: ('A' for Active; 'I' for Inactive)
REMARK    1  A    between atoms: C_1  and  C_2
REMARK    2  A    between atoms: C_2  and  N_3
REMARK    3  A    between atoms: N_3  and  C_4
REMARK    4  A    between atoms: C_4  and  C_6
REMARK    5  A    between atoms: C_4  and  C_7
REMARK    6  A    between atoms: C_7  and  C_9
REMARK    7  A    between atoms: C_7  and  N_10
REMARK                            x       y       z     vdW  Elec       q    Type
REMARK                         _______ _______ _______ _____ _____    ______ ____
ROOT
ATOM      1  N   UNL     1       1.583  -3.914  -2.036  0.00  0.00    +0.380 N 
ATOM      2  C   UNL     1       0.224  -4.462  -2.112  0.00  0.00    -0.078 C 
ATOM      3  C   UNL     1       0.256  -5.961  -1.805  0.00  0.00    -0.012 C 
ATOM      4  C   UNL     1       1.152  -6.666  -2.827  0.00  0.00    -0.033 C 
ATOM      5  C   UNL     1       1.253  -8.152  -2.480  0.00  0.00    +0.007 C 
ATOM      6  C   UNL     1       2.150  -8.854  -3.502  0.00  0.00    +0.001 C 
ATOM      7  C   UNL     1       1.552  -8.694  -4.901  0.00  0.00    +0.000 C 
ATOM      8  C   UNL     1       1.452  -7.207  -5.247  0.00  0.00    +0.001 C 
ATOM      9  C   UNL     1       0.554  -6.505  -4.226  0.00  0.00    +0.007 C 
ATOM     10  C   UNL     1       2.547  -6.036  -2.792  0.00  0.00    -0.012 C 
ATOM     11  C   UNL     1       2.429  -4.534  -3.063  0.00  0.00    -0.078 C 
ATOM     12  H   UNL     1       1.969  -4.103  -1.124  0.00  0.00    -0.082 HD
ENDROOT
BRANCH   1  13
ATOM     13  C   UNL     1       1.536  -2.462  -2.255  0.00  0.00    -0.086 C 
ATOM     14  C   UNL     1       1.088  -2.176  -3.690  0.00  0.00    -0.015 C 
BRANCH  13  15
ATOM     15  C   UNL     1       2.928  -1.867  -2.028  0.00  0.00    -0.089 C 
ATOM     16  C   UNL     1       3.398  -2.198  -0.610  0.00  0.00    -0.015 C 
BRANCH  15  17
ATOM     17  N   UNL     1       2.870  -0.409  -2.197  0.00  0.00    +0.380 N 
ATOM     18  H   UNL     1       2.288  -0.009  -1.476  0.00  0.00    -0.086 HD
ATOM     19  H   UNL     1       2.482  -0.190  -3.102  0.00  0.00    -0.086 HD
BRANCH  17  21
ATOM     20  C   UNL     1       4.166   1.668  -2.274  0.00  0.00    -0.017 C 
ATOM     21  C   UNL     1       4.225   0.149  -2.098  0.00  0.00    -0.086 C 
ENDBRANCH  17  21
ENDBRANCH  15  17
ENDBRANCH  13  15
ENDBRANCH   1  13
TORSDOF 4
