REMARK  Name = ZINC53254415
REMARK  5 active torsions:
REMARK  status: ('A' for Active; 'I' for Inactive)
REMARK    1  A    between atoms: C_3  and  S_11
REMARK    2  A    between atoms: C_4  and  N_8
REMARK    3  A    between atoms: S_11  and  N_14
REMARK    4  A    between atoms: N_14  and  C_15
REMARK    5  A    between atoms: C_15  and  C_16
REMARK                            x       y       z     vdW  Elec       q    Type
REMARK                         _______ _______ _______ _____ _____    ______ ____
ROOT
ATOM      1  S   UNL     1       3.578   2.925  -0.023  0.00  0.00    +0.061 S 
ATOM      2  O   UNL     1       4.313   2.775  -1.229  0.00  0.00    -0.153 OA
ATOM      3  O   UNL     1       2.922   4.137   0.324  0.00  0.00    -0.153 OA
ENDROOT
BRANCH   1   6
ATOM      4  C   UNL     1       1.230  -0.142  -1.131  0.00  0.00    +0.040 A 
ATOM      5  C   UNL     1       2.198   0.845  -1.128  0.00  0.00    +0.033 A 
ATOM      6  C   UNL     1       2.343   1.667  -0.026  0.00  0.00    +0.135 A 
ATOM      7  C   UNL     1       1.521   1.504   1.073  0.00  0.00    +0.155 A 
ATOM      8  C   UNL     1       0.552   0.518   1.072  0.00  0.00    +0.073 A 
ATOM      9  C   UNL     1       0.406  -0.306  -0.031  0.00  0.00    +0.126 A 
ATOM     10  F   UNL     1      -0.541  -1.270  -0.034  0.00  0.00    -0.205 F 
BRANCH   7  11
ATOM     11  N   UNL     1       1.678   2.385   2.252  0.00  0.00    +0.058 N 
ATOM     12  O   UNL     1       0.882   2.327   3.161  0.00  0.00    -0.126 OA
ATOM     13  O   UNL     1       2.603   3.162   2.307  0.00  0.00    -0.126 OA
ENDBRANCH   7  11
ENDBRANCH   1   6
BRANCH   1  14
ATOM     14  N   UNL     1       4.623   2.582   1.215  0.00  0.00    -0.191 NA
ATOM     15  H   UNL     1       4.722   3.203   1.953  0.00  0.00    +0.148 HD
BRANCH  14  16
ATOM     16  C   UNL     1       5.398   1.339   1.195  0.00  0.00    +0.090 C 
BRANCH  16  17
ATOM     17  C   UNL     1       6.524   1.424   2.228  0.00  0.00    -0.056 C 
ATOM     18  C   UNL     1       7.476   0.210   2.090  0.00  0.00    -0.016 C 
ATOM     19  C   UNL     1       8.787   0.768   2.702  0.00  0.00    -0.021 C 
ATOM     20  C   UNL     1       8.775   2.247   2.260  0.00  0.00    -0.082 C 
ATOM     21  N   UNL     1       7.374   2.605   1.968  0.00  0.00    +0.382 N 
ATOM     22  H   UNL     1       7.288   2.878   1.000  0.00  0.00    -0.085 HD
ATOM     23  H   UNL     1       7.085   3.369   2.561  0.00  0.00    -0.085 HD
ENDBRANCH  16  17
ENDBRANCH  14  16
ENDBRANCH   1  14
TORSDOF 5
