REMARK  Name = ZINC44022373
REMARK  3 active torsions:
REMARK  status: ('A' for Active; 'I' for Inactive)
REMARK    1  A    between atoms: C_1  and  N_2
REMARK    2  A    between atoms: C_6  and  N_11
REMARK    3  A    between atoms: N_11  and  C_12
REMARK                            x       y       z     vdW  Elec       q    Type
REMARK                         _______ _______ _______ _____ _____    ______ ____
ROOT
ATOM      1  C   UNL     1       0.088   1.461   0.121  0.00  0.00    +0.157 C 
ATOM      2  N   UNL     1       0.078  -0.004   0.084  0.00  0.00    -0.264 N 
ATOM      3  C   UNL     1      -0.094  -0.641  -1.091  0.00  0.00    +0.258 A 
ATOM      4  O   UNL     1      -0.240  -0.003  -2.119  0.00  0.00    -0.267 OA
ATOM      5  C   UNL     1      -0.103  -2.045  -1.124  0.00  0.00    +0.112 A 
ATOM      6  C   UNL     1       0.064  -2.737   0.043  0.00  0.00    +0.109 A 
ATOM      7  N   UNL     1       0.235  -2.046   1.219  0.00  0.00    -0.296 N 
ATOM      8  H   UNL     1       0.354  -2.532   2.050  0.00  0.00    +0.172 HD
ATOM      9  C   UNL     1       0.245  -0.701   1.222  0.00  0.00    +0.330 A 
ATOM     10  O   UNL     1       0.403  -0.106   2.271  0.00  0.00    -0.246 OA
ENDROOT
BRANCH   6  11
ATOM     11  N   UNL     1       0.059  -4.110   0.041  0.00  0.00    -0.301 N 
ATOM     12  H   UNL     1       0.690  -4.596  -0.513  0.00  0.00    +0.154 HD
BRANCH  11  13
ATOM     13  C   UNL     1      -0.856  -4.807   0.837  0.00  0.00    +0.032 A 
ATOM     14  C   UNL     1      -1.853  -4.120   1.516  0.00  0.00    +0.024 A 
ATOM     15  C   UNL     1      -2.755  -4.811   2.301  0.00  0.00    +0.017 A 
ATOM     16  C   UNL     1      -2.665  -6.187   2.410  0.00  0.00    +0.018 A 
ATOM     17  C   UNL     1      -1.673  -6.875   1.734  0.00  0.00    +0.017 A 
ATOM     18  C   UNL     1      -0.772  -6.189   0.944  0.00  0.00    +0.024 A 
ATOM     19 BR   UNL     1      -3.902  -7.130   3.486  0.00  0.00    -0.050 Br
ENDBRANCH  11  13
ENDBRANCH   6  11
TORSDOF 2
