REMARK  Name = ZINC20131069
REMARK  11 active torsions:
REMARK  status: ('A' for Active; 'I' for Inactive)
REMARK    1  A    between atoms: C_1  and  C_2
REMARK    2  A    between atoms: C_7  and  N_12
REMARK    3  A    between atoms: C_9  and  C_11
REMARK    4  A    between atoms: N_12  and  C_13
REMARK    5  A    between atoms: C_15  and  C_26
REMARK    6  A    between atoms: C_16  and  C_25
REMARK    7  A    between atoms: N_19  and  C_20
REMARK    8  A    between atoms: C_20  and  C_21
REMARK    9  A    between atoms: C_21  and  C_22
REMARK   10  A    between atoms: C_22  and  C_23
REMARK   11  A    between atoms: C_22  and  C_24
REMARK                            x       y       z     vdW  Elec       q    Type
REMARK                         _______ _______ _______ _____ _____    ______ ____
ROOT
ATOM      1  C   UNL     1       2.725  -2.877  -2.693  0.00  0.00    +0.046 C 
ATOM      2  C   UNL     1       2.869  -2.861  -4.197  0.00  0.00    -0.062 C 
ATOM      3  C   UNL     1       1.667  -2.595  -4.700  0.00  0.00    +0.010 C 
ATOM      4  C   UNL     1       0.698  -2.431  -3.612  0.00  0.00    +0.241 C 
ATOM      5  O   UNL     1      -0.483  -2.185  -3.761  0.00  0.00    -0.270 OA
ATOM      6  N   UNL     1       1.310  -2.590  -2.423  0.00  0.00    -0.308 N 
ATOM      7  C   UNL     1       1.348  -2.483  -6.169  0.00  0.00    +0.049 C 
ATOM      8  C   UNL     1       4.134  -3.102  -4.979  0.00  0.00    +0.039 C 
ENDROOT
BRANCH   1   9
ATOM      9  N   UNL     1       3.576  -1.842  -2.092  0.00  0.00    +0.396 N 
ATOM     10  H   UNL     1       3.130  -1.530  -1.136  0.00  0.00    -0.082 HD
ATOM     11  H   UNL     1       3.620  -0.981  -2.775  0.00  0.00    -0.082 HD
BRANCH   9  17
ATOM     12  C   UNL     1       6.523   0.965  -0.707  0.00  0.00    +0.008 C 
ATOM     13  C   UNL     1       5.537  -0.205  -0.723  0.00  0.00    -0.013 C 
ATOM     14  C   UNL     1       5.584  -0.930   0.624  0.00  0.00    +0.003 C 
ATOM     15  C   UNL     1       4.599  -2.100   0.608  0.00  0.00    -0.001 C 
ATOM     16  C   UNL     1       4.981  -3.073  -0.509  0.00  0.00    -0.015 C 
ATOM     17  C   UNL     1       4.934  -2.349  -1.856  0.00  0.00    -0.066 C 
ATOM     18  C   UNL     1       5.920  -1.179  -1.840  0.00  0.00    -0.025 C 
ATOM     19  C   UNL     1       5.873  -0.454  -3.187  0.00  0.00    +0.006 C 
ENDBRANCH   9  17
ENDBRANCH   1   9
BRANCH   6  20
ATOM     20  C   UNL     1       0.679  -2.499  -1.104  0.00  0.00    +0.107 C 
BRANCH  20  21
ATOM     21  C   UNL     1       0.657  -1.038  -0.649  0.00  0.00    +0.022 C 
BRANCH  21  22
ATOM     22  C   UNL     1      -0.115  -0.926   0.667  0.00  0.00    -0.016 C 
ATOM     23  C   UNL     1      -0.256   0.548   1.052  0.00  0.00    +0.007 C 
ATOM     24  C   UNL     1       0.643  -1.669   1.769  0.00  0.00    +0.007 C 
ENDBRANCH  21  22
ENDBRANCH  20  21
ENDBRANCH   6  20
TORSDOF 5
