REMARK  Name = ZINC62688644
REMARK  2 active torsions:
REMARK  status: ('A' for Active; 'I' for Inactive)
REMARK    1  A    between atoms: C_5  and  C_7
REMARK    2  A    between atoms: C_15  and  C_17
REMARK                            x       y       z     vdW  Elec       q    Type
REMARK                         _______ _______ _______ _____ _____    ______ ____
ROOT
ATOM      1  C   UNL     1       1.228  -2.186  -0.022  0.00  0.00    +0.195 C 
ATOM      2  C   UNL     1       1.489  -2.695   1.370  0.00  0.00    +0.238 C 
ATOM      3  O   UNL     1       2.606  -2.581   1.827  0.00  0.00    -0.273 OA
ATOM      4  N   UNL     1       0.548  -3.265   2.123  0.00  0.00    -0.312 N 
ATOM      5  C   UNL     1      -0.809  -3.550   1.677  0.00  0.00    +0.123 C 
ATOM      6  C   UNL     1      -1.186  -2.665   0.487  0.00  0.00    +0.127 C 
ATOM      7  N   UNL     1      -0.074  -2.693  -0.481  0.00  0.00    -0.282 N 
ATOM      8  C   UNL     1      -0.241  -3.166  -1.732  0.00  0.00    +0.245 C 
ATOM      9  O   UNL     1       0.693  -3.178  -2.505  0.00  0.00    -0.273 OA
ATOM     10  H   UNL     1       0.783  -3.507   3.033  0.00  0.00    +0.149 HD
ENDROOT
BRANCH   1  15
ATOM     11  C   UNL     1       1.050   1.385   1.189  0.00  0.00    +0.001 A 
ATOM     12  C   UNL     1       1.170   2.087   0.003  0.00  0.00    +0.003 A 
ATOM     13  C   UNL     1       1.309   1.406  -1.191  0.00  0.00    +0.039 A 
ATOM     14  C   UNL     1       1.328   0.022  -1.201  0.00  0.00    +0.129 A 
ATOM     15  C   UNL     1       1.208  -0.679  -0.013  0.00  0.00    +0.017 A 
ATOM     16  C   UNL     1       1.069   0.003   1.181  0.00  0.00    +0.009 A 
ATOM     17  F   UNL     1       1.463  -0.644  -2.368  0.00  0.00    -0.205 F 
ENDBRANCH   1  15
BRANCH   8  18
ATOM     18  C   UNL     1      -1.589  -3.678  -2.170  0.00  0.00    +0.204 C 
ATOM     19  C   UNL     1      -1.959  -4.938  -1.358  0.00  0.00    +0.043 C 
ATOM     20  C   UNL     1      -2.632  -5.836  -2.432  0.00  0.00    +0.031 C 
ATOM     21  C   UNL     1      -1.810  -5.456  -3.690  0.00  0.00    +0.161 C 
ATOM     22  O   UNL     1      -1.541  -4.050  -3.552  0.00  0.00    -0.367 OA
ENDBRANCH   8  18
TORSDOF 2
