REMARK  Name = ZINC01691144
REMARK  12 active torsions:
REMARK  status: ('A' for Active; 'I' for Inactive)
REMARK    1  A    between atoms: C_1  and  N_46
REMARK    2  A    between atoms: C_2  and  N_46
REMARK    3  A    between atoms: C_3  and  C_4
REMARK    4  A    between atoms: C_3  and  N_46
REMARK    5  A    between atoms: C_8  and  S_11
REMARK    6  A    between atoms: C_9  and  O_10
REMARK    7  A    between atoms: S_11  and  C_12
REMARK    8  A    between atoms: C_16  and  C_19
REMARK    9  A    between atoms: C_17  and  O_18
REMARK   10  A    between atoms: C_19  and  N_48
REMARK   11  A    between atoms: C_20  and  N_48
REMARK   12  A    between atoms: C_21  and  N_48
REMARK                            x       y       z     vdW  Elec       q    Type
REMARK                         _______ _______ _______ _____ _____    ______ ____
ROOT
ATOM      1  S   UNL     1      -2.786   4.655   0.052  0.00  0.00    -0.082 S 
ENDROOT
BRANCH   1   6
ATOM      2  C   UNL     1      -6.285   2.696  -0.329  0.00  0.00    -0.020 A 
ATOM      3  C   UNL     1      -5.889   1.371  -0.318  0.00  0.00    +0.025 A 
ATOM      4  C   UNL     1      -4.549   1.047  -0.196  0.00  0.00    +0.042 A 
ATOM      5  C   UNL     1      -3.600   2.047  -0.082  0.00  0.00    +0.038 A 
ATOM      6  C   UNL     1      -3.992   3.378  -0.092  0.00  0.00    +0.056 A 
ATOM      7  C   UNL     1      -5.342   3.703  -0.210  0.00  0.00    +0.132 A 
ATOM      8 CL   UNL     1      -4.059  -0.618  -0.183  0.00  0.00    -0.083 Cl
BRANCH   7   9
ATOM      9  O   UNL     1      -5.732   5.006  -0.215  0.00  0.00    -0.505 OA
ATOM     10  H   UNL     1      -5.762   5.404  -1.096  0.00  0.00    +0.292 HD
ENDBRANCH   7   9
BRANCH   2  11
ATOM     11  C   UNL     1      -7.745   3.044  -0.463  0.00  0.00    -0.040 C 
BRANCH  11  14
ATOM     12  C   UNL     1      -7.864   2.272  -2.755  0.00  0.00    -0.096 C 
ATOM     13  C   UNL     1      -9.382   3.990  -1.977  0.00  0.00    -0.096 C 
ATOM     14  N   UNL     1      -8.015   3.440  -1.862  0.00  0.00    +0.379 N 
ATOM     15  H   UNL     1      -7.340   4.162  -2.140  0.00  0.00    -0.082 HD
ENDBRANCH  11  14
ENDBRANCH   2  11
ENDBRANCH   1   6
BRANCH   1  16
ATOM     16  C   UNL     1      -1.248   3.795   0.014  0.00  0.00    +0.056 A 
ATOM     17  C   UNL     1      -0.531   3.599   1.186  0.00  0.00    +0.038 A 
ATOM     18  C   UNL     1       0.678   2.928   1.153  0.00  0.00    +0.042 A 
ATOM     19  C   UNL     1       1.169   2.442  -0.046  0.00  0.00    +0.025 A 
ATOM     20  C   UNL     1       0.457   2.629  -1.217  0.00  0.00    -0.020 A 
ATOM     21  C   UNL     1      -0.751   3.304  -1.192  0.00  0.00    +0.132 A 
ATOM     22 CL   UNL     1       1.577   2.689   2.618  0.00  0.00    -0.083 Cl
BRANCH  21  23
ATOM     23  O   UNL     1      -1.452   3.489  -2.343  0.00  0.00    -0.505 OA
ATOM     24  H   UNL     1      -2.078   2.780  -2.541  0.00  0.00    +0.292 HD
ENDBRANCH  21  23
BRANCH  20  25
ATOM     25  C   UNL     1       0.997   2.098  -2.519  0.00  0.00    -0.040 C 
BRANCH  25  28
ATOM     26  C   UNL     1       2.376   2.672  -4.425  0.00  0.00    -0.096 C 
ATOM     27  C   UNL     1       0.643   4.192  -3.683  0.00  0.00    -0.096 C 
ATOM     28  N   UNL     1       1.653   3.203  -3.250  0.00  0.00    +0.379 N 
ATOM     29  H   UNL     1       2.324   3.663  -2.625  0.00  0.00    -0.082 HD
ENDBRANCH  25  28
ENDBRANCH  20  25
ENDBRANCH   1  16
TORSDOF 8
