REMARK  Name = ZINC53863725
REMARK  9 active torsions:
REMARK  status: ('A' for Active; 'I' for Inactive)
REMARK    1  A    between atoms: C_1  and  C_2
REMARK    2  A    between atoms: C_2  and  C_3
REMARK    3  A    between atoms: C_3  and  N_4
REMARK    4  A    between atoms: N_4  and  C_5
REMARK    5  A    between atoms: C_12  and  C_14
REMARK    6  A    between atoms: C_14  and  N_15
REMARK    7  A    between atoms: N_15  and  C_16
REMARK    8  A    between atoms: N_15  and  C_17
REMARK    9  A    between atoms: N_20  and  C_23
REMARK                            x       y       z     vdW  Elec       q    Type
REMARK                         _______ _______ _______ _____ _____    ______ ____
ROOT
ATOM      1  C   UNL     1       1.426  -2.440  -2.474  0.00  0.00    -0.068 C 
ATOM      2  C   UNL     1       2.892  -1.970  -2.427  0.00  0.00    -0.015 C 
ATOM      3  C   UNL     1       3.772  -2.735  -3.378  0.00  0.00    -0.002 C 
ATOM      4  C   UNL     1       4.422  -3.905  -2.612  0.00  0.00    -0.000 C 
ATOM      5  C   UNL     1       3.522  -5.039  -2.462  0.00  0.00    +0.000 C 
ATOM      6  C   UNL     1       2.260  -4.684  -1.647  0.00  0.00    +0.003 C 
ATOM      7  C   UNL     1       1.294  -3.973  -2.552  0.00  0.00    -0.011 C 
ENDROOT
BRANCH   1   8
ATOM      8  N   UNL     1       0.738  -1.966  -1.265  0.00  0.00    +0.381 N 
ATOM      9  H   UNL     1       1.226  -2.301  -0.447  0.00  0.00    -0.086 HD
ATOM     10  H   UNL     1      -0.208  -2.316  -1.258  0.00  0.00    -0.086 HD
BRANCH   8  11
ATOM     11  C   UNL     1       0.718  -0.497  -1.257  0.00  0.00    -0.082 C 
BRANCH  11  13
ATOM     12  C   UNL     1      -0.019   1.526   0.010  0.00  0.00    +0.002 C 
ATOM     13  C   UNL     1       0.002  -0.004   0.002  0.00  0.00    -0.022 C 
ENDBRANCH  11  13
ENDBRANCH   8  11
ENDBRANCH   1   8
BRANCH   7  14
ATOM     14  C   UNL     1      -0.131  -4.368  -2.156  0.00  0.00    +0.086 C 
BRANCH  14  15
ATOM     15  N   UNL     1      -0.307  -5.815  -2.341  0.00  0.00    -0.302 NA
ATOM     16  C   UNL     1      -0.225  -6.178  -3.762  0.00  0.00    +0.105 C 
BRANCH  15  17
ATOM     17  C   UNL     1      -1.574  -6.270  -1.753  0.00  0.00    +0.053 C 
ATOM     18  C   UNL     1      -1.578  -5.972  -0.251  0.00  0.00    +0.000 C 
ATOM     19  C   UNL     1      -2.865  -6.519   0.368  0.00  0.00    -0.078 C 
ATOM     20  N   UNL     1      -2.937  -7.970   0.156  0.00  0.00    +0.378 N 
ATOM     21  C   UNL     1      -3.005  -8.260  -1.281  0.00  0.00    -0.078 C 
ATOM     22  C   UNL     1      -1.723  -7.779  -1.964  0.00  0.00    +0.000 C 
ATOM     23  C   UNL     1      -4.134  -8.502   0.819  0.00  0.00    -0.096 C 
ATOM     24  H   UNL     1      -2.115  -8.407   0.547  0.00  0.00    -0.082 HD
ENDBRANCH  15  17
ENDBRANCH  14  15
ENDBRANCH   7  14
TORSDOF 6
