REMARK  Name = ZINC20573605
REMARK  10 active torsions:
REMARK  status: ('A' for Active; 'I' for Inactive)
REMARK    1  A    between atoms: C_1  and  S_2
REMARK    2  A    between atoms: S_2  and  C_3
REMARK    3  A    between atoms: C_3  and  C_4
REMARK    4  A    between atoms: C_4  and  C_5
REMARK    5  A    between atoms: C_5  and  C_7
REMARK    6  A    between atoms: C_5  and  N_24
REMARK    7  A    between atoms: C_25  and  C_27
REMARK    8  A    between atoms: C_27  and  C_28
REMARK    9  A    between atoms: C_28  and  C_29
REMARK   10  A    between atoms: C_29  and  C_30
REMARK                            x       y       z     vdW  Elec       q    Type
REMARK                         _______ _______ _______ _____ _____    ______ ____
ROOT
ATOM      1  C   UNL     1      -3.488  -3.862  -0.232  0.00  0.00    +0.236 C 
ATOM      2  O   UNL     1      -3.757  -4.612   0.682  0.00  0.00    -0.274 OA
ATOM      3  N   UNL     1      -3.306  -4.351  -1.475  0.00  0.00    -0.300 N 
ATOM      4  C   UNL     1      -2.868  -3.474  -2.569  0.00  0.00    +0.110 C 
ATOM      5  C   UNL     1      -1.622  -4.083  -3.220  0.00  0.00    +0.047 C 
ATOM      6  C   UNL     1      -1.923  -5.520  -3.646  0.00  0.00    +0.064 C 
ATOM      7  C   UNL     1      -2.290  -6.358  -2.421  0.00  0.00    +0.047 C 
ATOM      8  C   UNL     1      -3.537  -5.774  -1.760  0.00  0.00    +0.110 C 
ATOM      9  C   UNL     1      -0.718  -6.112  -4.325  0.00  0.00    +0.057 A 
ATOM     10  C   UNL     1      -0.779  -6.837  -5.466  0.00  0.00    +0.039 A 
ATOM     11  N   UNL     1       0.461  -7.202  -5.791  0.00  0.00    -0.349 N 
ATOM     12  C   UNL     1       1.293  -6.735  -4.896  0.00  0.00    +0.171 A 
ATOM     13  N   UNL     1       0.591  -6.048  -3.964  0.00  0.00    -0.348 N 
ATOM     14  H   UNL     1       0.953  -5.596  -3.186  0.00  0.00    +0.166 HD
ATOM     15  C   UNL     1      -2.075  -7.136  -6.181  0.00  0.00    +0.070 C 
ATOM     16  C   UNL     1      -3.227  -6.851  -5.208  0.00  0.00    +0.088 C 
ATOM     17  N   UNL     1      -3.045  -5.525  -4.599  0.00  0.00    -0.305 NA
ATOM     18  H   UNL     1      -3.896  -5.210  -4.158  0.00  0.00    +0.123 HD
ATOM     19  H   UNL     1       0.707  -7.730  -6.567  0.00  0.00    +0.166 HD
ENDROOT
BRANCH   1  20
ATOM     20  C   UNL     1      -3.356  -2.382   0.021  0.00  0.00    +0.160 C 
BRANCH  20  21
ATOM     21  N   UNL     1      -4.169  -2.011   1.183  0.00  0.00    -0.304 N 
ATOM     22  C   UNL     1      -4.622  -0.749   1.312  0.00  0.00    +0.214 C 
ATOM     23  O   UNL     1      -4.357   0.081   0.468  0.00  0.00    -0.276 OA
ATOM     24  H   UNL     1      -4.380  -2.675   1.858  0.00  0.00    +0.149 HD
BRANCH  22  25
ATOM     25  C   UNL     1      -5.458  -0.367   2.507  0.00  0.00    +0.096 C 
BRANCH  25  26
ATOM     26  C   UNL     1      -5.839   1.111   2.412  0.00  0.00    +0.014 C 
BRANCH  26  27
ATOM     27  C   UNL     1      -6.688   1.498   3.624  0.00  0.00    +0.035 C 
BRANCH  27  28
ATOM     28  C   UNL     1      -7.063   2.955   3.530  0.00  0.00    -0.047 A 
ATOM     29  C   UNL     1      -6.239   3.918   4.083  0.00  0.00    +0.003 A 
ATOM     30  C   UNL     1      -6.584   5.254   3.997  0.00  0.00    +0.000 A 
ATOM     31  C   UNL     1      -7.751   5.627   3.358  0.00  0.00    +0.000 A 
ATOM     32  C   UNL     1      -8.574   4.664   2.804  0.00  0.00    +0.000 A 
ATOM     33  C   UNL     1      -8.228   3.329   2.886  0.00  0.00    +0.003 A 
ENDBRANCH  27  28
ENDBRANCH  26  27
ENDBRANCH  25  26
ENDBRANCH  22  25
ENDBRANCH  20  21
BRANCH  20  34
ATOM     34  C   UNL     1      -1.890  -2.040   0.295  0.00  0.00    +0.042 C 
BRANCH  34  35
ATOM     35  C   UNL     1      -1.733  -0.522   0.410  0.00  0.00    +0.071 C 
BRANCH  35  37
ATOM     36  C   UNL     1       0.020   1.694   0.842  0.00  0.00    +0.084 C 
ATOM     37  S   UNL     1       0.005  -0.117   0.734  0.00  0.00    -0.164 S 
ENDBRANCH  35  37
ENDBRANCH  34  35
ENDBRANCH  20  34
ENDBRANCH   1  20
TORSDOF 9
