REMARK  Name = ZINC53860046
REMARK  9 active torsions:
REMARK  status: ('A' for Active; 'I' for Inactive)
REMARK    1  A    between atoms: C_1  and  C_2
REMARK    2  A    between atoms: C_2  and  C_3
REMARK    3  A    between atoms: C_3  and  C_4
REMARK    4  A    between atoms: C_8  and  N_21
REMARK    5  A    between atoms: C_10  and  C_13
REMARK    6  A    between atoms: C_13  and  N_14
REMARK    7  A    between atoms: C_18  and  C_20
REMARK    8  A    between atoms: N_21  and  C_22
REMARK    9  A    between atoms: C_22  and  C_23
REMARK                            x       y       z     vdW  Elec       q    Type
REMARK                         _______ _______ _______ _____ _____    ______ ____
ROOT
ATOM      1  C   UNL     1       0.763  -2.041   1.233  0.00  0.00    -0.011 C 
ATOM      2  C   UNL     1       1.586  -2.533   0.041  0.00  0.00    +0.002 C 
ATOM      3  C   UNL     1       3.017  -2.004   0.156  0.00  0.00    -0.015 C 
ATOM      4  C   UNL     1       3.646  -2.513   1.454  0.00  0.00    -0.070 C 
ATOM      5  C   UNL     1       2.823  -2.021   2.647  0.00  0.00    -0.042 C 
ATOM      6  C   UNL     1       1.392  -2.549   2.532  0.00  0.00    +0.003 C 
ENDROOT
BRANCH   4   7
ATOM      7  N   UNL     1       5.020  -2.005   1.565  0.00  0.00    +0.381 N 
ATOM      8  H   UNL     1       5.014  -0.999   1.488  0.00  0.00    -0.086 HD
ATOM      9  H   UNL     1       5.406  -2.272   2.458  0.00  0.00    -0.086 HD
BRANCH   7  10
ATOM     10  C   UNL     1       5.840  -2.574   0.487  0.00  0.00    -0.086 C 
ATOM     11  C   UNL     1       7.271  -2.045   0.602  0.00  0.00    -0.017 C 
ENDBRANCH   7  10
ENDBRANCH   4   7
BRANCH   1  12
ATOM     12  C   UNL     1       0.742  -0.511   1.242  0.00  0.00    +0.003 C 
BRANCH  12  14
ATOM     13  C   UNL     1      -0.019   1.526   0.010  0.00  0.00    +0.004 C 
ATOM     14  C   UNL     1       0.002  -0.004   0.002  0.00  0.00    -0.003 C 
ENDBRANCH  12  14
ENDBRANCH   1  12
BRANCH   5  15
ATOM     15  C   UNL     1       3.452  -2.529   3.945  0.00  0.00    -0.077 C 
BRANCH  15  16
ATOM     16  N   UNL     1       2.734  -1.960   5.093  0.00  0.00    +0.382 N 
ATOM     17  C   UNL     1       2.938  -0.496   5.131  0.00  0.00    -0.078 C 
ATOM     18  C   UNL     1       3.020  -0.146   6.638  0.00  0.00    -0.020 C 
ATOM     19  C   UNL     1       3.788  -1.371   7.202  0.00  0.00    -0.017 C 
ATOM     20  C   UNL     1       3.258  -2.539   6.344  0.00  0.00    -0.072 C 
ATOM     21  C   UNL     1       4.396  -3.512   6.030  0.00  0.00    -0.013 C 
ATOM     22  H   UNL     1       1.748  -2.161   5.012  0.00  0.00    -0.081 HD
ENDBRANCH  15  16
ENDBRANCH   5  15
TORSDOF 6
