REMARK  Name = ZINC38071418
REMARK  6 active torsions:
REMARK  status: ('A' for Active; 'I' for Inactive)
REMARK    1  A    between atoms: C_1  and  C_2
REMARK    2  A    between atoms: C_2  and  N_3
REMARK    3  A    between atoms: N_3  and  C_4
REMARK    4  A    between atoms: C_4  and  C_6
REMARK    5  A    between atoms: C_4  and  C_7
REMARK    6  A    between atoms: C_11  and  C_13
REMARK                            x       y       z     vdW  Elec       q    Type
REMARK                         _______ _______ _______ _____ _____    ______ ____
ROOT
ATOM      1  C   UNL     1       1.565  -2.457   2.337  0.00  0.00    -0.061 A 
ATOM      2  C   UNL     1       1.482  -1.833   3.569  0.00  0.00    +0.002 A 
ATOM      3  C   UNL     1       2.243  -2.284   4.632  0.00  0.00    +0.001 A 
ATOM      4  C   UNL     1       3.090  -3.361   4.469  0.00  0.00    +0.008 A 
ATOM      5  C   UNL     1       3.179  -3.994   3.231  0.00  0.00    -0.018 A 
ATOM      6  C   UNL     1       2.405  -3.538   2.164  0.00  0.00    +0.010 A 
ENDROOT
BRANCH   5   7
ATOM      7  C   UNL     1       4.088  -5.152   3.049  0.00  0.00    -0.014 A 
ATOM      8  C   UNL     1       4.180  -5.780   1.809  0.00  0.00    +0.012 A 
ATOM      9  C   UNL     1       5.025  -6.857   1.642  0.00  0.00    +0.050 A 
ATOM     10  C   UNL     1       5.788  -7.318   2.707  0.00  0.00    +0.162 A 
ATOM     11  C   UNL     1       5.702  -6.693   3.946  0.00  0.00    +0.163 A 
ATOM     12  C   UNL     1       4.857  -5.610   4.117  0.00  0.00    +0.058 A 
ATOM     13  O   UNL     1       6.449  -7.128   4.999  0.00  0.00    -0.485 OA
ATOM     14  C   UNL     1       7.008  -8.441   4.892  0.00  0.00    +0.270 C 
ATOM     15  C   UNL     1       7.639  -8.583   3.500  0.00  0.00    +0.270 C 
ATOM     16  O   UNL     1       6.613  -8.385   2.521  0.00  0.00    -0.485 OA
ENDBRANCH   5   7
BRANCH   1  17
ATOM     17  C   UNL     1       0.733  -1.960   1.184  0.00  0.00    -0.044 C 
ATOM     18  C   UNL     1      -0.696  -2.490   1.321  0.00  0.00    -0.009 C 
BRANCH  17  19
ATOM     19  N   UNL     1       0.713  -0.491   1.192  0.00  0.00    +0.383 N 
ATOM     20  H   UNL     1       1.659  -0.141   1.185  0.00  0.00    -0.085 HD
ATOM     21  H   UNL     1       0.240  -0.165   2.022  0.00  0.00    -0.085 HD
BRANCH  19  23
ATOM     22  C   UNL     1      -0.019   1.526   0.010  0.00  0.00    -0.017 C 
ATOM     23  C   UNL     1       0.002  -0.004   0.002  0.00  0.00    -0.085 C 
ENDBRANCH  19  23
ENDBRANCH  17  19
ENDBRANCH   1  17
TORSDOF 4
