REMARK  Name = ZINC61912536
REMARK  4 active torsions:
REMARK  status: ('A' for Active; 'I' for Inactive)
REMARK    1  A    between atoms: C_1  and  C_2
REMARK    2  A    between atoms: N_6  and  C_15
REMARK    3  A    between atoms: C_10  and  N_14
REMARK    4  A    between atoms: C_15  and  C_16
REMARK                            x       y       z     vdW  Elec       q    Type
REMARK                         _______ _______ _______ _____ _____    ______ ____
ROOT
ATOM      1  C   UNL     1      -0.274   1.518  -0.305  0.00  0.00    +0.062 C 
ATOM      2  C   UNL     1      -0.281  -0.011  -0.358  0.00  0.00    +0.256 C 
ATOM      3  C   UNL     1       0.576  -0.477  -1.508  0.00  0.00    +0.260 C 
ATOM      4  O   UNL     1       0.081  -0.663  -2.599  0.00  0.00    -0.271 OA
ATOM      5  N   UNL     1       1.897  -0.687  -1.317  0.00  0.00    -0.265 N 
ATOM      6  C   UNL     1       2.437  -0.498  -0.034  0.00  0.00    +0.078 A 
ATOM      7  C   UNL     1       3.805  -0.386   0.147  0.00  0.00    +0.029 A 
ATOM      8  C   UNL     1       4.321  -0.202   1.416  0.00  0.00    +0.025 A 
ATOM      9  C   UNL     1       3.468  -0.128   2.510  0.00  0.00    +0.028 A 
ATOM     10  C   UNL     1       2.095  -0.239   2.332  0.00  0.00    +0.070 A 
ATOM     11  C   UNL     1       1.578  -0.423   1.062  0.00  0.00    +0.145 A 
ATOM     12  O   UNL     1       0.237  -0.531   0.869  0.00  0.00    -0.478 OA
ENDROOT
BRANCH   9  13
ATOM     13  N   UNL     1       3.993   0.058   3.793  0.00  0.00    -0.358 N 
ATOM     14  H   UNL     1       4.952   0.135   3.919  0.00  0.00    +0.142 HD
ATOM     15  H   UNL     1       3.398   0.109   4.558  0.00  0.00    +0.142 HD
ENDBRANCH   9  13
BRANCH   5  16
ATOM     16  C   UNL     1       2.752  -1.105  -2.430  0.00  0.00    +0.119 C 
BRANCH  16  17
ATOM     17  C   UNL     1       2.919  -2.625  -2.402  0.00  0.00    +0.035 C 
ATOM     18  C   UNL     1       3.837  -3.091  -3.558  0.00  0.00    +0.035 C 
ATOM     19  C   UNL     1       3.124  -4.380  -4.040  0.00  0.00    +0.160 C 
ATOM     20  O   UNL     1       1.722  -4.058  -3.910  0.00  0.00    -0.379 OA
ATOM     21  C   UNL     1       1.573  -3.321  -2.681  0.00  0.00    +0.165 C 
ENDBRANCH  16  17
ENDBRANCH   5  16
TORSDOF 3
