REMARK  Name = ZINC66598710
REMARK  9 active torsions:
REMARK  status: ('A' for Active; 'I' for Inactive)
REMARK    1  A    between atoms: C_1  and  C_2
REMARK    2  A    between atoms: C_2  and  C_3
REMARK    3  A    between atoms: C_3  and  C_4
REMARK    4  A    between atoms: C_4  and  N_5
REMARK    5  A    between atoms: C_10  and  C_12
REMARK    6  A    between atoms: C_12  and  N_13
REMARK    7  A    between atoms: N_16  and  N_17
REMARK    8  A    between atoms: C_18  and  C_20
REMARK    9  A    between atoms: C_21  and  C_25
REMARK                            x       y       z     vdW  Elec       q    Type
REMARK                         _______ _______ _______ _____ _____    ______ ____
ROOT
ATOM      1  N   UNL     1      -0.567  -3.609  -3.587  0.00  0.00    -0.300 N 
ATOM      2  C   UNL     1      -1.893  -3.746  -3.785  0.00  0.00    +0.316 C 
ATOM      3  O   UNL     1      -2.551  -4.439  -3.034  0.00  0.00    -0.251 OA
ATOM      4  N   UNL     1      -2.489  -3.115  -4.816  0.00  0.00    -0.218 N 
ATOM      5  H   UNL     1      -0.054  -3.000  -4.142  0.00  0.00    +0.150 HD
ATOM      6  H   UNL     1      -3.453  -3.156  -4.918  0.00  0.00    +0.174 HD
ENDROOT
BRANCH   4   7
ATOM      7  N   UNL     1      -1.717  -2.401  -5.742  0.00  0.00    -0.229 N 
ATOM      8  C   UNL     1      -2.319  -1.683  -6.710  0.00  0.00    +0.267 C 
ATOM      9  O   UNL     1      -3.532  -1.581  -6.728  0.00  0.00    -0.268 OA
ATOM     10  H   UNL     1      -0.749  -2.423  -5.685  0.00  0.00    +0.173 HD
BRANCH   8  11
ATOM     11  C   UNL     1      -1.514  -1.025  -7.743  0.00  0.00    +0.078 A 
ATOM     12  C   UNL     1      -1.921  -0.172  -8.758  0.00  0.00    -0.031 A 
ATOM     13  C   UNL     1      -0.925   0.293  -9.582  0.00  0.00    +0.011 A 
ATOM     14  C   UNL     1       0.354  -0.099  -9.358  0.00  0.00    +0.046 A 
ATOM     15  S   UNL     1       0.246  -1.106  -8.017  0.00  0.00    -0.092 S 
ATOM     16  C   UNL     1      -3.364   0.219  -8.945  0.00  0.00    +0.045 C 
ENDBRANCH   8  11
ENDBRANCH   4   7
BRANCH   1  17
ATOM     17  C   UNL     1       0.100  -4.378  -2.535  0.00  0.00    +0.090 C 
BRANCH  17  23
ATOM     18  N   UNL     1       1.634  -2.493  -2.248  0.00  0.00    +0.383 N 
ATOM     19  C   UNL     1       3.031  -2.078  -2.077  0.00  0.00    -0.078 C 
ATOM     20  C   UNL     1       3.820  -2.393  -3.350  0.00  0.00    -0.019 C 
ATOM     21  C   UNL     1       3.762  -3.899  -3.621  0.00  0.00    -0.003 C 
ATOM     22  C   UNL     1       2.297  -4.333  -3.724  0.00  0.00    -0.014 C 
ATOM     23  C   UNL     1       1.565  -3.946  -2.437  0.00  0.00    -0.051 C 
ATOM     24  H   UNL     1       1.244  -2.031  -3.057  0.00  0.00    -0.081 HD
BRANCH  18  25
ATOM     25  C   UNL     1       0.864  -2.118  -1.054  0.00  0.00    -0.078 C 
BRANCH  25  26
ATOM     26  C   UNL     1       0.812  -0.593  -0.939  0.00  0.00    -0.019 C 
BRANCH  26  28
ATOM     27  C   UNL     1       0.158   1.314   0.536  0.00  0.00    +0.004 C 
ATOM     28  C   UNL     1       0.102  -0.204   0.360  0.00  0.00    -0.005 C 
ENDBRANCH  26  28
ENDBRANCH  25  26
ENDBRANCH  18  25
ENDBRANCH  17  23
ENDBRANCH   1  17
TORSDOF 7
