REMARK  Name = ZINC66206314
REMARK  9 active torsions:
REMARK  status: ('A' for Active; 'I' for Inactive)
REMARK    1  A    between atoms: C_1  and  C_2
REMARK    2  A    between atoms: C_2  and  C_24
REMARK    3  A    between atoms: C_4  and  N_10
REMARK    4  A    between atoms: C_6  and  C_8
REMARK    5  A    between atoms: C_6  and  C_9
REMARK    6  A    between atoms: C_11  and  C_13
REMARK    7  A    between atoms: N_15  and  C_16
REMARK    8  A    between atoms: C_19  and  S_22
REMARK    9  A    between atoms: S_22  and  C_23
REMARK                            x       y       z     vdW  Elec       q    Type
REMARK                         _______ _______ _______ _____ _____    ______ ____
ROOT
ATOM      1  N   UNL     1       2.611  -0.813  -2.631  0.00  0.00    -0.305 N 
ATOM      2  C   UNL     1       3.766  -0.329  -3.128  0.00  0.00    +0.300 C 
ATOM      3  O   UNL     1       4.368   0.539  -2.530  0.00  0.00    -0.265 OA
ATOM      4  H   UNL     1       2.130  -1.506  -3.109  0.00  0.00    +0.149 HD
ENDROOT
BRANCH   1   8
ATOM      5  C   UNL     1      -0.033   1.542  -0.011  0.00  0.00    -0.010 C 
ATOM      6  C   UNL     1      -0.010   0.010  -0.013  0.00  0.00    -0.072 C 
ATOM      7  C   UNL     1       0.565  -0.495  -1.331  0.00  0.00    +0.009 C 
ATOM      8  C   UNL     1       2.080  -0.290  -1.366  0.00  0.00    +0.071 C 
ATOM      9  C   UNL     1       2.693  -1.069  -0.202  0.00  0.00    +0.009 C 
ATOM     10  C   UNL     1       2.133  -0.568   1.126  0.00  0.00    -0.072 C 
ATOM     11  N   UNL     1       0.683  -0.508   1.154  0.00  0.00    +0.386 N 
ATOM     12  C   UNL     1       2.753   0.791   1.470  0.00  0.00    -0.010 C 
ATOM     13  C   UNL     1       2.585  -1.561   2.221  0.00  0.00    -0.010 C 
ATOM     14  C   UNL     1      -1.480  -0.465   0.063  0.00  0.00    -0.010 C 
ATOM     15  H   UNL     1       0.399   0.045   1.968  0.00  0.00    -0.084 HD
ATOM     16  H   UNL     1       0.328  -1.451   1.344  0.00  0.00    -0.084 HD
ENDBRANCH   1   8
BRANCH   2  17
ATOM     17  C   UNL     1       4.306  -0.860  -4.414  0.00  0.00    +0.303 C 
ATOM     18  O   UNL     1       3.705  -1.728  -5.013  0.00  0.00    -0.265 OA
ATOM     19  N   UNL     1       5.462  -0.376  -4.911  0.00  0.00    -0.276 N 
ATOM     20  H   UNL     1       5.907   0.364  -4.470  0.00  0.00    +0.155 HD
BRANCH  19  21
ATOM     21  C   UNL     1       6.018  -0.941  -6.064  0.00  0.00    +0.052 A 
ATOM     22  C   UNL     1       5.196  -1.414  -7.087  0.00  0.00    +0.027 A 
ATOM     23  C   UNL     1       5.788  -1.964  -8.207  0.00  0.00    +0.036 A 
ATOM     24  C   UNL     1       7.177  -2.027  -8.278  0.00  0.00    +0.097 A 
ATOM     25  N   UNL     1       7.927  -1.568  -7.288  0.00  0.00    -0.247 NA
ATOM     26  C   UNL     1       7.395  -1.032  -6.207  0.00  0.00    +0.135 A 
BRANCH  24  27
ATOM     27  S   UNL     1       7.946  -2.727  -9.701  0.00  0.00    -0.109 S 
ATOM     28  C   UNL     1       9.720  -2.596  -9.351  0.00  0.00    +0.091 C 
ENDBRANCH  24  27
ENDBRANCH  19  21
ENDBRANCH   2  17
TORSDOF 4
