REMARK  Name = ZINC02421943
REMARK  7 active torsions:
REMARK  status: ('A' for Active; 'I' for Inactive)
REMARK    1  A    between atoms: C_1  and  O_2
REMARK    2  A    between atoms: O_2  and  C_3
REMARK    3  A    between atoms: C_8  and  O_9
REMARK    4  A    between atoms: O_9  and  C_10
REMARK    5  A    between atoms: N_17  and  N_20
REMARK    6  A    between atoms: C_21  and  C_22
REMARK    7  A    between atoms: C_27  and  O_28
REMARK                            x       y       z     vdW  Elec       q    Type
REMARK                         _______ _______ _______ _____ _____    ______ ____
ROOT
ATOM      1  C   UNL     1       0.603  -0.608  -1.059  0.00  0.00    +0.162 A 
ATOM      2  C   UNL     1       1.169   0.158  -2.056  0.00  0.00    +0.061 A 
ATOM      3  C   UNL     1       1.785  -0.465  -3.144  0.00  0.00    +0.030 A 
ATOM      4  C   UNL     1       1.828  -1.868  -3.222  0.00  0.00    +0.053 A 
ATOM      5  C   UNL     1       1.252  -2.627  -2.208  0.00  0.00    +0.075 A 
ATOM      6  C   UNL     1       0.650  -2.002  -1.133  0.00  0.00    +0.163 A 
ATOM      7  N   UNL     1       2.487  -2.216  -4.384  0.00  0.00    -0.349 N 
ATOM      8  H   UNL     1       2.653  -3.125  -4.678  0.00  0.00    +0.166 HD
ATOM      9  C   UNL     1       2.876  -1.079  -5.068  0.00  0.00    +0.133 A 
ATOM     10  C   UNL     1       2.466   0.040  -4.344  0.00  0.00    +0.103 A 
ATOM     11  N   UNL     1       2.733   1.272  -4.812  0.00  0.00    -0.233 NA
ATOM     12  C   UNL     1       3.370   1.444  -5.936  0.00  0.00    +0.227 A 
ATOM     13  N   UNL     1       3.795   0.394  -6.687  0.00  0.00    -0.184 N 
ATOM     14  C   UNL     1       3.565  -0.874  -6.283  0.00  0.00    +0.298 A 
ATOM     15  O   UNL     1       3.945  -1.821  -6.952  0.00  0.00    -0.263 OA
ENDROOT
BRANCH   1  17
ATOM     16  C   UNL     1      -0.011   1.424   0.013  0.00  0.00    +0.277 C 
ATOM     17  O   UNL     1       0.001  -0.005   0.002  0.00  0.00    -0.491 OA
ENDBRANCH   1  17
BRANCH   6  18
ATOM     18  O   UNL     1       0.094  -2.749  -0.142  0.00  0.00    -0.491 OA
ATOM     19  C   UNL     1       0.176  -4.170  -0.278  0.00  0.00    +0.277 C 
ENDBRANCH   6  18
BRANCH  13  20
ATOM     20  N   UNL     1       4.477   0.629  -7.888  0.00  0.00    -0.170 NA
ATOM     21  C   UNL     1       4.610   1.842  -8.333  0.00  0.00    +0.145 C 
BRANCH  21  22
ATOM     22  C   UNL     1       5.228   2.080  -9.649  0.00  0.00    +0.037 A 
ATOM     23  C   UNL     1       5.378   3.384 -10.128  0.00  0.00    +0.013 A 
ATOM     24  C   UNL     1       5.957   3.601 -11.360  0.00  0.00    +0.002 A 
ATOM     25  C   UNL     1       6.391   2.531 -12.126  0.00  0.00    +0.019 A 
ATOM     26  C   UNL     1       6.248   1.236 -11.663  0.00  0.00    +0.060 A 
ATOM     27  C   UNL     1       5.673   1.001 -10.424  0.00  0.00    +0.139 A 
ATOM     28 BR   UNL     1       6.844  -0.215 -12.719  0.00  0.00    -0.047 Br
BRANCH  27  29
ATOM     29  O   UNL     1       5.538  -0.270  -9.965  0.00  0.00    -0.505 OA
ATOM     30  H   UNL     1       4.704  -0.691 -10.215  0.00  0.00    +0.292 HD
ENDBRANCH  27  29
ENDBRANCH  21  22
ENDBRANCH  13  20
TORSDOF 5
