REMARK  Name = ZINC63807961
REMARK  5 active torsions:
REMARK  status: ('A' for Active; 'I' for Inactive)
REMARK    1  A    between atoms: C_1  and  C_2
REMARK    2  A    between atoms: C_4  and  N_8
REMARK    3  A    between atoms: C_9  and  C_11
REMARK    4  A    between atoms: C_11  and  C_22
REMARK    5  A    between atoms: C_12  and  C_13
REMARK                            x       y       z     vdW  Elec       q    Type
REMARK                         _______ _______ _______ _____ _____    ______ ____
ROOT
ATOM      1  C   UNL     1      -1.440  -4.627   2.798  0.00  0.00    +0.114 C 
ATOM      2  C   UNL     1      -2.004  -5.882   2.944  0.00  0.00    +0.030 C 
ENDROOT
BRANCH   2   3
ATOM      3  C   UNL     1      -2.121  -6.455   4.218  0.00  0.00    -0.016 C 
ATOM      4  C   UNL     1      -2.653  -7.697   4.536  0.00  0.00    +0.022 A 
ATOM      5  C   UNL     1      -3.216  -8.732   3.750  0.00  0.00    +0.013 A 
ATOM      6  C   UNL     1      -3.658  -9.852   4.382  0.00  0.00    +0.020 A 
ATOM      7  C   UNL     1      -3.555  -9.974   5.774  0.00  0.00    +0.113 A 
ATOM      8  N   UNL     1      -3.042  -9.040   6.528  0.00  0.00    -0.238 NA
ATOM      9  C   UNL     1      -2.573  -7.886   6.000  0.00  0.00    +0.135 A 
ATOM     10  N   UNL     1      -2.029  -6.838   6.566  0.00  0.00    -0.365 N 
ATOM     11  C   UNL     1      -1.687  -5.851   5.537  0.00  0.00    +0.150 C 
ATOM     12  H   UNL     1      -1.872  -6.732   7.517  0.00  0.00    +0.161 HD
ENDBRANCH   2   3
BRANCH   1  14
ATOM     13  N   UNL     1      -0.767  -2.803   1.314  0.00  0.00    -0.289 N 
ATOM     14  C   UNL     1      -1.317  -4.025   1.456  0.00  0.00    +0.256 C 
ATOM     15  O   UNL     1      -1.711  -4.631   0.479  0.00  0.00    -0.269 OA
ATOM     16  H   UNL     1      -0.452  -2.319   2.094  0.00  0.00    +0.151 HD
BRANCH  13  20
ATOM     17  C   UNL     1      -0.018   1.503   0.010  0.00  0.00    +0.088 C 
ATOM     18  C   UNL     1       0.002  -0.004   0.002  0.00  0.00    +0.121 C 
ATOM     19  C   UNL     1      -1.081  -0.752   0.003  0.00  0.00    +0.057 C 
ATOM     20  C   UNL     1      -0.645  -2.204  -0.017  0.00  0.00    +0.205 C 
ATOM     21  N   UNL     1       0.780  -2.110  -0.429  0.00  0.00    -0.131 NA
ATOM     22  O   UNL     1       1.137  -0.743  -0.013  0.00  0.00    -0.409 OA
ATOM     23  H   UNL     1       1.342  -2.796   0.054  0.00  0.00    +0.170 HD
ENDBRANCH  13  20
ENDBRANCH   1  14
BRANCH   1  24
ATOM     24  C   UNL     1      -0.975  -3.913   3.949  0.00  0.00    +0.104 C 
ATOM     25  N   UNL     1      -0.606  -3.347   4.862  0.00  0.00    -0.191 NA
ENDBRANCH   1  24
TORSDOF 4
