REMARK  Name = ZINC50265131
REMARK  7 active torsions:
REMARK  status: ('A' for Active; 'I' for Inactive)
REMARK    1  A    between atoms: C_1  and  C_2
REMARK    2  A    between atoms: C_3  and  S_9
REMARK    3  A    between atoms: C_4  and  C_8
REMARK    4  A    between atoms: N_5  and  C_7
REMARK    5  A    between atoms: S_9  and  N_12
REMARK    6  A    between atoms: C_16  and  S_19
REMARK    7  A    between atoms: S_19  and  N_22
REMARK                            x       y       z     vdW  Elec       q    Type
REMARK                         _______ _______ _______ _____ _____    ______ ____
ROOT
ATOM      1  N   UNL     1       1.569  -0.086  -3.280  0.00  0.00    -0.175 NA
ATOM      2  C   UNL     1       2.269   1.191  -3.090  0.00  0.00    +0.109 C 
ATOM      3  C   UNL     1       2.858   1.635  -4.433  0.00  0.00    +0.019 C 
ATOM      4  C   UNL     1       3.736   0.515  -4.995  0.00  0.00    +0.030 C 
ATOM      5  C   UNL     1       2.884  -0.734  -5.231  0.00  0.00    +0.163 C 
ATOM      6  C   UNL     1       2.296  -1.206  -3.893  0.00  0.00    +0.137 C 
ENDROOT
BRANCH   1   7
ATOM      7  S   UNL     1      -0.009  -0.263  -2.808  0.00  0.00    +0.064 S 
ATOM      8  O   UNL     1      -0.549  -1.324  -3.583  0.00  0.00    -0.153 OA
ATOM      9  O   UNL     1      -0.578   1.039  -2.797  0.00  0.00    -0.153 OA
BRANCH   7  12
ATOM     10  C   UNL     1      -0.018   1.503   0.010  0.00  0.00    +0.069 C 
ATOM     11  C   UNL     1       0.002  -0.004   0.002  0.00  0.00    +0.086 A 
ATOM     12  C   UNL     1       0.008  -0.818  -1.135  0.00  0.00    +0.148 A 
ATOM     13  C   UNL     1       0.028  -2.107  -0.725  0.00  0.00    +0.062 A 
ATOM     14  N   UNL     1       0.034  -2.109   0.625  0.00  0.00    -0.269 N 
ATOM     15  N   UNL     1       0.023  -0.777   1.058  0.00  0.00    -0.174 NA
ATOM     16  C   UNL     1       0.055  -3.295   1.485  0.00  0.00    +0.172 C 
ATOM     17  C   UNL     1       0.040  -3.323  -1.615  0.00  0.00    +0.067 C 
ENDBRANCH   7  12
ENDBRANCH   1   7
BRANCH   5  18
ATOM     18  S   UNL     1       3.917  -2.048  -5.935  0.00  0.00    +0.031 S 
ATOM     19  O   UNL     1       5.012  -2.325  -5.073  0.00  0.00    -0.158 OA
ATOM     20  O   UNL     1       3.101  -3.100  -6.431  0.00  0.00    -0.158 OA
BRANCH  18  21
ATOM     21  N   UNL     1       4.602  -1.374  -7.284  0.00  0.00    -0.208 NA
ATOM     22  H   UNL     1       4.400  -0.456  -7.524  0.00  0.00    +0.144 HD
ATOM     23  H   UNL     1       5.206  -1.897  -7.835  0.00  0.00    +0.144 HD
ENDBRANCH  18  21
ENDBRANCH   5  18
TORSDOF 4
