REMARK  Name = ZINC66980542
REMARK  8 active torsions:
REMARK  status: ('A' for Active; 'I' for Inactive)
REMARK    1  A    between atoms: C_1  and  C_2
REMARK    2  A    between atoms: C_2  and  C_3
REMARK    3  A    between atoms: C_2  and  C_4
REMARK    4  A    between atoms: C_4  and  C_6
REMARK    5  A    between atoms: C_4  and  N_11
REMARK    6  A    between atoms: N_14  and  C_15
REMARK    7  A    between atoms: C_17  and  N_23
REMARK    8  A    between atoms: C_24  and  C_26
REMARK                            x       y       z     vdW  Elec       q    Type
REMARK                         _______ _______ _______ _____ _____    ______ ____
ROOT
ATOM      1  N   UNL     1      -2.123   0.012   1.140  0.00  0.00    -0.292 N 
ATOM      2  C   UNL     1      -2.033  -0.564   2.355  0.00  0.00    +0.304 C 
ATOM      3  O   UNL     1      -1.358  -1.564   2.506  0.00  0.00    -0.252 OA
ATOM      4  N   UNL     1      -2.692  -0.031   3.404  0.00  0.00    -0.267 N 
ATOM      5  H   UNL     1      -2.662   0.809   1.020  0.00  0.00    +0.151 HD
ATOM      6  H   UNL     1      -3.164   0.810   3.303  0.00  0.00    +0.156 HD
ENDROOT
BRANCH   4   7
ATOM      7  C   UNL     1      -2.695  -0.693   4.639  0.00  0.00    +0.072 A 
ATOM      8  C   UNL     1      -2.498  -2.065   4.693  0.00  0.00    +0.052 A 
ATOM      9  C   UNL     1      -2.501  -2.717   5.917  0.00  0.00    +0.071 A 
ATOM     10  C   UNL     1      -2.700  -1.994   7.088  0.00  0.00    +0.147 A 
ATOM     11  C   UNL     1      -2.896  -0.626   7.033  0.00  0.00    +0.080 A 
ATOM     12  C   UNL     1      -2.888   0.027   5.813  0.00  0.00    +0.147 A 
ATOM     13  F   UNL     1      -3.074   1.364   5.762  0.00  0.00    -0.203 F 
ATOM     14  F   UNL     1      -2.703  -2.629   8.281  0.00  0.00    -0.203 F 
BRANCH   9  15
ATOM     15  N   UNL     1      -2.303  -4.103   5.973  0.00  0.00    -0.283 N 
ATOM     16  C   UNL     1      -2.602  -4.871   4.906  0.00  0.00    +0.214 C 
ATOM     17  O   UNL     1      -3.136  -4.378   3.935  0.00  0.00    -0.276 OA
ATOM     18  C   UNL     1      -2.273  -6.341   4.920  0.00  0.00    +0.109 C 
ATOM     19  H   UNL     1      -1.951  -4.511   6.780  0.00  0.00    +0.155 HD
ENDBRANCH   9  15
ENDBRANCH   4   7
BRANCH   1  20
ATOM     20  C   UNL     1      -1.407  -0.568   0.001  0.00  0.00    +0.114 C 
BRANCH  20  21
ATOM     21  C   UNL     1      -2.101  -0.179  -1.279  0.00  0.00    +0.010 A 
ATOM     22  C   UNL     1      -2.335  -0.927  -2.385  0.00  0.00    +0.013 A 
ATOM     23  C   UNL     1      -2.999  -0.355  -3.454  0.00  0.00    +0.008 A 
ATOM     24  C   UNL     1      -3.397   0.938  -3.364  0.00  0.00    +0.045 A 
ATOM     25  S   UNL     1      -2.836   1.385  -1.729  0.00  0.00    -0.100 S 
ENDBRANCH  20  21
BRANCH  20  27
ATOM     26  C   UNL     1       0.014   1.487  -0.022  0.00  0.00    +0.009 C 
ATOM     27  C   UNL     1       0.030  -0.043  -0.019  0.00  0.00    +0.008 C 
ATOM     28  C   UNL     1       0.772  -0.542   1.222  0.00  0.00    +0.009 C 
ENDBRANCH  20  27
ENDBRANCH   1  20
TORSDOF 5
