REMARK  Name = ZINC55001936
REMARK  11 active torsions:
REMARK  status: ('A' for Active; 'I' for Inactive)
REMARK    1  A    between atoms: C_1  and  C_2
REMARK    2  A    between atoms: C_2  and  C_3
REMARK    3  A    between atoms: C_2  and  N_4
REMARK    4  A    between atoms: N_4  and  C_5
REMARK    5  A    between atoms: C_5  and  C_6
REMARK    6  A    between atoms: C_11  and  C_16
REMARK    7  A    between atoms: C_12  and  C_14
REMARK    8  A    between atoms: C_14  and  N_15
REMARK    9  A    between atoms: C_16  and  C_17
REMARK   10  A    between atoms: C_16  and  C_18
REMARK   11  A    between atoms: C_16  and  C_19
REMARK                            x       y       z     vdW  Elec       q    Type
REMARK                         _______ _______ _______ _____ _____    ______ ____
ROOT
ATOM      1  N   UNL     1      -0.544  -0.458   0.655  0.00  0.00    -0.307 N 
ATOM      2  C   UNL     1      -1.631  -0.032   1.402  0.00  0.00    +0.161 A 
ATOM      3  N   UNL     1      -1.635   0.545   2.585  0.00  0.00    -0.229 NA
ATOM      4  C   UNL     1      -2.767   0.894   3.170  0.00  0.00    +0.057 A 
ATOM      5  C   UNL     1      -3.913   0.632   2.498  0.00  0.00    -0.003 A 
ATOM      6  S   UNL     1      -3.266  -0.121   1.014  0.00  0.00    -0.059 S 
ENDROOT
BRANCH   4   7
ATOM      7  C   UNL     1      -2.782   1.555   4.524  0.00  0.00    +0.005 C 
ATOM      8  C   UNL     1      -1.347   1.859   4.960  0.00  0.00    +0.017 C 
ATOM      9  C   UNL     1      -3.577   2.860   4.446  0.00  0.00    +0.017 C 
ATOM     10  C   UNL     1      -3.436   0.619   5.542  0.00  0.00    +0.017 C 
ENDBRANCH   4   7
BRANCH   1  12
ATOM     11  C   UNL     1       1.088   1.198   1.412  0.00  0.00    +0.028 C 
ATOM     12  C   UNL     1       0.815  -0.288   1.176  0.00  0.00    +0.069 C 
ATOM     13  C   UNL     1       0.953  -1.049   2.496  0.00  0.00    +0.028 C 
ENDBRANCH   1  12
BRANCH   1  14
ATOM     14  C   UNL     1      -0.754  -1.078  -0.656  0.00  0.00    +0.110 C 
BRANCH  14  15
ATOM     15  C   UNL     1      -0.905  -2.591  -0.486  0.00  0.00    +0.006 C 
ATOM     16  C   UNL     1       0.156  -3.484  -1.132  0.00  0.00    +0.005 C 
ATOM     17  C   UNL     1      -1.250  -3.411  -1.731  0.00  0.00    +0.005 C 
ENDBRANCH  14  15
ENDBRANCH   1  14
BRANCH   5  18
ATOM     18  C   UNL     1      -5.342   0.905   2.893  0.00  0.00    -0.041 C 
BRANCH  18  19
ATOM     19  N   UNL     1      -5.789   2.161   2.275  0.00  0.00    +0.381 N 
ATOM     20  H   UNL     1      -5.119   2.890   2.471  0.00  0.00    -0.090 HD
ATOM     21  H   UNL     1      -5.867   2.036   1.277  0.00  0.00    -0.090 HD
ATOM     22  H   UNL     1      -6.688   2.421   2.653  0.00  0.00    -0.090 HD
ENDBRANCH  18  19
ENDBRANCH   5  18
TORSDOF 6
