REMARK  Name = ZINC60214812
REMARK  7 active torsions:
REMARK  status: ('A' for Active; 'I' for Inactive)
REMARK    1  A    between atoms: C_1  and  C_2
REMARK    2  A    between atoms: C_2  and  C_3
REMARK    3  A    between atoms: C_2  and  C_4
REMARK    4  A    between atoms: C_2  and  C_24
REMARK    5  A    between atoms: C_4  and  N_5
REMARK    6  A    between atoms: C_6  and  C_8
REMARK    7  A    between atoms: C_8  and  N_9
REMARK                            x       y       z     vdW  Elec       q    Type
REMARK                         _______ _______ _______ _____ _____    ______ ____
ROOT
ATOM      1  N   UNL     1      -2.119  -0.061   1.218  0.00  0.00    -0.313 N 
ATOM      2  C   UNL     1      -3.403  -0.406   1.442  0.00  0.00    +0.231 C 
ATOM      3  O   UNL     1      -3.990  -1.106   0.645  0.00  0.00    -0.274 OA
ATOM      4  H   UNL     1      -1.649   0.499   1.855  0.00  0.00    +0.149 HD
ENDROOT
BRANCH   1   5
ATOM      5  C   UNL     1      -1.433  -0.534   0.013  0.00  0.00    +0.115 C 
BRANCH   5   7
ATOM      6  C   UNL     1      -0.019   1.526   0.010  0.00  0.00    +0.017 C 
ATOM      7  C   UNL     1       0.002  -0.004   0.002  0.00  0.00    +0.006 C 
ATOM      8  C   UNL     1       0.742  -0.511   1.242  0.00  0.00    +0.017 C 
BRANCH   7   9
ATOM      9  C   UNL     1       0.707  -0.490  -1.238  0.00  0.00    -0.037 A 
ATOM     10  C   UNL     1       0.035  -1.284  -2.148  0.00  0.00    +0.008 A 
ATOM     11  C   UNL     1       0.677  -1.732  -3.287  0.00  0.00    +0.050 A 
ATOM     12  C   UNL     1       1.998  -1.386  -3.519  0.00  0.00    +0.166 A 
ATOM     13  C   UNL     1       2.676  -0.586  -2.602  0.00  0.00    +0.167 A 
ATOM     14  C   UNL     1       2.024  -0.136  -1.466  0.00  0.00    +0.053 A 
ATOM     15  O   UNL     1       3.950  -0.389  -3.053  0.00  0.00    -0.453 OA
ATOM     16  C   UNL     1       4.168  -1.409  -4.045  0.00  0.00    +0.466 C 
ATOM     17  O   UNL     1       2.847  -1.690  -4.544  0.00  0.00    -0.453 OA
ENDBRANCH   7   9
ENDBRANCH   5   7
ENDBRANCH   1   5
BRANCH   2  18
ATOM     18  C   UNL     1      -4.108   0.081   2.682  0.00  0.00    +0.213 C 
BRANCH  18  19
ATOM     19  N   UNL     1      -5.482  -0.426   2.692  0.00  0.00    -0.215 N 
ATOM     20  C   UNL     1      -6.534   0.219   2.143  0.00  0.00    +0.251 C 
ATOM     21  O   UNL     1      -6.524   1.286   1.568  0.00  0.00    -0.272 OA
ATOM     22  C   UNL     1      -7.722  -0.673   2.396  0.00  0.00    +0.138 C 
ATOM     23  C   UNL     1      -8.383  -1.103   1.080  0.00  0.00    +0.045 C 
ATOM     24  C   UNL     1      -9.524  -0.070   0.936  0.00  0.00    +0.038 C 
ATOM     25  C   UNL     1      -9.831   0.384   2.348  0.00  0.00    -0.042 A 
ATOM     26  C   UNL     1      -8.787   0.035   3.190  0.00  0.00    -0.012 A 
ATOM     27  C   UNL     1      -8.855   0.355   4.535  0.00  0.00    +0.006 A 
ATOM     28  C   UNL     1      -9.956   1.018   5.040  0.00  0.00    +0.000 A 
ATOM     29  C   UNL     1     -10.997   1.366   4.199  0.00  0.00    +0.000 A 
ATOM     30  C   UNL     1     -10.933   1.049   2.857  0.00  0.00    +0.004 A 
ATOM     31  N   UNL     1      -7.175  -1.820   3.120  0.00  0.00    -0.281 N 
ATOM     32  C   UNL     1      -5.852  -1.591   3.243  0.00  0.00    +0.310 C 
ATOM     33  O   UNL     1      -5.082  -2.352   3.794  0.00  0.00    -0.252 OA
ATOM     34  H   UNL     1      -7.665  -2.592   3.443  0.00  0.00    +0.152 HD
ENDBRANCH  18  19
ENDBRANCH   2  18
TORSDOF 5
