REMARK  Name = ZINC22808216
REMARK  6 active torsions:
REMARK  status: ('A' for Active; 'I' for Inactive)
REMARK    1  A    between atoms: C_1  and  C_2
REMARK    2  A    between atoms: C_2  and  C_4
REMARK    3  A    between atoms: C_2  and  N_18
REMARK    4  A    between atoms: N_6  and  C_7
REMARK    5  A    between atoms: C_8  and  C_15
REMARK    6  A    between atoms: N_21  and  C_24
REMARK                            x       y       z     vdW  Elec       q    Type
REMARK                         _______ _______ _______ _____ _____    ______ ____
ROOT
ATOM      1  C   UNL     1       0.162   1.494  -0.026  0.00  0.00    +0.235 C 
ATOM      2  O   UNL     1       0.711   2.063   0.894  0.00  0.00    -0.274 OA
ATOM      3  N   UNL     1      -0.304   2.202  -1.074  0.00  0.00    -0.278 N 
ATOM      4  H   UNL     1      -0.743   1.747  -1.810  0.00  0.00    +0.155 HD
ENDROOT
BRANCH   3   5
ATOM      5  C   UNL     1      -0.157   3.581  -1.100  0.00  0.00    +0.084 A 
ATOM      6  C   UNL     1      -0.574   4.462  -2.080  0.00  0.00    +0.068 A 
ATOM      7  C   UNL     1      -0.295   5.881  -1.867  0.00  0.00    -0.023 A 
ATOM      8  C   UNL     1       0.348   6.148  -0.716  0.00  0.00    -0.004 A 
ATOM      9  S   UNL     1       0.562   4.563   0.054  0.00  0.00    -0.077 S 
ATOM     10  C   UNL     1       0.613   7.619  -0.549  0.00  0.00    +0.043 C 
ATOM     11  C   UNL     1       0.425   8.213  -1.963  0.00  0.00    +0.010 C 
ATOM     12  C   UNL     1      -0.539   7.195  -2.606  0.00  0.00    +0.037 C 
BRANCH   6  13
ATOM     13  C   UNL     1      -1.267   3.992  -3.284  0.00  0.00    +0.244 C 
ATOM     14  O   UNL     1      -2.481   3.905  -3.292  0.00  0.00    -0.270 OA
ATOM     15  N   UNL     1      -0.559   3.657  -4.381  0.00  0.00    -0.325 N 
ATOM     16  H   UNL     1       0.408   3.726  -4.374  0.00  0.00    +0.145 HD
ATOM     17  H   UNL     1      -1.017   3.346  -5.177  0.00  0.00    +0.145 HD
ENDBRANCH   6  13
ENDBRANCH   3   5
BRANCH   1  19
ATOM     18  C   UNL     1      -1.452  -0.355   0.322  0.00  0.00    +0.034 C 
ATOM     19  C   UNL     1       0.002  -0.004   0.002  0.00  0.00    +0.140 C 
BRANCH  19  20
ATOM     20  N   UNL     1       0.881  -0.571   1.033  0.00  0.00    -0.295 NA
ATOM     21  C   UNL     1       1.043  -2.020   0.848  0.00  0.00    +0.066 C 
ATOM     22  C   UNL     1       2.011  -2.561   1.903  0.00  0.00    -0.063 C 
ATOM     23  N   UNL     1       1.482  -2.277   3.244  0.00  0.00    +0.384 N 
ATOM     24  C   UNL     1       1.349  -0.825   3.422  0.00  0.00    -0.063 C 
ATOM     25  C   UNL     1       0.376  -0.270   2.380  0.00  0.00    +0.066 C 
ATOM     26  H   UNL     1       0.578  -2.713   3.348  0.00  0.00    -0.081 HD
BRANCH  23  27
ATOM     27  C   UNL     1       2.402  -2.812   4.256  0.00  0.00    -0.046 C 
ATOM     28  C   UNL     1       2.519  -4.338   4.098  0.00  0.00    +0.009 C 
ATOM     29  C   UNL     1       3.218  -4.945   5.338  0.00  0.00    +0.164 C 
ATOM     30  S   UNL     1       2.783  -3.755   6.671  0.00  0.00    -0.033 S 
ATOM     31  O   UNL     1       3.973  -3.154   7.161  0.00  0.00    -0.174 OA
ATOM     32  O   UNL     1       1.891  -4.386   7.580  0.00  0.00    -0.174 OA
ATOM     33  C   UNL     1       1.849  -2.514   5.679  0.00  0.00    +0.151 C 
ENDBRANCH  23  27
ENDBRANCH  19  20
ENDBRANCH   1  19
TORSDOF 5
