REMARK  Name = ZINC05594872
REMARK  2 active torsions:
REMARK  status: ('A' for Active; 'I' for Inactive)
REMARK    1  A    between atoms: C_5  and  C_6
REMARK    2  A    between atoms: N_7  and  N_8
REMARK                            x       y       z     vdW  Elec       q    Type
REMARK                         _______ _______ _______ _____ _____    ______ ____
ROOT
ATOM      1  N   UNL     1       2.209   4.032   0.003  0.00  0.00    -0.205 N 
ATOM      2  C   UNL     1       1.061   3.288   0.009  0.00  0.00    +0.235 A 
ATOM      3  N   UNL     1       1.137   1.926   0.002  0.00  0.00    -0.291 N 
ATOM      4  H   UNL     1       2.023   1.464  -0.009  0.00  0.00    +0.172 HD
ATOM      5  C   UNL     1      -0.015   1.215   0.009  0.00  0.00    +0.271 A 
ATOM      6  O   UNL     1       0.002  -0.004   0.002  0.00  0.00    -0.266 OA
ATOM      7  C   UNL     1      -1.235   1.924   0.018  0.00  0.00    +0.205 A 
ATOM      8  N   UNL     1      -1.219   3.237   0.030  0.00  0.00    -0.149 NA
ATOM      9  N   UNL     1      -0.114   3.893   0.023  0.00  0.00    -0.113 NA
ATOM     10  H   UNL     1       3.073   3.591  -0.007  0.00  0.00    +0.177 HD
ENDROOT
BRANCH   1  12
ATOM     11  C   UNL     1       3.229   6.139   0.004  0.00  0.00    +0.176 C 
ATOM     12  N   UNL     1       2.137   5.431   0.010  0.00  0.00    -0.184 NA
BRANCH  11  17
ATOM     13  C   UNL     1       4.215   8.460   0.013  0.00  0.00    +0.052 A 
ATOM     14  C   UNL     1       3.683   9.763   0.018  0.00  0.00    +0.057 A 
ATOM     15  C   UNL     1       2.339   9.643   0.030  0.00  0.00    +0.171 A 
ATOM     16  O   UNL     1       2.022   8.338   0.026  0.00  0.00    -0.447 OA
ATOM     17  C   UNL     1       3.153   7.603   0.012  0.00  0.00    +0.149 A 
ATOM     18 BR   UNL     1       1.105  11.075   0.048  0.00  0.00    -0.008 Br
ENDBRANCH  11  17
ENDBRANCH   1  12
TORSDOF 2
