REMARK  Name = ZINC00940772
REMARK  4 active torsions:
REMARK  status: ('A' for Active; 'I' for Inactive)
REMARK    1  A    between atoms: C_1  and  C_2
REMARK    2  A    between atoms: C_3  and  C_26
REMARK    3  A    between atoms: C_4  and  C_17
REMARK    4  A    between atoms: C_10  and  C_12
REMARK                            x       y       z     vdW  Elec       q    Type
REMARK                         _______ _______ _______ _____ _____    ______ ____
ROOT
ATOM      1  C   UNL     1       0.458   1.363   0.000  0.00  0.00    +0.064 C 
ATOM      2  C   UNL     1       0.266  -0.132   0.025  0.00  0.00    +0.026 C 
ATOM      3  C   UNL     1      -1.005  -0.637   0.006  0.00  0.00    +0.059 C 
ATOM      4  C   UNL     1      -1.151  -2.148   0.032  0.00  0.00    +0.164 C 
ATOM      5  N   UNL     1       0.098  -2.917   0.077  0.00  0.00    -0.209 N 
ATOM      6  C   UNL     1       1.296  -2.241   0.092  0.00  0.00    +0.215 C 
ATOM      7  N   UNL     1       1.331  -0.915   0.061  0.00  0.00    -0.330 N 
ATOM      8  N   UNL     1       2.275  -3.154   0.133  0.00  0.00    -0.197 NA
ATOM      9  C   UNL     1       1.766  -4.375   0.146  0.00  0.00    +0.153 C 
ATOM     10  N   UNL     1       0.395  -4.282   0.111  0.00  0.00    -0.244 N 
ATOM     11  H   UNL     1       2.203  -0.489   0.070  0.00  0.00    +0.168 HD
ATOM     12  H   UNL     1      -0.239  -5.017   0.111  0.00  0.00    +0.172 HD
ENDROOT
BRANCH   4  13
ATOM     13  C   UNL     1      -1.970  -2.520   1.242  0.00  0.00    -0.017 A 
ATOM     14  C   UNL     1      -1.436  -2.372   2.508  0.00  0.00    +0.009 A 
ATOM     15  C   UNL     1      -2.183  -2.710   3.621  0.00  0.00    +0.050 A 
ATOM     16  C   UNL     1      -3.470  -3.200   3.468  0.00  0.00    +0.166 A 
ATOM     17  C   UNL     1      -4.008  -3.350   2.193  0.00  0.00    +0.167 A 
ATOM     18  C   UNL     1      -3.255  -3.003   1.082  0.00  0.00    +0.055 A 
ATOM     19  O   UNL     1      -5.275  -3.844   2.309  0.00  0.00    -0.453 OA
ATOM     20  C   UNL     1      -5.358  -4.380   3.643  0.00  0.00    +0.466 C 
ATOM     21  O   UNL     1      -4.400  -3.601   4.384  0.00  0.00    -0.453 OA
ENDBRANCH   4  13
BRANCH   9  22
ATOM     22  C   UNL     1       2.534  -5.618   0.188  0.00  0.00    +0.053 A 
ATOM     23  C   UNL     1       3.912  -5.795   0.230  0.00  0.00    +0.019 A 
ATOM     24  C   UNL     1       4.344  -7.098   0.265  0.00  0.00    +0.008 A 
ATOM     25  C   UNL     1       3.427  -8.098   0.256  0.00  0.00    +0.046 A 
ATOM     26  S   UNL     1       1.949  -7.302   0.208  0.00  0.00    -0.094 S 
ENDBRANCH   9  22
BRANCH   3  27
ATOM     27  C   UNL     1      -2.128   0.207  -0.037  0.00  0.00    +0.241 C 
ATOM     28  O   UNL     1      -1.988   1.414   0.058  0.00  0.00    -0.271 OA
ATOM     29  N   UNL     1      -3.361  -0.318  -0.183  0.00  0.00    -0.325 N 
ATOM     30  H   UNL     1      -3.480  -1.281  -0.190  0.00  0.00    +0.145 HD
ATOM     31  H   UNL     1      -4.129   0.266  -0.282  0.00  0.00    +0.145 HD
ENDBRANCH   3  27
TORSDOF 3
