REMARK  Name = ZINC66481224
REMARK  6 active torsions:
REMARK  status: ('A' for Active; 'I' for Inactive)
REMARK    1  A    between atoms: C_1  and  C_2
REMARK    2  A    between atoms: C_5  and  C_7
REMARK    3  A    between atoms: N_9  and  C_10
REMARK    4  A    between atoms: C_10  and  C_11
REMARK    5  A    between atoms: C_11  and  C_12
REMARK    6  A    between atoms: C_19  and  C_21
REMARK                            x       y       z     vdW  Elec       q    Type
REMARK                         _______ _______ _______ _____ _____    ______ ____
ROOT
ATOM      1  C   UNL     1       4.058  -5.774   2.582  0.00  0.00    +0.218 C 
ATOM      2  O   UNL     1       4.063  -6.217   1.452  0.00  0.00    -0.276 OA
ATOM      3  N   UNL     1       4.729  -6.414   3.560  0.00  0.00    -0.290 N 
ATOM      4  C   UNL     1       4.793  -5.851   4.915  0.00  0.00    +0.108 C 
ATOM      5  C   UNL     1       6.262  -5.752   5.339  0.00  0.00    +0.019 C 
ATOM      6  C   UNL     1       6.923  -7.125   5.197  0.00  0.00    +0.004 C 
ATOM      7  C   UNL     1       6.871  -7.569   3.733  0.00  0.00    +0.032 C 
ATOM      8  C   UNL     1       5.404  -7.691   3.292  0.00  0.00    +0.162 C 
ENDROOT
BRANCH   8   9
ATOM      9  C   UNL     1       5.342  -7.997   1.818  0.00  0.00    +0.236 C 
ATOM     10  O   UNL     1       5.948  -7.304   1.029  0.00  0.00    -0.274 OA
ATOM     11  N   UNL     1       4.611  -9.040   1.377  0.00  0.00    -0.296 N 
ATOM     12  C   UNL     1       3.770  -9.819   2.299  0.00  0.00    +0.136 C 
ATOM     13  C   UNL     1       2.364  -9.926   1.697  0.00  0.00    +0.179 C 
ATOM     14  O   UNL     1       2.461 -10.416   0.358  0.00  0.00    -0.377 OA
ATOM     15  C   UNL     1       3.184  -9.558  -0.529  0.00  0.00    +0.179 C 
ATOM     16  C   UNL     1       4.627  -9.429  -0.042  0.00  0.00    +0.136 C 
ENDBRANCH   8   9
BRANCH   1  17
ATOM     17  C   UNL     1       3.300  -4.508   2.891  0.00  0.00    +0.114 C 
BRANCH  17  18
ATOM     18  C   UNL     1       2.633  -3.989   1.615  0.00  0.00    +0.113 C 
BRANCH  18  21
ATOM     19  C   UNL     1       1.226  -2.118   0.938  0.00  0.00    +0.216 C 
ATOM     20  O   UNL     1       1.232  -2.561  -0.191  0.00  0.00    -0.276 OA
ATOM     21  N   UNL     1       1.897  -2.758   1.916  0.00  0.00    -0.315 N 
ATOM     22  H   UNL     1       1.893  -2.404   2.819  0.00  0.00    +0.149 HD
BRANCH  19  26
ATOM     23  C   UNL     1      -0.329   1.356   0.093  0.00  0.00    +0.008 C 
ATOM     24  C   UNL     1      -0.272  -0.173   0.094  0.00  0.00    -0.002 C 
ATOM     25  C   UNL     1      -1.059  -0.909   1.180  0.00  0.00    +0.017 C 
ATOM     26  C   UNL     1       0.469  -0.852   1.247  0.00  0.00    +0.078 C 
ENDBRANCH  19  26
ENDBRANCH  18  21
ENDBRANCH  17  18
ENDBRANCH   1  17
TORSDOF 5
