REMARK  Name = ZINC42602891
REMARK  8 active torsions:
REMARK  status: ('A' for Active; 'I' for Inactive)
REMARK    1  A    between atoms: C_1  and  C_2
REMARK    2  A    between atoms: C_2  and  C_3
REMARK    3  A    between atoms: C_2  and  N_4
REMARK    4  A    between atoms: C_5  and  C_7
REMARK    5  A    between atoms: C_7  and  N_8
REMARK    6  A    between atoms: N_8  and  C_9
REMARK    7  A    between atoms: N_8  and  C_10
REMARK    8  A    between atoms: C_15  and  N_16
REMARK                            x       y       z     vdW  Elec       q    Type
REMARK                         _______ _______ _______ _____ _____    ______ ____
ROOT
ATOM      1  C   UNL     1      -3.290  -3.750  -2.444  0.00  0.00    +0.051 A 
ATOM      2  C   UNL     1      -2.204  -3.780  -3.306  0.00  0.00    +0.030 A 
ATOM      3  C   UNL     1      -2.403  -3.931  -4.665  0.00  0.00    -0.024 A 
ATOM      4  C   UNL     1      -3.691  -4.054  -5.172  0.00  0.00    +0.038 A 
ATOM      5  C   UNL     1      -4.781  -4.026  -4.313  0.00  0.00    +0.048 A 
ATOM      6  C   UNL     1      -4.584  -3.880  -2.949  0.00  0.00    +0.048 A 
ATOM      7  N   UNL     1      -3.886  -4.207  -6.550  0.00  0.00    -0.285 N 
ATOM      8  C   UNL     1      -2.874  -4.604  -7.343  0.00  0.00    +0.218 C 
ATOM      9  O   UNL     1      -3.056  -4.718  -8.537  0.00  0.00    -0.275 OA
ATOM     10  C   UNL     1      -1.519  -4.910  -6.765  0.00  0.00    +0.101 C 
ATOM     11  C   UNL     1      -1.223  -3.962  -5.602  0.00  0.00    +0.046 C 
ATOM     12  H   UNL     1      -4.757  -4.024  -6.936  0.00  0.00    +0.155 HD
ENDROOT
BRANCH   6  13
ATOM     13  N   UNL     1      -5.681  -3.856  -2.080  0.00  0.00    -0.356 N 
ATOM     14  H   UNL     1      -5.543  -3.750  -1.126  0.00  0.00    +0.142 HD
ATOM     15  H   UNL     1      -6.581  -3.946  -2.432  0.00  0.00    +0.142 HD
ENDBRANCH   6  13
BRANCH   1  16
ATOM     16  N   UNL     1      -3.087  -3.596  -1.065  0.00  0.00    -0.323 N 
ATOM     17  C   UNL     1      -2.906  -4.776  -0.215  0.00  0.00    +0.130 C 
BRANCH  16  18
ATOM     18  C   UNL     1      -3.057  -2.256  -0.474  0.00  0.00    +0.200 C 
BRANCH  18  20
ATOM     19  N   UNL     1      -1.372  -0.511   0.012  0.00  0.00    -0.312 N 
ATOM     20  C   UNL     1      -1.643  -1.734  -0.485  0.00  0.00    +0.231 C 
ATOM     21  O   UNL     1      -0.749  -2.415  -0.941  0.00  0.00    -0.274 OA
ATOM     22  H   UNL     1      -2.087   0.033   0.377  0.00  0.00    +0.149 HD
BRANCH  19  24
ATOM     23  C   UNL     1      -0.019   1.526   0.010  0.00  0.00    +0.027 C 
ATOM     24  C   UNL     1       0.002  -0.004   0.002  0.00  0.00    +0.067 C 
ATOM     25  C   UNL     1       0.742  -0.511   1.242  0.00  0.00    +0.027 C 
ENDBRANCH  19  24
ENDBRANCH  18  20
ENDBRANCH  16  18
ENDBRANCH   1  16
TORSDOF 5
