REMARK  Name = ZINC61484624
REMARK  10 active torsions:
REMARK  status: ('A' for Active; 'I' for Inactive)
REMARK    1  A    between atoms: C_1  and  C_2
REMARK    2  A    between atoms: C_2  and  C_3
REMARK    3  A    between atoms: C_2  and  C_4
REMARK    4  A    between atoms: C_2  and  C_5
REMARK    5  A    between atoms: C_9  and  N_22
REMARK    6  A    between atoms: C_11  and  C_14
REMARK    7  A    between atoms: C_14  and  N_15
REMARK    8  A    between atoms: N_15  and  C_16
REMARK    9  A    between atoms: N_15  and  C_17
REMARK   10  A    between atoms: C_17  and  C_18
REMARK                            x       y       z     vdW  Elec       q    Type
REMARK                         _______ _______ _______ _____ _____    ______ ____
ROOT
ATOM      1  C   UNL     1       0.718  -0.497  -1.257  0.00  0.00    -0.005 C 
ATOM      2  C   UNL     1      -0.022   0.009  -2.496  0.00  0.00    +0.002 C 
ATOM      3  C   UNL     1       0.694  -0.484  -3.755  0.00  0.00    -0.016 C 
ATOM      4  C   UNL     1       2.130   0.045  -3.766  0.00  0.00    -0.074 C 
ATOM      5  C   UNL     1       2.870  -0.461  -2.526  0.00  0.00    -0.042 C 
ATOM      6  C   UNL     1       2.154   0.032  -1.268  0.00  0.00    +0.004 C 
ENDROOT
BRANCH   1   8
ATOM      7  C   UNL     1      -0.019   1.526   0.010  0.00  0.00    +0.011 C 
ATOM      8  C   UNL     1       0.002  -0.004   0.002  0.00  0.00    -0.035 C 
ATOM      9  C   UNL     1       0.742  -0.511   1.242  0.00  0.00    +0.011 C 
ATOM     10  C   UNL     1      -1.433  -0.534   0.013  0.00  0.00    +0.011 C 
ENDBRANCH   1   8
BRANCH   4  11
ATOM     11  N   UNL     1       2.110   1.514  -3.758  0.00  0.00    +0.380 N 
ATOM     12  H   UNL     1       1.637   1.840  -2.928  0.00  0.00    -0.090 HD
ATOM     13  H   UNL     1       3.056   1.864  -3.765  0.00  0.00    -0.090 HD
ATOM     14  H   UNL     1       1.622   1.849  -4.575  0.00  0.00    -0.090 HD
ENDBRANCH   4  11
BRANCH   5  15
ATOM     15  C   UNL     1       2.890  -1.991  -2.535  0.00  0.00    -0.077 C 
BRANCH  15  16
ATOM     16  N   UNL     1       3.702  -2.476  -1.411  0.00  0.00    +0.378 N 
ATOM     17  C   UNL     1       5.100  -2.067  -1.604  0.00  0.00    -0.096 C 
ATOM     18  H   UNL     1       3.353  -2.083  -0.549  0.00  0.00    -0.082 HD
BRANCH  16  19
ATOM     19  C   UNL     1       3.625  -3.942  -1.347  0.00  0.00    -0.076 C 
BRANCH  19  20
ATOM     20  C   UNL     1       4.367  -4.438  -0.105  0.00  0.00    -0.028 C 
ATOM     21  C   UNL     1       5.869  -4.675  -0.338  0.00  0.00    +0.002 C 
ATOM     22  C   UNL     1       5.725  -5.934   0.533  0.00  0.00    +0.000 C 
ATOM     23  C   UNL     1       4.243  -5.954   0.122  0.00  0.00    +0.002 C 
ENDBRANCH  19  20
ENDBRANCH  16  19
ENDBRANCH  15  16
ENDBRANCH   5  15
TORSDOF 6
