REMARK  Name = ZINC49241420
REMARK  8 active torsions:
REMARK  status: ('A' for Active; 'I' for Inactive)
REMARK    1  A    between atoms: C_1  and  C_2
REMARK    2  A    between atoms: C_2  and  N_3
REMARK    3  A    between atoms: C_4  and  C_6
REMARK    4  A    between atoms: C_6  and  C_8
REMARK    5  A    between atoms: C_6  and  N_9
REMARK    6  A    between atoms: N_12  and  C_13
REMARK    7  A    between atoms: C_13  and  C_15
REMARK    8  A    between atoms: C_13  and  C_16
REMARK                            x       y       z     vdW  Elec       q    Type
REMARK                         _______ _______ _______ _____ _____    ______ ____
ROOT
ATOM      1  N   UNL     1       1.367  -3.612  -3.397  0.00  0.00    -0.288 N 
ATOM      2  C   UNL     1       2.411  -4.343  -3.836  0.00  0.00    +0.301 C 
ATOM      3  O   UNL     1       3.329  -3.801  -4.419  0.00  0.00    -0.253 OA
ATOM      4  N   UNL     1       2.436  -5.674  -3.627  0.00  0.00    -0.293 N 
ATOM      5  H   UNL     1       0.634  -4.044  -2.932  0.00  0.00    +0.151 HD
ATOM      6  H   UNL     1       1.703  -6.106  -3.162  0.00  0.00    +0.151 HD
ENDROOT
BRANCH   1   7
ATOM      7  C   UNL     1       1.339  -2.165  -3.624  0.00  0.00    +0.157 C 
ATOM      8  C   UNL     1       0.768  -1.877  -5.014  0.00  0.00    +0.038 C 
BRANCH   7  10
ATOM      9  N   UNL     1       0.299  -0.173  -2.590  0.00  0.00    -0.314 N 
ATOM     10  C   UNL     1       0.472  -1.510  -2.579  0.00  0.00    +0.233 C 
ATOM     11  O   UNL     1      -0.068  -2.185  -1.729  0.00  0.00    -0.274 OA
ATOM     12  H   UNL     1       0.732   0.367  -3.269  0.00  0.00    +0.149 HD
BRANCH   9  14
ATOM     13  C   UNL     1      -0.572   1.975  -1.811  0.00  0.00    +0.024 C 
ATOM     14  C   UNL     1      -0.543   0.464  -1.574  0.00  0.00    +0.101 C 
ENDBRANCH   9  14
ENDBRANCH   7  10
ENDBRANCH   1   7
BRANCH   4  15
ATOM     15  C   UNL     1       3.571  -6.469  -4.104  0.00  0.00    +0.103 C 
ATOM     16  C   UNL     1       4.670  -6.479  -3.039  0.00  0.00    +0.033 C 
BRANCH  15  17
ATOM     17  C   UNL     1       3.119  -7.881  -4.372  0.00  0.00    -0.014 A 
ATOM     18  C   UNL     1       2.043  -8.405  -3.680  0.00  0.00    +0.006 A 
ATOM     19  C   UNL     1       1.628  -9.700  -3.926  0.00  0.00    +0.000 A 
ATOM     20  C   UNL     1       2.287 -10.472  -4.864  0.00  0.00    +0.001 A 
ATOM     21  C   UNL     1       3.363  -9.949  -5.557  0.00  0.00    +0.015 A 
ATOM     22  C   UNL     1       3.776  -8.651  -5.315  0.00  0.00    +0.023 A 
ATOM     23 BR   UNL     1       5.242  -7.931  -6.267  0.00  0.00    -0.050 Br
ENDBRANCH  15  17
ENDBRANCH   4  15
TORSDOF 5
