REMARK  Name = ZINC62238606
REMARK  6 active torsions:
REMARK  status: ('A' for Active; 'I' for Inactive)
REMARK    1  A    between atoms: C_1  and  C_2
REMARK    2  A    between atoms: C_5  and  C_9
REMARK    3  A    between atoms: C_7  and  C_8
REMARK    4  A    between atoms: C_10  and  C_21
REMARK    5  A    between atoms: N_13  and  C_14
REMARK    6  A    between atoms: C_21  and  N_22
REMARK                            x       y       z     vdW  Elec       q    Type
REMARK                         _______ _______ _______ _____ _____    ______ ____
ROOT
ATOM      1  C   UNL     1       0.040  -4.229  -0.006  0.00  0.00    +0.096 A 
ATOM      2  C   UNL     1      -0.762  -5.071  -0.725  0.00  0.00    +0.074 A 
ATOM      3  N   UNL     1      -0.357  -6.311  -0.440  0.00  0.00    -0.135 NA
ATOM      4  N   UNL     1       0.621  -6.259   0.392  0.00  0.00    -0.060 NA
ATOM      5  N   UNL     1       0.904  -5.038   0.682  0.00  0.00    -0.212 N 
ENDROOT
BRANCH   1  10
ATOM      6  C   UNL     1      -0.159   1.523   0.092  0.00  0.00    +0.044 C 
ATOM      7  C   UNL     1      -0.107   0.017   0.066  0.00  0.00    -0.047 A 
ATOM      8  C   UNL     1      -0.192  -0.696   1.249  0.00  0.00    +0.004 A 
ATOM      9  C   UNL     1      -0.145  -2.074   1.233  0.00  0.00    +0.010 A 
ATOM     10  C   UNL     1      -0.012  -2.750   0.019  0.00  0.00    +0.002 A 
ATOM     11  C   UNL     1       0.072  -2.026  -1.170  0.00  0.00    +0.013 A 
ATOM     12  C   UNL     1       0.019  -0.648  -1.141  0.00  0.00    -0.047 A 
ATOM     13  C   UNL     1       0.105   0.136  -2.425  0.00  0.00    +0.044 C 
ENDBRANCH   1  10
BRANCH   5  14
ATOM     14  C   UNL     1       1.917  -4.611   1.552  0.00  0.00    +0.068 A 
ATOM     15  C   UNL     1       2.607  -3.434   1.290  0.00  0.00    +0.030 A 
ATOM     16  C   UNL     1       3.605  -3.015   2.148  0.00  0.00    +0.040 A 
ATOM     17  C   UNL     1       3.918  -3.767   3.268  0.00  0.00    +0.124 A 
ATOM     18  C   UNL     1       3.231  -4.941   3.530  0.00  0.00    +0.040 A 
ATOM     19  C   UNL     1       2.228  -5.360   2.678  0.00  0.00    +0.030 A 
ATOM     20  F   UNL     1       4.895  -3.356   4.106  0.00  0.00    -0.205 F 
ENDBRANCH   5  14
BRANCH   2  21
ATOM     21  C   UNL     1      -1.881  -4.678  -1.654  0.00  0.00    -0.026 C 
BRANCH  21  22
ATOM     22  N   UNL     1      -1.381  -4.644  -3.035  0.00  0.00    +0.382 N 
ATOM     23  H   UNL     1      -2.104  -4.292  -3.646  0.00  0.00    -0.090 HD
ATOM     24  H   UNL     1      -0.575  -4.039  -3.086  0.00  0.00    -0.090 HD
ATOM     25  H   UNL     1      -1.122  -5.575  -3.322  0.00  0.00    -0.090 HD
ENDBRANCH  21  22
ENDBRANCH   2  21
TORSDOF 4
