REMARK  Name = ZINC49609564
REMARK  9 active torsions:
REMARK  status: ('A' for Active; 'I' for Inactive)
REMARK    1  A    between atoms: C_1  and  C_2
REMARK    2  A    between atoms: C_2  and  N_3
REMARK    3  A    between atoms: N_3  and  C_4
REMARK    4  A    between atoms: N_3  and  C_16
REMARK    5  A    between atoms: C_4  and  C_5
REMARK    6  A    between atoms: C_10  and  C_11
REMARK    7  A    between atoms: C_12  and  C_13
REMARK    8  A    between atoms: C_13  and  N_14
REMARK    9  A    between atoms: C_16  and  C_17
REMARK                            x       y       z     vdW  Elec       q    Type
REMARK                         _______ _______ _______ _____ _____    ______ ____
ROOT
ATOM      1  C   UNL     1      -0.957  -2.417  -1.467  0.00  0.00    -0.048 A 
ATOM      2  C   UNL     1      -1.594  -2.917  -0.349  0.00  0.00    +0.006 A 
ATOM      3  C   UNL     1      -2.928  -3.276  -0.412  0.00  0.00    +0.038 A 
ATOM      4  C   UNL     1      -3.633  -3.138  -1.597  0.00  0.00    +0.125 A 
ATOM      5  C   UNL     1      -3.006  -2.639  -2.723  0.00  0.00    +0.055 A 
ATOM      6  C   UNL     1      -1.662  -2.270  -2.662  0.00  0.00    +0.029 A 
ATOM      7  F   UNL     1      -4.936  -3.491  -1.652  0.00  0.00    -0.205 F 
ENDROOT
BRANCH   6   8
ATOM      8  C   UNL     1      -1.006  -1.746  -3.823  0.00  0.00    -0.068 C 
ATOM      9  C   UNL     1      -0.469  -1.317  -4.774  0.00  0.00    -0.117 C 
BRANCH   9  10
ATOM     10  C   UNL     1       0.204  -0.779  -5.968  0.00  0.00    +0.005 C 
BRANCH  10  11
ATOM     11  N   UNL     1      -0.749  -0.724  -7.085  0.00  0.00    +0.385 N 
ATOM     12  H   UNL     1      -1.090  -1.653  -7.281  0.00  0.00    -0.089 HD
ATOM     13  H   UNL     1      -1.523  -0.126  -6.837  0.00  0.00    -0.089 HD
ATOM     14  H   UNL     1      -0.287  -0.356  -7.902  0.00  0.00    -0.089 HD
ENDBRANCH  10  11
ENDBRANCH   9  10
ENDBRANCH   6   8
BRANCH   1  15
ATOM     15  C   UNL     1       0.497  -2.027  -1.395  0.00  0.00    -0.042 C 
BRANCH  15  16
ATOM     16  N   UNL     1       0.605  -0.570  -1.235  0.00  0.00    +0.384 N 
ATOM     17  H   UNL     1       0.102  -0.112  -1.980  0.00  0.00    -0.081 HD
BRANCH  16  19
ATOM     18  C   UNL     1       0.018   1.350   0.166  0.00  0.00    -0.017 C 
ATOM     19  C   UNL     1       0.032  -0.176   0.059  0.00  0.00    -0.082 C 
ENDBRANCH  16  19
BRANCH  16  20
ATOM     20  C   UNL     1       2.019  -0.176  -1.285  0.00  0.00    -0.046 C 
BRANCH  20  21
ATOM     21  C   UNL     1       2.573  -0.440  -2.687  0.00  0.00    +0.102 C 
ATOM     22  C   UNL     1       4.083  -0.119  -2.722  0.00  0.00    +0.032 C 
ATOM     23  C   UNL     1       4.245   0.549  -4.114  0.00  0.00    +0.030 C 
ATOM     24  C   UNL     1       2.891   1.290  -4.245  0.00  0.00    +0.160 C 
ATOM     25  O   UNL     1       1.925   0.417  -3.634  0.00  0.00    -0.378 OA
ENDBRANCH  20  21
ENDBRANCH  16  20
ENDBRANCH  15  16
ENDBRANCH   1  15
TORSDOF 8
