REMARK  Name = ZINC56946380
REMARK  9 active torsions:
REMARK  status: ('A' for Active; 'I' for Inactive)
REMARK    1  A    between atoms: C_1  and  C_2
REMARK    2  A    between atoms: C_5  and  C_31
REMARK    3  A    between atoms: N_8  and  C_10
REMARK    4  A    between atoms: C_10  and  C_11
REMARK    5  A    between atoms: C_11  and  C_13
REMARK    6  A    between atoms: C_11  and  N_14
REMARK    7  A    between atoms: N_17  and  N_18
REMARK    8  A    between atoms: C_19  and  C_21
REMARK    9  A    between atoms: N_23  and  C_30
REMARK                            x       y       z     vdW  Elec       q    Type
REMARK                         _______ _______ _______ _____ _____    ______ ____
ROOT
ATOM      1  N   UNL     1       3.510  -2.495   0.951  0.00  0.00    -0.297 N 
ATOM      2  C   UNL     1       4.540  -1.852   0.365  0.00  0.00    +0.316 C 
ATOM      3  O   UNL     1       5.040  -0.884   0.906  0.00  0.00    -0.251 OA
ATOM      4  N   UNL     1       5.016  -2.281  -0.821  0.00  0.00    -0.218 N 
ATOM      5  H   UNL     1       3.112  -3.266   0.519  0.00  0.00    +0.150 HD
ATOM      6  H   UNL     1       5.757  -1.818  -1.242  0.00  0.00    +0.174 HD
ENDROOT
BRANCH   4   7
ATOM      7  N   UNL     1       4.440  -3.396  -1.444  0.00  0.00    -0.229 N 
ATOM      8  C   UNL     1       4.916  -3.825  -2.630  0.00  0.00    +0.262 C 
ATOM      9  O   UNL     1       5.845  -3.245  -3.159  0.00  0.00    -0.269 OA
ATOM     10  H   UNL     1       3.699  -3.858  -1.023  0.00  0.00    +0.173 HD
BRANCH   8  11
ATOM     11  C   UNL     1       4.312  -4.994  -3.284  0.00  0.00    +0.063 A 
ATOM     12  C   UNL     1       3.269  -5.740  -2.821  0.00  0.00    +0.099 A 
ATOM     13  N   UNL     1       2.993  -6.736  -3.697  0.00  0.00    -0.349 N 
ATOM     14  C   UNL     1       3.852  -6.680  -4.776  0.00  0.00    +0.050 A 
ATOM     15  C   UNL     1       4.712  -5.588  -4.573  0.00  0.00    +0.012 A 
ATOM     16  C   UNL     1       5.690  -5.285  -5.516  0.00  0.00    +0.011 A 
ATOM     17  C   UNL     1       5.808  -6.060  -6.650  0.00  0.00    +0.001 A 
ATOM     18  C   UNL     1       4.957  -7.137  -6.853  0.00  0.00    +0.002 A 
ATOM     19  C   UNL     1       3.990  -7.453  -5.924  0.00  0.00    +0.026 A 
ATOM     20  C   UNL     1       1.933  -7.732  -3.524  0.00  0.00    +0.149 C 
ENDBRANCH   8  11
ENDBRANCH   4   7
BRANCH   1  21
ATOM     21  C   UNL     1       2.993  -2.028   2.239  0.00  0.00    +0.055 C 
ATOM     22  C   UNL     1       3.825  -2.634   3.372  0.00  0.00    +0.026 C 
BRANCH  21  23
ATOM     23  C   UNL     1       1.534  -2.461   2.390  0.00  0.00    -0.057 C 
BRANCH  23  29
ATOM     24  C   UNL     1      -0.019   1.526   0.010  0.00  0.00    +0.005 C 
ATOM     25  C   UNL     1       0.002  -0.004   0.002  0.00  0.00    -0.031 C 
ATOM     26  C   UNL     1      -1.434  -0.535   0.015  0.00  0.00    +0.003 C 
ATOM     27  C   UNL     1      -1.402  -2.064   0.086  0.00  0.00    -0.031 C 
ATOM     28  C   UNL     1      -0.613  -2.496   1.324  0.00  0.00    -0.076 C 
ATOM     29  N   UNL     1       0.758  -1.980   1.239  0.00  0.00    +0.381 N 
ATOM     30  C   UNL     1       0.740  -0.512   1.242  0.00  0.00    -0.076 C 
ATOM     31  C   UNL     1      -0.728  -2.620  -1.170  0.00  0.00    +0.005 C 
ATOM     32  H   UNL     1       1.188  -2.307   0.386  0.00  0.00    -0.082 HD
ENDBRANCH  23  29
ENDBRANCH  21  23
ENDBRANCH   1  21
TORSDOF 5
