REMARK  Name = ZINC32075692
REMARK  9 active torsions:
REMARK  status: ('A' for Active; 'I' for Inactive)
REMARK    1  A    between atoms: C_1  and  C_2
REMARK    2  A    between atoms: N_5  and  C_8
REMARK    3  A    between atoms: C_8  and  C_10
REMARK    4  A    between atoms: C_8  and  C_12
REMARK    5  A    between atoms: C_10  and  N_11
REMARK    6  A    between atoms: C_14  and  N_21
REMARK    7  A    between atoms: C_15  and  O_20
REMARK    8  A    between atoms: C_16  and  O_18
REMARK    9  A    between atoms: O_18  and  C_19
REMARK                            x       y       z     vdW  Elec       q    Type
REMARK                         _______ _______ _______ _____ _____    ______ ____
ROOT
ATOM      1  C   UNL     1       1.671  -3.915  -0.062  0.00  0.00    +0.070 C 
ENDROOT
BRANCH   1   6
ATOM      2  C   UNL     1       0.473   1.665   0.244  0.00  0.00    +0.007 C 
ATOM      3  C   UNL     1       0.343   0.143   0.158  0.00  0.00    -0.012 C 
ATOM      4  C   UNL     1       1.029  -0.358  -1.116  0.00  0.00    +0.018 C 
ATOM      5  C   UNL     1       0.949  -1.885  -1.166  0.00  0.00    +0.085 C 
ATOM      6  N   UNL     1       1.606  -2.450   0.019  0.00  0.00    -0.297 NA
ATOM      7  C   UNL     1       0.936  -2.021   1.253  0.00  0.00    +0.085 C 
ATOM      8  C   UNL     1       1.015  -0.497   1.375  0.00  0.00    +0.018 C 
ENDBRANCH   1   6
BRANCH   1   9
ATOM      9  C   UNL     1       2.379  -4.455   1.153  0.00  0.00    -0.026 A 
ATOM     10  C   UNL     1       3.483  -3.794   1.659  0.00  0.00    +0.041 A 
ATOM     11  C   UNL     1       4.136  -4.286   2.774  0.00  0.00    +0.171 A 
ATOM     12  C   UNL     1       3.684  -5.443   3.388  0.00  0.00    +0.189 A 
ATOM     13  C   UNL     1       2.573  -6.108   2.879  0.00  0.00    +0.164 A 
ATOM     14  C   UNL     1       1.920  -5.607   1.764  0.00  0.00    +0.054 A 
BRANCH  11  15
ATOM     15  N   UNL     1       5.318  -3.576   3.312  0.00  0.00    +0.060 N 
ATOM     16  O   UNL     1       5.713  -2.566   2.776  0.00  0.00    -0.126 OA
ATOM     17  O   UNL     1       5.889  -4.006   4.287  0.00  0.00    -0.126 OA
ENDBRANCH  11  15
BRANCH  13  18
ATOM     18  O   UNL     1       2.126  -7.244   3.478  0.00  0.00    -0.491 OA
ATOM     19  C   UNL     1       0.980  -7.874   2.901  0.00  0.00    +0.277 C 
ENDBRANCH  13  18
BRANCH  12  20
ATOM     20  O   UNL     1       4.326  -5.928   4.484  0.00  0.00    -0.502 OA
ATOM     21  H   UNL     1       3.985  -5.587   5.322  0.00  0.00    +0.292 HD
ENDBRANCH  12  20
ENDBRANCH   1   9
BRANCH   1  22
ATOM     22  C   UNL     1       2.437  -4.322  -1.322  0.00  0.00    -0.063 C 
BRANCH  22  23
ATOM     23  N   UNL     1       2.434  -5.786  -1.446  0.00  0.00    +0.379 N 
ATOM     24  H   UNL     1       1.485  -6.112  -1.552  0.00  0.00    -0.090 HD
ATOM     25  H   UNL     1       2.975  -6.057  -2.253  0.00  0.00    -0.090 HD
ATOM     26  H   UNL     1       2.839  -6.195  -0.617  0.00  0.00    -0.090 HD
ENDBRANCH  22  23
ENDBRANCH   1  22
TORSDOF 7
