REMARK  Name = ZINC25767180
REMARK  11 active torsions:
REMARK  status: ('A' for Active; 'I' for Inactive)
REMARK    1  A    between atoms: C_1  and  C_2
REMARK    2  A    between atoms: C_2  and  C_27
REMARK    3  A    between atoms: C_4  and  N_10
REMARK    4  A    between atoms: C_6  and  C_8
REMARK    5  A    between atoms: C_6  and  C_9
REMARK    6  A    between atoms: C_11  and  C_13
REMARK    7  A    between atoms: C_13  and  N_14
REMARK    8  A    between atoms: N_14  and  C_15
REMARK    9  A    between atoms: N_14  and  S_16
REMARK   10  A    between atoms: S_16  and  C_19
REMARK   11  A    between atoms: C_22  and  C_25
REMARK                            x       y       z     vdW  Elec       q    Type
REMARK                         _______ _______ _______ _____ _____    ______ ____
ROOT
ATOM      1  N   UNL     1       0.389   5.051  -1.207  0.00  0.00    -0.311 N 
ATOM      2  C   UNL     1       0.113   5.703  -2.353  0.00  0.00    +0.229 C 
ATOM      3  O   UNL     1      -0.129   5.078  -3.364  0.00  0.00    -0.274 OA
ATOM      4  H   UNL     1       0.608   5.617  -0.290  0.00  0.00    +0.149 HD
ENDROOT
BRANCH   1   8
ATOM      5  C   UNL     1      -0.944   0.975  -2.269  0.00  0.00    -0.010 C 
ATOM      6  C   UNL     1      -1.042   1.551  -0.852  0.00  0.00    -0.072 C 
ATOM      7  C   UNL     1      -1.022   3.076  -0.918  0.00  0.00    +0.009 C 
ATOM      8  C   UNL     1       0.396   3.583  -1.181  0.00  0.00    +0.070 C 
ATOM      9  C   UNL     1       1.298   3.104  -0.042  0.00  0.00    +0.009 C 
ATOM     10  C   UNL     1       1.320   1.577  -0.002  0.00  0.00    -0.072 C 
ATOM     11  N   UNL     1      -0.012   1.005   0.008  0.00  0.00    +0.386 N 
ATOM     12  C   UNL     1       2.035   1.156   1.301  0.00  0.00    -0.010 C 
ATOM     13  C   UNL     1       2.151   1.041  -1.172  0.00  0.00    -0.010 C 
ATOM     14  C   UNL     1      -2.415   1.129  -0.282  0.00  0.00    -0.010 C 
ATOM     15  H   UNL     1      -0.328   1.088   1.058  0.00  0.00    -0.084 HD
ATOM     16  H   UNL     1       0.152  -0.053  -0.244  0.00  0.00    -0.084 HD
ENDBRANCH   1   8
BRANCH   2  17
ATOM     17  C   UNL     1       0.105   7.210  -2.379  0.00  0.00    +0.204 C 
BRANCH  17  18
ATOM     18  N   UNL     1      -0.220   7.674  -3.730  0.00  0.00    -0.171 NA
ATOM     19  C   UNL     1      -1.619   7.799  -4.145  0.00  0.00    +0.132 C 
BRANCH  18  20
ATOM     20  S   UNL     1       0.995   8.056  -4.789  0.00  0.00    +0.061 S 
ATOM     21  O   UNL     1       0.440   8.959  -5.735  0.00  0.00    -0.153 OA
ATOM     22  O   UNL     1       2.133   8.380  -4.002  0.00  0.00    -0.153 OA
BRANCH  20  23
ATOM     23  C   UNL     1       1.398   6.585  -5.673  0.00  0.00    +0.106 A 
ATOM     24  C   UNL     1       2.374   5.735  -5.186  0.00  0.00    +0.030 A 
ATOM     25  C   UNL     1       2.691   4.579  -5.870  0.00  0.00    +0.021 A 
ATOM     26  C   UNL     1       2.031   4.274  -7.062  0.00  0.00    +0.052 A 
ATOM     27  C   UNL     1       1.050   5.140  -7.550  0.00  0.00    +0.021 A 
ATOM     28  C   UNL     1       0.740   6.289  -6.853  0.00  0.00    +0.030 A 
BRANCH  26  29
ATOM     29  C   UNL     1       2.358   3.079  -7.780  0.00  0.00    +0.099 C 
ATOM     30  N   UNL     1       2.617   2.131  -8.349  0.00  0.00    -0.191 NA
ENDBRANCH  26  29
ENDBRANCH  20  23
ENDBRANCH  18  20
ENDBRANCH  17  18
ENDBRANCH   2  17
TORSDOF 6
