REMARK  Name = ZINC58305899
REMARK  5 active torsions:
REMARK  status: ('A' for Active; 'I' for Inactive)
REMARK    1  A    between atoms: C_8  and  C_11
REMARK    2  A    between atoms: C_11  and  N_12
REMARK    3  A    between atoms: N_12  and  C_13
REMARK    4  A    between atoms: C_13  and  C_14
REMARK    5  A    between atoms: C_14  and  N_19
REMARK                            x       y       z     vdW  Elec       q    Type
REMARK                         _______ _______ _______ _____ _____    ______ ____
ROOT
ATOM      1  N   UNL     1      -0.217  -5.103   0.400  0.00  0.00    +0.381 N 
ATOM      2  H   UNL     1      -0.297  -4.720   1.330  0.00  0.00    -0.086 HD
ATOM      3  H   UNL     1      -1.105  -5.024  -0.073  0.00  0.00    -0.086 HD
ENDROOT
BRANCH   1   4
ATOM      4  C   UNL     1       0.806  -4.362  -0.349  0.00  0.00    -0.076 C 
BRANCH   4  12
ATOM      5  C   UNL     1      -0.342   0.908  -1.768  0.00  0.00    +0.064 A 
ATOM      6  C   UNL     1       0.966   1.398  -1.873  0.00  0.00    +0.136 A 
ATOM      7  N   UNL     1       1.798   0.409  -1.654  0.00  0.00    -0.178 NA
ATOM      8  N   UNL     1       1.052  -0.743  -1.402  0.00  0.00    -0.251 N 
ATOM      9  C   UNL     1      -0.263  -0.410  -1.479  0.00  0.00    +0.117 A 
ATOM     10  N   UNL     1      -1.286  -1.340  -1.282  0.00  0.00    -0.329 N 
ATOM     11  C   UNL     1      -0.879  -2.759  -1.266  0.00  0.00    +0.106 C 
ATOM     12  C   UNL     1       0.404  -2.888  -0.438  0.00  0.00    +0.010 C 
ATOM     13  C   UNL     1       1.535  -2.093  -1.102  0.00  0.00    +0.148 C 
ATOM     14  H   UNL     1      -2.210  -1.069  -1.161  0.00  0.00    +0.147 HD
ENDBRANCH   4  12
ENDBRANCH   1   4
BRANCH   1  15
ATOM     15  C   UNL     1       0.168  -6.518   0.486  0.00  0.00    -0.059 C 
BRANCH  15  16
ATOM     16  C   UNL     1      -0.883  -7.285   1.291  0.00  0.00    +0.017 C 
ATOM     17  C   UNL     1      -0.592  -8.781   1.176  0.00  0.00    +0.032 C 
ATOM     18  C   UNL     1       0.356  -9.236   2.320  0.00  0.00    +0.071 C 
ATOM     19  S   UNL     1      -0.341  -8.241   3.711  0.00  0.00    -0.159 S 
ATOM     20  C   UNL     1      -0.868  -6.767   2.742  0.00  0.00    +0.089 C 
BRANCH  16  21
ATOM     21  N   UNL     1      -2.205  -7.020   0.709  0.00  0.00    -0.293 NA
ATOM     22  C   UNL     1      -3.265  -7.679   1.486  0.00  0.00    +0.113 C 
ATOM     23  C   UNL     1      -4.627  -7.329   0.882  0.00  0.00    +0.175 C 
ATOM     24  O   UNL     1      -4.646  -7.714  -0.495  0.00  0.00    -0.377 OA
ATOM     25  C   UNL     1      -3.627  -7.090  -1.281  0.00  0.00    +0.175 C 
ATOM     26  C   UNL     1      -2.255  -7.438  -0.699  0.00  0.00    +0.113 C 
ENDBRANCH  16  21
ENDBRANCH  15  16
ENDBRANCH   1  15
TORSDOF 5
