REMARK  Name = ZINC66196921
REMARK  11 active torsions:
REMARK  status: ('A' for Active; 'I' for Inactive)
REMARK    1  A    between atoms: C_1  and  C_2
REMARK    2  A    between atoms: C_2  and  C_3
REMARK    3  A    between atoms: C_3  and  C_5
REMARK    4  A    between atoms: C_3  and  N_6
REMARK    5  A    between atoms: N_6  and  C_7
REMARK    6  A    between atoms: N_6  and  C_8
REMARK    7  A    between atoms: C_8  and  C_9
REMARK    8  A    between atoms: C_9  and  N_10
REMARK    9  A    between atoms: N_13  and  N_14
REMARK   10  A    between atoms: N_14  and  C_15
REMARK   11  A    between atoms: C_20  and  C_21
REMARK                            x       y       z     vdW  Elec       q    Type
REMARK                         _______ _______ _______ _____ _____    ______ ____
ROOT
ATOM      1  N   UNL     1       4.190   2.995   1.250  0.00  0.00    -0.300 N 
ATOM      2  C   UNL     1       5.433   3.508   1.159  0.00  0.00    +0.316 C 
ATOM      3  O   UNL     1       6.383   2.771   0.982  0.00  0.00    -0.251 OA
ATOM      4  N   UNL     1       5.621   4.839   1.263  0.00  0.00    -0.220 N 
ATOM      5  H   UNL     1       3.431   3.583   1.391  0.00  0.00    +0.150 HD
ATOM      6  H   UNL     1       6.516   5.208   1.198  0.00  0.00    +0.174 HD
ENDROOT
BRANCH   4   7
ATOM      7  N   UNL     1       4.526   5.688   1.467  0.00  0.00    -0.263 N 
ATOM      8  H   UNL     1       3.631   5.318   1.532  0.00  0.00    +0.170 HD
BRANCH   7   9
ATOM      9  C   UNL     1       4.721   7.066   1.575  0.00  0.00    +0.056 A 
ATOM     10  C   UNL     1       6.001   7.598   1.476  0.00  0.00    +0.025 A 
ATOM     11  C   UNL     1       6.191   8.961   1.583  0.00  0.00    +0.002 A 
ATOM     12  C   UNL     1       5.109   9.798   1.790  0.00  0.00    +0.001 A 
ATOM     13  C   UNL     1       3.834   9.272   1.889  0.00  0.00    +0.014 A 
ATOM     14  C   UNL     1       3.636   7.910   1.776  0.00  0.00    +0.077 A 
BRANCH  14  15
ATOM     15  C   UNL     1       2.246   7.338   1.879  0.00  0.00    +0.419 C 
ATOM     16  F   UNL     1       1.329   8.376   2.080  0.00  0.00    -0.166 F 
ATOM     17  F   UNL     1       1.932   6.661   0.695  0.00  0.00    -0.166 F 
ATOM     18  F   UNL     1       2.186   6.447   2.956  0.00  0.00    -0.166 F 
ENDBRANCH  14  15
ENDBRANCH   7   9
ENDBRANCH   4   7
BRANCH   1  19
ATOM     19  C   UNL     1       3.985   1.549   1.136  0.00  0.00    +0.087 C 
BRANCH  19  20
ATOM     20  C   UNL     1       2.494   1.233   1.274  0.00  0.00    -0.060 C 
BRANCH  20  21
ATOM     21  N   UNL     1       2.288  -0.217   1.160  0.00  0.00    +0.381 N 
ATOM     22  C   UNL     1       2.948  -0.895   2.284  0.00  0.00    -0.096 C 
ATOM     23  H   UNL     1       2.682  -0.546   0.291  0.00  0.00    -0.082 HD
BRANCH  21  24
ATOM     24  C   UNL     1       0.849  -0.511   1.188  0.00  0.00    -0.072 C 
ATOM     25  C   UNL     1       0.279  -0.142   2.559  0.00  0.00    -0.013 C 
BRANCH  24  27
ATOM     26  C   UNL     1       1.126  -2.356  -0.474  0.00  0.00    +0.002 C 
ATOM     27  C   UNL     1       0.628  -2.003   0.928  0.00  0.00    -0.019 C 
ENDBRANCH  24  27
ENDBRANCH  21  24
ENDBRANCH  20  21
ENDBRANCH  19  20
ENDBRANCH   1  19
TORSDOF 8
