REMARK  Name = ZINC01175981
REMARK  3 active torsions:
REMARK  status: ('A' for Active; 'I' for Inactive)
REMARK    1  A    between atoms: C_3  and  N_8
REMARK    2  A    between atoms: C_12  and  C_13
REMARK    3  A    between atoms: C_16  and  O_20
REMARK                            x       y       z     vdW  Elec       q    Type
REMARK                         _______ _______ _______ _____ _____    ______ ____
ROOT
ATOM      1  N   UNL     1       2.402   1.171  -0.588  0.00  0.00    -0.190 N 
ATOM      2  C   UNL     1       3.546   1.802  -0.253  0.00  0.00    +0.263 C 
ATOM      3  O   UNL     1       3.523   2.892   0.287  0.00  0.00    -0.269 OA
ATOM      4  C   UNL     1       4.826   1.135  -0.560  0.00  0.00    +0.100 C 
ATOM      5  C   UNL     1       6.038   1.720  -0.246  0.00  0.00    +0.026 C 
ATOM      6  C   UNL     1       4.755  -0.185  -1.216  0.00  0.00    +0.257 C 
ATOM      7  O   UNL     1       5.766  -0.798  -1.501  0.00  0.00    -0.270 OA
ATOM      8  N   UNL     1       3.536  -0.694  -1.492  0.00  0.00    -0.235 N 
ATOM      9  C   UNL     1       2.413  -0.032  -1.179  0.00  0.00    +0.320 C 
ATOM     10  O   UNL     1       1.347  -0.549  -1.451  0.00  0.00    -0.251 OA
ATOM     11  H   UNL     1       3.471  -1.561  -1.923  0.00  0.00    +0.159 HD
ENDROOT
BRANCH   1  14
ATOM     12  C   UNL     1      -0.436   2.575   1.285  0.00  0.00    +0.003 A 
ATOM     13  C   UNL     1       0.776   1.971   1.010  0.00  0.00    +0.024 A 
ATOM     14  C   UNL     1       1.174   1.784  -0.307  0.00  0.00    +0.047 A 
ATOM     15  C   UNL     1       0.352   2.204  -1.344  0.00  0.00    +0.044 A 
ATOM     16  C   UNL     1      -0.856   2.813  -1.063  0.00  0.00    +0.043 A 
ATOM     17  C   UNL     1      -1.252   2.994   0.251  0.00  0.00    +0.020 A 
ATOM     18 CL   UNL     1      -1.881   3.346  -2.359  0.00  0.00    -0.083 Cl
ENDBRANCH   1  14
BRANCH   5  19
ATOM     19  C   UNL     1       7.275   0.949  -0.366  0.00  0.00    -0.023 A 
ATOM     20  C   UNL     1       7.343  -0.358   0.141  0.00  0.00    +0.011 A 
ATOM     21  C   UNL     1       8.497  -1.077   0.023  0.00  0.00    +0.047 A 
ATOM     22  C   UNL     1       9.614  -0.515  -0.588  0.00  0.00    +0.131 A 
ATOM     23  C   UNL     1       9.561   0.782  -1.090  0.00  0.00    +0.060 A 
ATOM     24  C   UNL     1       8.402   1.515  -0.983  0.00  0.00    +0.027 A 
ATOM     25 BR   UNL     1      11.084   1.537  -1.920  0.00  0.00    -0.047 Br
BRANCH  22  26
ATOM     26  O   UNL     1      10.758  -1.235  -0.695  0.00  0.00    -0.506 OA
ATOM     27  H   UNL     1      11.360  -1.131   0.055  0.00  0.00    +0.292 HD
ENDBRANCH  22  26
ENDBRANCH   5  19
TORSDOF 3
