REMARK  Name = ZINC03019179
REMARK  5 active torsions:
REMARK  status: ('A' for Active; 'I' for Inactive)
REMARK    1  A    between atoms: N_9  and  N_19
REMARK    2  A    between atoms: C_10  and  C_12
REMARK    3  A    between atoms: C_20  and  C_21
REMARK    4  A    between atoms: C_24  and  O_28
REMARK    5  A    between atoms: C_25  and  O_27
REMARK                            x       y       z     vdW  Elec       q    Type
REMARK                         _______ _______ _______ _____ _____    ______ ____
ROOT
ATOM      1  C   UNL     1      -7.257   4.736   0.152  0.00  0.00    +0.001 A 
ATOM      2  C   UNL     1      -7.073   6.110   0.239  0.00  0.00    +0.002 A 
ATOM      3  C   UNL     1      -5.821   6.655   0.205  0.00  0.00    +0.028 A 
ATOM      4  C   UNL     1      -4.704   5.824   0.082  0.00  0.00    +0.079 A 
ATOM      5  C   UNL     1      -4.889   4.424  -0.007  0.00  0.00    +0.067 A 
ATOM      6  C   UNL     1      -6.176   3.890   0.030  0.00  0.00    +0.015 A 
ATOM      7  C   UNL     1      -3.700   3.572  -0.136  0.00  0.00    +0.282 A 
ATOM      8  O   UNL     1      -3.796   2.361  -0.217  0.00  0.00    -0.265 OA
ATOM      9  N   UNL     1      -2.493   4.184  -0.162  0.00  0.00    -0.177 N 
ATOM     10  C   UNL     1      -2.405   5.547  -0.065  0.00  0.00    +0.166 A 
ATOM     11  N   UNL     1      -3.453   6.324   0.045  0.00  0.00    -0.227 NA
ENDROOT
BRANCH  10  12
ATOM     12  C   UNL     1      -1.066   6.171  -0.091  0.00  0.00    +0.019 A 
ATOM     13  C   UNL     1       0.030   5.502   0.460  0.00  0.00    +0.012 A 
ATOM     14  C   UNL     1       1.278   6.087   0.427  0.00  0.00    +0.016 A 
ATOM     15  C   UNL     1       1.445   7.340  -0.140  0.00  0.00    +0.018 A 
ATOM     16  C   UNL     1       0.361   8.010  -0.683  0.00  0.00    +0.016 A 
ATOM     17  C   UNL     1      -0.891   7.433  -0.661  0.00  0.00    +0.012 A 
ATOM     18 BR   UNL     1       3.159   8.138  -0.172  0.00  0.00    -0.050 Br
ENDBRANCH  10  12
BRANCH   9  19
ATOM     19  N   UNL     1      -1.326   3.418  -0.283  0.00  0.00    -0.170 NA
ATOM     20  C   UNL     1      -1.101   2.747  -1.372  0.00  0.00    +0.141 C 
BRANCH  20  21
ATOM     21  C   UNL     1       0.166   2.012  -1.535  0.00  0.00    -0.002 A 
ATOM     22  C   UNL     1       1.129   2.041  -0.522  0.00  0.00    +0.013 A 
ATOM     23  C   UNL     1       2.316   1.357  -0.679  0.00  0.00    +0.050 A 
ATOM     24  C   UNL     1       2.557   0.639  -1.842  0.00  0.00    +0.158 A 
ATOM     25  C   UNL     1       1.603   0.605  -2.856  0.00  0.00    +0.159 A 
ATOM     26  C   UNL     1       0.410   1.288  -2.706  0.00  0.00    +0.058 A 
BRANCH  25  27
ATOM     27  O   UNL     1       1.844  -0.100  -3.994  0.00  0.00    -0.503 OA
ATOM     28  H   UNL     1       2.277   0.412  -4.689  0.00  0.00    +0.292 HD
ENDBRANCH  25  27
BRANCH  24  29
ATOM     29  O   UNL     1       3.729  -0.034  -1.991  0.00  0.00    -0.503 OA
ATOM     30  H   UNL     1       4.432   0.488  -2.401  0.00  0.00    +0.292 HD
ENDBRANCH  24  29
ENDBRANCH  20  21
ENDBRANCH   9  19
TORSDOF 5
