REMARK  Name = ZINC20396303
REMARK  8 active torsions:
REMARK  status: ('A' for Active; 'I' for Inactive)
REMARK    1  A    between atoms: C_1  and  C_2
REMARK    2  A    between atoms: C_2  and  C_3
REMARK    3  A    between atoms: C_2  and  C_4
REMARK    4  A    between atoms: C_2  and  C_5
REMARK    5  A    between atoms: C_11  and  S_13
REMARK    6  A    between atoms: S_13  and  C_14
REMARK    7  A    between atoms: C_14  and  C_15
REMARK    8  A    between atoms: C_18  and  N_21
REMARK                            x       y       z     vdW  Elec       q    Type
REMARK                         _______ _______ _______ _____ _____    ______ ____
ROOT
ATOM      1  C   UNL     1       0.198   4.170   0.022  0.00  0.00    +0.224 C 
ATOM      2  O   UNL     1      -0.920   3.700   0.031  0.00  0.00    -0.275 OA
ATOM      3  N   UNL     1       1.272   3.355   0.008  0.00  0.00    -0.263 N 
ATOM      4  C   UNL     1       1.097   1.974   0.002  0.00  0.00    +0.189 A 
ATOM      5  N   UNL     1      -0.015   1.257   0.009  0.00  0.00    -0.125 NA
ATOM      6  N   UNL     1       0.002  -0.004   0.002  0.00  0.00    -0.133 NA
ATOM      7  C   UNL     1       1.136  -0.689  -0.013  0.00  0.00    +0.160 A 
ATOM      8  S   UNL     1       2.313   0.660  -0.017  0.00  0.00    -0.024 S 
ATOM      9  H   UNL     1       2.286   3.781  -0.000  0.00  0.00    +0.157 HD
ENDROOT
BRANCH   1  11
ATOM     10  C   UNL     1      -0.980   6.352   0.045  0.00  0.00    +0.020 C 
ATOM     11  C   UNL     1       0.387   5.665   0.028  0.00  0.00    +0.039 C 
ATOM     12  C   UNL     1       1.179   6.074   1.272  0.00  0.00    +0.020 C 
ATOM     13  C   UNL     1       1.155   6.087  -1.227  0.00  0.00    +0.020 C 
ENDBRANCH   1  11
BRANCH   7  14
ATOM     14  S   UNL     1       1.408  -2.430  -0.025  0.00  0.00    -0.092 S 
BRANCH  14  15
ATOM     15  C   UNL     1      -0.263  -3.135  -0.013  0.00  0.00    +0.111 C 
BRANCH  15  16
ATOM     16  C   UNL     1      -0.174  -4.639  -0.022  0.00  0.00    -0.037 A 
ATOM     17  C   UNL     1      -0.151  -5.322  -1.224  0.00  0.00    +0.006 A 
ATOM     18  C   UNL     1      -0.063  -6.700  -1.237  0.00  0.00    +0.023 A 
ATOM     19  C   UNL     1      -0.010  -7.402  -0.039  0.00  0.00    +0.025 A 
ATOM     20  C   UNL     1      -0.040  -6.713   1.167  0.00  0.00    +0.023 A 
ATOM     21  C   UNL     1      -0.121  -5.335   1.172  0.00  0.00    +0.006 A 
BRANCH  19  22
ATOM     22  N   UNL     1       0.073  -8.796  -0.048  0.00  0.00    -0.358 N 
ATOM     23  H   UNL     1       0.115  -9.350   0.901  0.00  0.00    +0.142 HD
ATOM     24  H   UNL     1       0.097  -9.339  -1.004  0.00  0.00    +0.142 HD
ENDBRANCH  19  22
ENDBRANCH  15  16
ENDBRANCH  14  15
ENDBRANCH   7  14
TORSDOF 5
