REMARK  Name = ZINC66536990
REMARK  5 active torsions:
REMARK  status: ('A' for Active; 'I' for Inactive)
REMARK    1  A    between atoms: C_4  and  N_6
REMARK    2  A    between atoms: C_10  and  C_12
REMARK    3  A    between atoms: C_12  and  N_13
REMARK    4  A    between atoms: C_17  and  C_19
REMARK    5  A    between atoms: C_19  and  N_20
REMARK                            x       y       z     vdW  Elec       q    Type
REMARK                         _______ _______ _______ _____ _____    ______ ____
ROOT
ATOM      1  N   UNL     1       1.136  -1.207  -1.821  0.00  0.00    -0.296 N 
ATOM      2  C   UNL     1       0.974  -2.543  -1.742  0.00  0.00    +0.306 C 
ATOM      3  O   UNL     1       1.008  -3.096  -0.661  0.00  0.00    -0.252 OA
ATOM      4  N   UNL     1       0.774  -3.265  -2.863  0.00  0.00    -0.239 N 
ATOM      5  C   UNL     1       0.612  -4.600  -2.784  0.00  0.00    +0.234 C 
ATOM      6  O   UNL     1       0.646  -5.152  -1.705  0.00  0.00    -0.274 OA
ATOM      7  H   UNL     1       1.109  -0.765  -2.685  0.00  0.00    +0.151 HD
ATOM      8  H   UNL     1       0.747  -2.823  -3.726  0.00  0.00    +0.159 HD
ENDROOT
BRANCH   1  12
ATOM      9  C   UNL     1      -0.019   1.538   0.011  0.00  0.00    +0.002 C 
ATOM     10  C   UNL     1       1.477   1.939  -0.002  0.00  0.00    +0.002 C 
ATOM     11  C   UNL     1       2.107   0.881  -0.942  0.00  0.00    +0.022 C 
ATOM     12  C   UNL     1       1.353  -0.422  -0.604  0.00  0.00    +0.074 C 
ATOM     13  C   UNL     1       0.002  -0.004   0.002  0.00  0.00    +0.022 C 
ENDBRANCH   1  12
BRANCH   5  14
ATOM     14  C   UNL     1       0.389  -5.408  -4.036  0.00  0.00    +0.181 C 
BRANCH  14  15
ATOM     15  N   UNL     1       0.242  -6.827  -3.685  0.00  0.00    -0.293 NA
ATOM     16  C   UNL     1       1.524  -7.389  -3.207  0.00  0.00    +0.085 C 
ATOM     17  C   UNL     1       1.515  -8.860  -3.691  0.00  0.00    +0.017 C 
ATOM     18  C   UNL     1       0.829  -8.730  -5.077  0.00  0.00    +0.018 C 
ATOM     19  C   UNL     1      -0.212  -7.614  -4.846  0.00  0.00    +0.041 C 
BRANCH  19  20
ATOM     20  C   UNL     1      -1.580  -8.232  -4.552  0.00  0.00    -0.060 C 
BRANCH  20  21
ATOM     21  N   UNL     1      -2.522  -7.174  -4.164  0.00  0.00    +0.381 N 
ATOM     22  C   UNL     1      -2.821  -6.302  -5.329  0.00  0.00    -0.079 C 
ATOM     23  C   UNL     1      -4.174  -5.651  -4.947  0.00  0.00    -0.020 C 
ATOM     24  C   UNL     1      -4.920  -6.800  -4.231  0.00  0.00    -0.020 C 
ATOM     25  C   UNL     1      -3.816  -7.766  -3.761  0.00  0.00    -0.079 C 
ATOM     26  H   UNL     1      -2.139  -6.627  -3.408  0.00  0.00    -0.082 HD
ENDBRANCH  20  21
ENDBRANCH  19  20
ENDBRANCH  14  15
ENDBRANCH   5  14
TORSDOF 5
