REMARK  Name = ZINC05392716
REMARK  6 active torsions:
REMARK  status: ('A' for Active; 'I' for Inactive)
REMARK    1  A    between atoms: C_1  and  C_2
REMARK    2  A    between atoms: C_5  and  S_8
REMARK    3  A    between atoms: S_8  and  N_11
REMARK    4  A    between atoms: N_11  and  C_12
REMARK    5  A    between atoms: C_13  and  C_23
REMARK    6  A    between atoms: C_18  and  C_22
REMARK                            x       y       z     vdW  Elec       q    Type
REMARK                         _______ _______ _______ _____ _____    ______ ____
ROOT
ATOM      1  C   UNL     1      -1.217   1.641   0.017  0.00  0.00    +0.098 A 
ATOM      2  C   UNL     1      -2.502   1.112   0.020  0.00  0.00    +0.069 A 
ATOM      3  C   UNL     1      -3.613   2.050   0.030  0.00  0.00    -0.023 A 
ATOM      4  C   UNL     1      -3.264   3.354   0.035  0.00  0.00    -0.004 A 
ATOM      5  S   UNL     1      -1.494   3.351   0.035  0.00  0.00    -0.076 S 
ATOM      6  C   UNL     1      -4.186   4.535   0.045  0.00  0.00    +0.046 C 
ATOM      7  C   UNL     1      -5.595   4.053  -0.330  0.00  0.00    -0.009 C 
ATOM      8  C   UNL     1      -5.928   2.811   0.502  0.00  0.00    +0.008 C 
ATOM      9  C   UNL     1      -5.077   1.629   0.036  0.00  0.00    +0.037 C 
ATOM     10  C   UNL     1      -6.611   5.158  -0.033  0.00  0.00    +0.008 C 
ENDROOT
BRANCH   2  11
ATOM     11  C   UNL     1      -2.729  -0.335   0.013  0.00  0.00    +0.244 C 
ATOM     12  O   UNL     1      -2.818  -0.942   1.064  0.00  0.00    -0.270 OA
ATOM     13  N   UNL     1      -2.838  -0.994  -1.158  0.00  0.00    -0.325 N 
ATOM     14  H   UNL     1      -2.767  -0.510  -1.995  0.00  0.00    +0.145 HD
ATOM     15  H   UNL     1      -2.989  -1.952  -1.163  0.00  0.00    +0.145 HD
ENDBRANCH   2  11
BRANCH   1  16
ATOM     16  N   UNL     1      -0.011   0.966   0.007  0.00  0.00    -0.209 N 
ATOM     17  H   UNL     1       0.002  -0.004   0.002  0.00  0.00    +0.174 HD
BRANCH  16  18
ATOM     18  S   UNL     1       1.412   1.813  -0.002  0.00  0.00    +0.073 S 
ATOM     19  O   UNL     1       2.457   0.851   0.010  0.00  0.00    -0.150 OA
ATOM     20  O   UNL     1       1.292   2.796  -1.021  0.00  0.00    -0.150 OA
BRANCH  18  25
ATOM     21  C   UNL     1       1.747   4.791   5.236  0.00  0.00    +0.044 C 
ATOM     22  C   UNL     1       1.664   4.047   3.927  0.00  0.00    -0.050 A 
ATOM     23  C   UNL     1       2.185   2.771   3.823  0.00  0.00    +0.005 A 
ATOM     24  C   UNL     1       2.108   2.089   2.623  0.00  0.00    +0.029 A 
ATOM     25  C   UNL     1       1.510   2.683   1.528  0.00  0.00    +0.109 A 
ATOM     26  C   UNL     1       0.993   3.961   1.630  0.00  0.00    +0.029 A 
ATOM     27  C   UNL     1       1.066   4.641   2.831  0.00  0.00    +0.005 A 
ENDBRANCH  18  25
ENDBRANCH  16  18
ENDBRANCH   1  16
TORSDOF 4
