REMARK  Name = ZINC11591356
REMARK  6 active torsions:
REMARK  status: ('A' for Active; 'I' for Inactive)
REMARK    1  A    between atoms: C_1  and  C_2
REMARK    2  A    between atoms: C_2  and  C_3
REMARK    3  A    between atoms: C_2  and  C_4
REMARK    4  A    between atoms: C_4  and  N_5
REMARK    5  A    between atoms: C_9  and  C_11
REMARK    6  A    between atoms: C_11  and  N_12
REMARK                            x       y       z     vdW  Elec       q    Type
REMARK                         _______ _______ _______ _____ _____    ______ ____
ROOT
ATOM      1  N   UNL     1       2.714   4.795   1.221  0.00  0.00    -0.215 N 
ATOM      2  C   UNL     1       1.577   4.092   1.399  0.00  0.00    +0.252 C 
ATOM      3  O   UNL     1       0.987   3.902   2.441  0.00  0.00    -0.272 OA
ATOM      4  C   UNL     1       1.192   3.592   0.026  0.00  0.00    +0.144 C 
ATOM      5  C   UNL     1      -0.168   4.150  -0.380  0.00  0.00    +0.081 C 
ATOM      6  C   UNL     1      -1.252   3.395   0.402  0.00  0.00    +0.232 C 
ATOM      7  O   UNL     1      -1.217   2.022   0.014  0.00  0.00    -0.492 OA
ATOM      8  C   UNL     1      -0.017   1.386   0.010  0.00  0.00    +0.126 A 
ATOM      9  C   UNL     1       1.177   2.089   0.002  0.00  0.00    +0.027 A 
ATOM     10  C   UNL     1       2.379   1.403  -0.023  0.00  0.00    +0.010 A 
ATOM     11  C   UNL     1       2.394   0.021  -0.032  0.00  0.00    +0.001 A 
ATOM     12  C   UNL     1       1.204  -0.682  -0.018  0.00  0.00    +0.004 A 
ATOM     13  C   UNL     1       0.002  -0.004   0.002  0.00  0.00    +0.046 A 
ATOM     14  N   UNL     1       2.247   4.112  -0.852  0.00  0.00    -0.281 N 
ATOM     15  C   UNL     1       3.092   4.804  -0.063  0.00  0.00    +0.310 C 
ATOM     16  O   UNL     1       4.086   5.372  -0.471  0.00  0.00    -0.252 OA
ATOM     17  H   UNL     1       2.322   3.983  -1.810  0.00  0.00    +0.152 HD
ENDROOT
BRANCH   1  18
ATOM     18  C   UNL     1       3.445   5.467   2.299  0.00  0.00    +0.214 C 
BRANCH  18  23
ATOM     19  N   UNL     1       6.949   4.475   5.436  0.00  0.00    -0.299 N 
ATOM     20  C   UNL     1       6.156   4.072   4.424  0.00  0.00    +0.306 C 
ATOM     21  O   UNL     1       6.258   2.944   3.984  0.00  0.00    -0.252 OA
ATOM     22  N   UNL     1       5.250   4.921   3.899  0.00  0.00    -0.239 N 
ATOM     23  C   UNL     1       4.457   4.518   2.886  0.00  0.00    +0.238 C 
ATOM     24  O   UNL     1       4.559   3.392   2.447  0.00  0.00    -0.274 OA
ATOM     25  H   UNL     1       6.868   5.375   5.787  0.00  0.00    +0.150 HD
ATOM     26  H   UNL     1       5.169   5.821   4.250  0.00  0.00    +0.159 HD
BRANCH  19  27
ATOM     27  C   UNL     1       7.934   3.553   6.007  0.00  0.00    +0.108 C 
BRANCH  27  29
ATOM     28  C   UNL     1       7.734   4.577   8.277  0.00  0.00    +0.009 C 
ATOM     29  C   UNL     1       8.697   4.254   7.133  0.00  0.00    -0.000 C 
ATOM     30  C   UNL     1       9.808   3.335   7.645  0.00  0.00    +0.009 C 
ENDBRANCH  27  29
ENDBRANCH  19  27
ENDBRANCH  18  23
ENDBRANCH   1  18
TORSDOF 4
