REMARK  Name = ZINC62855166
REMARK  7 active torsions:
REMARK  status: ('A' for Active; 'I' for Inactive)
REMARK    1  A    between atoms: C_1  and  C_2
REMARK    2  A    between atoms: C_2  and  C_3
REMARK    3  A    between atoms: C_3  and  C_4
REMARK    4  A    between atoms: C_4  and  C_10
REMARK    5  A    between atoms: N_12  and  C_13
REMARK    6  A    between atoms: C_13  and  C_15
REMARK    7  A    between atoms: C_13  and  C_16
REMARK                            x       y       z     vdW  Elec       q    Type
REMARK                         _______ _______ _______ _____ _____    ______ ____
ROOT
ATOM      1  C   UNL     1      -0.814  -2.448  -1.249  0.00  0.00    +0.218 C 
ATOM      2  O   UNL     1      -1.187  -3.231  -2.097  0.00  0.00    -0.275 OA
ATOM      3  N   UNL     1      -1.691  -1.958  -0.352  0.00  0.00    -0.308 N 
ATOM      4  H   UNL     1      -1.380  -1.389   0.370  0.00  0.00    +0.149 HD
ENDROOT
BRANCH   1   5
ATOM      5  C   UNL     1       0.632  -2.024  -1.200  0.00  0.00    +0.032 C 
ATOM      6  C   UNL     1       1.186  -2.259   0.208  0.00  0.00    +0.012 C 
ATOM      7  C   UNL     1       1.145  -3.758   0.519  0.00  0.00    -0.018 C 
ATOM      8  C   UNL     1       1.935  -4.517  -0.550  0.00  0.00    -0.083 C 
ATOM      9  N   UNL     1       1.340  -4.272  -1.869  0.00  0.00    +0.380 N 
ATOM     10  C   UNL     1       1.440  -2.847  -2.204  0.00  0.00    -0.066 C 
ATOM     11  H   UNL     1       1.830  -4.816  -2.564  0.00  0.00    -0.086 HD
ATOM     12  H   UNL     1       0.368  -4.546  -1.854  0.00  0.00    -0.086 HD
BRANCH   5  13
ATOM     13  C   UNL     1       0.741  -0.539  -1.550  0.00  0.00    +0.014 C 
BRANCH  13  15
ATOM     14  C   UNL     1       0.114   1.209  -3.223  0.00  0.00    +0.004 C 
ATOM     15  C   UNL     1       0.115  -0.292  -2.925  0.00  0.00    -0.002 C 
ENDBRANCH  13  15
ENDBRANCH   5  13
ENDBRANCH   1   5
BRANCH   3  16
ATOM     16  C   UNL     1      -3.115  -2.283  -0.466  0.00  0.00    +0.107 C 
ATOM     17  C   UNL     1      -3.785  -1.307  -1.435  0.00  0.00    +0.033 C 
BRANCH  16  18
ATOM     18  C   UNL     1      -3.766  -2.173   0.889  0.00  0.00    +0.011 A 
ATOM     19  C   UNL     1      -4.699  -2.976   1.455  0.00  0.00    +0.014 A 
ATOM     20  C   UNL     1      -5.158  -2.679   2.725  0.00  0.00    +0.028 A 
ATOM     21  C   UNL     1      -4.660  -1.592   3.366  0.00  0.00    +0.078 A 
ATOM     22  S   UNL     1      -3.501  -0.955   2.167  0.00  0.00    -0.080 S 
ATOM     23 CL   UNL     1      -5.045  -0.982   4.945  0.00  0.00    -0.076 Cl
ENDBRANCH  16  18
ENDBRANCH   3  16
TORSDOF 5
