REMARK  Name = ZINC11817920
REMARK  7 active torsions:
REMARK  status: ('A' for Active; 'I' for Inactive)
REMARK    1  A    between atoms: C_1  and  C_2
REMARK    2  A    between atoms: C_6  and  N_9
REMARK    3  A    between atoms: C_7  and  C_8
REMARK    4  A    between atoms: C_14  and  N_49
REMARK    5  A    between atoms: C_19  and  C_20
REMARK    6  A    between atoms: C_19  and  N_49
REMARK    7  A    between atoms: C_22  and  C_26
REMARK                            x       y       z     vdW  Elec       q    Type
REMARK                         _______ _______ _______ _____ _____    ______ ____
ROOT
ATOM      1  N   UNL     1       0.024  -0.003   0.080  0.00  0.00    -0.236 N 
ATOM      2  C   UNL     1      -1.040  -0.817   0.204  0.00  0.00    +0.047 A 
ATOM      3  C   UNL     1      -0.589  -2.097   0.189  0.00  0.00    -0.020 A 
ATOM      4  C   UNL     1       0.797  -2.063   0.052  0.00  0.00    +0.137 A 
ATOM      5  N   UNL     1       1.169  -0.808  -0.019  0.00  0.00    -0.174 NA
ATOM      6  C   UNL     1      -1.479  -3.309   0.303  0.00  0.00    -0.037 C 
ATOM      7  C   UNL     1      -2.923  -2.877   0.017  0.00  0.00    -0.011 C 
ATOM      8  C   UNL     1      -3.267  -1.649   0.864  0.00  0.00    +0.005 C 
ATOM      9  C   UNL     1      -2.493  -0.433   0.342  0.00  0.00    +0.056 C 
ENDROOT
BRANCH   1  15
ATOM     10  C   UNL     1       1.770   4.307   1.683  0.00  0.00    +0.044 C 
ATOM     11  C   UNL     1       0.829   3.511   0.815  0.00  0.00    -0.046 A 
ATOM     12  C   UNL     1      -0.065   4.163  -0.014  0.00  0.00    +0.004 A 
ATOM     13  C   UNL     1      -0.930   3.437  -0.811  0.00  0.00    +0.002 A 
ATOM     14  C   UNL     1      -0.899   2.056  -0.786  0.00  0.00    +0.028 A 
ATOM     15  C   UNL     1      -0.006   1.398   0.048  0.00  0.00    +0.069 A 
ATOM     16  C   UNL     1       0.861   2.131   0.848  0.00  0.00    -0.022 A 
ATOM     17  C   UNL     1       1.837   1.420   1.751  0.00  0.00    +0.046 C 
ENDBRANCH   1  15
BRANCH   6  18
ATOM     18  N   UNL     1      -1.067  -4.324  -0.685  0.00  0.00    +0.387 N 
ATOM     19  H   UNL     1      -0.744  -3.854  -1.539  0.00  0.00    -0.084 HD
ATOM     20  H   UNL     1      -1.869  -4.925  -0.908  0.00  0.00    -0.084 HD
BRANCH  18  21
ATOM     21  C   UNL     1       0.026  -5.153  -0.142  0.00  0.00    -0.026 C 
BRANCH  21  22
ATOM     22  C   UNL     1       0.425  -6.178  -1.171  0.00  0.00    +0.019 A 
ATOM     23  C   UNL     1       1.434  -6.060  -2.066  0.00  0.00    +0.045 A 
ATOM     24  C   UNL     1       1.468  -7.229  -2.833  0.00  0.00    +0.060 A 
ATOM     25  N   UNL     1       0.515  -8.021  -2.414  0.00  0.00    -0.179 NA
ATOM     26  N   UNL     1      -0.154  -7.382  -1.362  0.00  0.00    -0.283 N 
ATOM     27  H   UNL     1      -0.926  -7.752  -0.844  0.00  0.00    +0.188 HD
ATOM     28  C   UNL     1       2.436  -7.525  -3.950  0.00  0.00    +0.067 C 
ENDBRANCH  21  22
ENDBRANCH  18  21
ENDBRANCH   6  18
TORSDOF 4
