REMARK  Name = ZINC39324587
REMARK  8 active torsions:
REMARK  status: ('A' for Active; 'I' for Inactive)
REMARK    1  A    between atoms: C_1  and  C_2
REMARK    2  A    between atoms: C_2  and  C_3
REMARK    3  A    between atoms: C_3  and  C_4
REMARK    4  A    between atoms: C_6  and  C_18
REMARK    5  A    between atoms: C_8  and  C_16
REMARK    6  A    between atoms: C_9  and  N_15
REMARK    7  A    between atoms: C_18  and  C_19
REMARK    8  A    between atoms: C_18  and  C_20
REMARK                            x       y       z     vdW  Elec       q    Type
REMARK                         _______ _______ _______ _____ _____    ______ ____
ROOT
ATOM      1  C   UNL     1      -1.422  -2.028  -0.002  0.00  0.00    +0.069 C 
ATOM      2  C   UNL     1      -1.255  -2.736   1.089  0.00  0.00    +0.026 C 
ATOM      3  C   UNL     1      -1.356  -2.419   2.556  0.00  0.00    +0.070 C 
ATOM      4  C   UNL     1      -2.080  -3.599   3.179  0.00  0.00    +0.093 C 
ATOM      5  C   UNL     1      -2.333  -4.724   2.479  0.00  0.00    +0.195 C 
ATOM      6  O   UNL     1      -2.027  -4.955   1.190  0.00  0.00    -0.448 OA
ATOM      7  C   UNL     1      -0.992  -4.162   0.604  0.00  0.00    +0.343 C 
ATOM      8  N   UNL     1      -1.154  -4.024  -0.848  0.00  0.00    -0.138 NA
ATOM      9  N   UNL     1      -1.368  -2.830  -1.096  0.00  0.00    -0.155 NA
ENDROOT
BRANCH   5  10
ATOM     10  N   UNL     1      -2.966  -5.738   3.153  0.00  0.00    -0.329 N 
ATOM     11  H   UNL     1      -3.209  -5.624   4.085  0.00  0.00    +0.145 HD
ATOM     12  H   UNL     1      -3.172  -6.569   2.697  0.00  0.00    +0.145 HD
ENDBRANCH   5  10
BRANCH   3  13
ATOM     13  C   UNL     1      -2.158  -1.133   2.765  0.00  0.00    -0.005 C 
ATOM     14  C   UNL     1      -3.595  -1.344   2.285  0.00  0.00    +0.008 C 
ATOM     15  C   UNL     1      -2.165  -0.771   4.252  0.00  0.00    +0.008 C 
ENDBRANCH   3  13
BRANCH   4  16
ATOM     16  C   UNL     1      -2.505  -3.515   4.543  0.00  0.00    +0.100 C 
ATOM     17  N   UNL     1      -2.842  -3.449   5.626  0.00  0.00    -0.191 NA
ENDBRANCH   4  16
BRANCH   1  18
ATOM     18  C   UNL     1      -1.648  -0.539  -0.036  0.00  0.00    +0.057 C 
BRANCH  18  20
ATOM     19  C   UNL     1      -0.532   1.696   0.014  0.00  0.00    +0.004 C 
ATOM     20  C   UNL     1      -0.302   0.184   0.049  0.00  0.00    +0.003 C 
ENDBRANCH  18  20
ENDBRANCH   1  18
TORSDOF 5
