REMARK  Name = ZINC44263384
REMARK  10 active torsions:
REMARK  status: ('A' for Active; 'I' for Inactive)
REMARK    1  A    between atoms: C_1  and  C_2
REMARK    2  A    between atoms: C_2  and  C_3
REMARK    3  A    between atoms: C_2  and  C_4
REMARK    4  A    between atoms: C_9  and  C_12
REMARK    5  A    between atoms: C_12  and  C_13
REMARK    6  A    between atoms: N_15  and  C_16
REMARK    7  A    between atoms: C_18  and  C_24
REMARK    8  A    between atoms: C_18  and  C_25
REMARK    9  A    between atoms: C_20  and  C_22
REMARK   10  A    between atoms: C_20  and  C_23
REMARK                            x       y       z     vdW  Elec       q    Type
REMARK                         _______ _______ _______ _____ _____    ______ ____
ROOT
ATOM      1  C   UNL     1      -4.655  -5.841  -1.430  0.00  0.00    +0.219 C 
ATOM      2  O   UNL     1      -3.978  -5.234  -2.233  0.00  0.00    -0.275 OA
ATOM      3  N   UNL     1      -4.892  -7.156  -1.606  0.00  0.00    -0.312 N 
ATOM      4  H   UNL     1      -5.434  -7.641  -0.964  0.00  0.00    +0.149 HD
ENDROOT
BRANCH   3   5
ATOM      5  C   UNL     1      -4.331  -7.854  -2.769  0.00  0.00    +0.070 C 
ATOM      6  C   UNL     1      -5.289  -7.708  -3.953  0.00  0.00    +0.009 C 
ATOM      7  C   UNL     1      -4.724  -8.441  -5.170  0.00  0.00    -0.072 C 
ATOM      8  N   UNL     1      -4.409  -9.831  -4.875  0.00  0.00    +0.386 N 
ATOM      9  C   UNL     1      -3.671 -10.112  -3.654  0.00  0.00    -0.072 C 
ATOM     10  C   UNL     1      -4.192  -9.341  -2.446  0.00  0.00    +0.009 C 
ATOM     11  C   UNL     1      -3.842 -11.619  -3.346  0.00  0.00    -0.010 C 
ATOM     12  C   UNL     1      -2.171  -9.859  -3.828  0.00  0.00    -0.010 C 
ATOM     13  C   UNL     1      -3.521  -7.684  -5.731  0.00  0.00    -0.010 C 
ATOM     14  C   UNL     1      -5.821  -8.431  -6.260  0.00  0.00    -0.010 C 
ATOM     15  H   UNL     1      -5.285 -10.360  -4.851  0.00  0.00    -0.084 HD
ATOM     16  H   UNL     1      -3.885 -10.215  -5.665  0.00  0.00    -0.084 HD
ENDBRANCH   3   5
BRANCH   1  17
ATOM     17  C   UNL     1      -5.231  -5.124  -0.236  0.00  0.00    +0.151 C 
BRANCH  17  23
ATOM     18  C   UNL     1      -1.759  -0.173  -0.487  0.00  0.00    +0.221 C 
ATOM     19  O   UNL     1      -2.725   0.558  -0.430  0.00  0.00    -0.275 OA
ATOM     20  N   UNL     1      -1.924  -1.510  -0.470  0.00  0.00    -0.264 N 
ATOM     21  C   UNL     1      -3.202  -2.052  -0.388  0.00  0.00    +0.165 A 
ATOM     22  N   UNL     1      -3.552  -3.319  -0.354  0.00  0.00    -0.229 NA
ATOM     23  C   UNL     1      -4.821  -3.675  -0.274  0.00  0.00    +0.059 A 
ATOM     24  C   UNL     1      -5.738  -2.678  -0.228  0.00  0.00    +0.072 A 
ATOM     25  S   UNL     1      -4.676  -1.244  -0.299  0.00  0.00    -0.060 S 
ATOM     26  H   UNL     1      -1.152  -2.095  -0.516  0.00  0.00    +0.157 HD
BRANCH  18  28
ATOM     27  C   UNL     1      -0.466   1.942  -0.578  0.00  0.00    +0.017 C 
ATOM     28  C   UNL     1      -0.374   0.414  -0.577  0.00  0.00    +0.069 C 
ATOM     29  C   UNL     1       0.454  -0.045   0.625  0.00  0.00    +0.017 C 
ENDBRANCH  18  28
ENDBRANCH  17  23
ENDBRANCH   1  17
TORSDOF 4
