REMARK  Name = ZINC54903395
REMARK  7 active torsions:
REMARK  status: ('A' for Active; 'I' for Inactive)
REMARK    1  A    between atoms: C_1  and  C_2
REMARK    2  A    between atoms: C_2  and  N_3
REMARK    3  A    between atoms: N_3  and  C_18
REMARK    4  A    between atoms: C_9  and  N_16
REMARK    5  A    between atoms: C_12  and  C_14
REMARK    6  A    between atoms: C_12  and  C_15
REMARK    7  A    between atoms: N_16  and  C_17
REMARK                            x       y       z     vdW  Elec       q    Type
REMARK                         _______ _______ _______ _____ _____    ______ ____
ROOT
ATOM      1  N   UNL     1       0.777  -0.280  -1.530  0.00  0.00    -0.307 N 
ATOM      2  C   UNL     1       2.132  -0.551  -1.420  0.00  0.00    +0.161 A 
ATOM      3  N   UNL     1       2.948  -1.024  -2.337  0.00  0.00    -0.229 NA
ATOM      4  C   UNL     1       4.239  -1.236  -2.087  0.00  0.00    +0.053 A 
ATOM      5  C   UNL     1       4.635  -0.926  -0.827  0.00  0.00    +0.000 A 
ATOM      6  S   UNL     1       3.136  -0.347  -0.082  0.00  0.00    -0.059 S 
ATOM      7  C   UNL     1       6.003  -1.047  -0.246  0.00  0.00    -0.032 C 
ATOM      8  C   UNL     1       7.000  -1.238  -1.400  0.00  0.00    -0.004 C 
ATOM      9  C   UNL     1       6.458  -2.312  -2.348  0.00  0.00    -0.031 C 
ATOM     10  C   UNL     1       5.235  -1.782  -3.100  0.00  0.00    +0.062 C 
ATOM     11  C   UNL     1       6.060  -3.548  -1.539  0.00  0.00    +0.011 C 
ATOM     12  C   UNL     1       7.545  -2.696  -3.354  0.00  0.00    +0.011 C 
ENDROOT
BRANCH   1  13
ATOM     13  C   UNL     1       0.080  -0.530  -2.794  0.00  0.00    +0.075 C 
ATOM     14  C   UNL     1       0.244  -2.008  -3.205  0.00  0.00    +0.022 C 
ATOM     15  C   UNL     1       0.385  -1.960  -4.747  0.00  0.00    +0.002 C 
ATOM     16  C   UNL     1       1.235  -0.685  -4.973  0.00  0.00    +0.002 C 
ATOM     17  C   UNL     1       0.710   0.311  -3.918  0.00  0.00    +0.022 C 
ENDBRANCH   1  13
BRANCH   7  18
ATOM     18  N   UNL     1       6.334   0.174   0.500  0.00  0.00    +0.382 N 
ATOM     19  C   UNL     1       7.623  -0.004   1.183  0.00  0.00    -0.100 C 
ATOM     20  H   UNL     1       6.397   0.952  -0.139  0.00  0.00    -0.085 HD
ATOM     21  H   UNL     1       5.614   0.357   1.183  0.00  0.00    -0.085 HD
ENDBRANCH   7  18
BRANCH   1  23
ATOM     22  C   UNL     1       0.089   1.784  -0.414  0.00  0.00    +0.024 C 
ATOM     23  C   UNL     1       0.042   0.256  -0.382  0.00  0.00    +0.104 C 
ENDBRANCH   1  23
TORSDOF 3
