REMARK  Name = ZINC36264409
REMARK  4 active torsions:
REMARK  status: ('A' for Active; 'I' for Inactive)
REMARK    1  A    between atoms: N_5  and  S_8
REMARK    2  A    between atoms: S_8  and  N_11
REMARK    3  A    between atoms: N_11  and  C_12
REMARK    4  A    between atoms: C_15  and  N_17
REMARK                            x       y       z     vdW  Elec       q    Type
REMARK                         _______ _______ _______ _____ _____    ______ ____
ROOT
ATOM      1  S   UNL     1       0.446  -0.276  -3.510  0.00  0.00    +0.097 S 
ATOM      2  O   UNL     1      -0.713  -0.955  -3.044  0.00  0.00    -0.141 OA
ATOM      3  O   UNL     1       0.374   0.864  -4.354  0.00  0.00    -0.141 OA
ENDROOT
BRANCH   1   8
ATOM      4  C   UNL     1      -0.019   1.544   0.011  0.00  0.00    +0.001 C 
ATOM      5  C   UNL     1       1.377   2.097   0.000  0.00  0.00    +0.001 C 
ATOM      6  C   UNL     1       1.668   2.437  -1.458  0.00  0.00    +0.017 C 
ATOM      7  C   UNL     1       2.254   1.339  -2.226  0.00  0.00    +0.110 C 
ATOM      8  N   UNL     1       1.297   0.183  -2.165  0.00  0.00    -0.167 NA
ATOM      9  C   UNL     1       1.133  -0.517  -0.924  0.00  0.00    +0.110 C 
ATOM     10  C   UNL     1       0.002  -0.004   0.002  0.00  0.00    +0.017 C 
ENDBRANCH   1   8
BRANCH   1  11
ATOM     11  N   UNL     1       1.363  -1.400  -4.309  0.00  0.00    -0.178 NA
ATOM     12  H   UNL     1       1.712  -1.202  -5.193  0.00  0.00    +0.149 HD
BRANCH  11  13
ATOM     13  C   UNL     1       1.647  -2.694  -3.683  0.00  0.00    +0.062 C 
ATOM     14  C   UNL     1       3.002  -3.339  -3.978  0.00  0.00    +0.004 C 
ATOM     15  C   UNL     1       1.728  -3.918  -4.597  0.00  0.00    -0.055 C 
BRANCH  15  16
ATOM     16  N   UNL     1       1.515  -3.707  -6.035  0.00  0.00    +0.381 N 
ATOM     17  H   UNL     1       2.209  -3.065  -6.387  0.00  0.00    -0.090 HD
ATOM     18  H   UNL     1       1.595  -4.588  -6.520  0.00  0.00    -0.090 HD
ATOM     19  H   UNL     1       0.594  -3.322  -6.186  0.00  0.00    -0.090 HD
ENDBRANCH  15  16
ENDBRANCH  11  13
ENDBRANCH   1  11
TORSDOF 4
