REMARK  Name = ZINC49226191
REMARK  6 active torsions:
REMARK  status: ('A' for Active; 'I' for Inactive)
REMARK    1  A    between atoms: C_1  and  C_2
REMARK    2  A    between atoms: C_2  and  C_4
REMARK    3  A    between atoms: C_2  and  N_11
REMARK    4  A    between atoms: C_4  and  N_5
REMARK    5  A    between atoms: C_12  and  C_14
REMARK    6  A    between atoms: N_18  and  C_19
REMARK                            x       y       z     vdW  Elec       q    Type
REMARK                         _______ _______ _______ _____ _____    ______ ____
ROOT
ATOM      1  N   UNL     1       0.720  -0.316   1.249  0.00  0.00    -0.306 N 
ATOM      2  C   UNL     1       2.058  -0.471   1.216  0.00  0.00    +0.261 C 
ATOM      3  O   UNL     1       2.672  -0.237   0.191  0.00  0.00    -0.269 OA
ATOM      4  H   UNL     1       0.221  -0.578   2.038  0.00  0.00    +0.149 HD
ENDROOT
BRANCH   2   5
ATOM      5  C   UNL     1       2.774  -0.923   2.413  0.00  0.00    +0.106 A 
ATOM      6  C   UNL     1       2.202  -1.311   3.607  0.00  0.00    +0.052 A 
ATOM      7  C   UNL     1       3.247  -1.662   4.468  0.00  0.00    +0.059 A 
ATOM      8  C   UNL     1       4.413  -1.487   3.800  0.00  0.00    +0.106 A 
ATOM      9  N   UNL     1       4.138  -1.043   2.548  0.00  0.00    -0.345 N 
ATOM     10  C   UNL     1       5.130  -0.738   1.513  0.00  0.00    +0.149 C 
ATOM     11 CL   UNL     1       3.080  -2.223   6.102  0.00  0.00    -0.082 Cl
ENDBRANCH   2   5
BRANCH   1  13
ATOM     12  C   UNL     1       0.051   1.778   0.175  0.00  0.00    +0.029 C 
ATOM     13  C   UNL     1       0.019   0.250   0.094  0.00  0.00    +0.087 C 
BRANCH  13  14
ATOM     14  C   UNL     1      -1.434  -0.230   0.094  0.00  0.00    +0.129 C 
BRANCH  14  15
ATOM     15  N   UNL     1      -1.465  -1.694   0.136  0.00  0.00    -0.300 N 
ATOM     16  C   UNL     1      -1.464  -2.557  -1.051  0.00  0.00    +0.108 C 
ATOM     17  C   UNL     1      -1.065  -3.959  -0.541  0.00  0.00    +0.028 C 
ATOM     18  C   UNL     1      -1.512  -3.896   0.938  0.00  0.00    +0.097 C 
ATOM     19  C   UNL     1      -1.491  -2.419   1.267  0.00  0.00    +0.216 C 
ATOM     20  O   UNL     1      -1.499  -1.958   2.389  0.00  0.00    -0.276 OA
ENDBRANCH  14  15
ENDBRANCH  13  14
ENDBRANCH   1  13
TORSDOF 4
