REMARK  Name = ZINC43595303
REMARK  12 active torsions:
REMARK  status: ('A' for Active; 'I' for Inactive)
REMARK    1  A    between atoms: C_1  and  C_2
REMARK    2  A    between atoms: C_2  and  C_4
REMARK    3  A    between atoms: C_2  and  N_17
REMARK    4  A    between atoms: N_9  and  C_10
REMARK    5  A    between atoms: C_10  and  C_11
REMARK    6  A    between atoms: N_17  and  C_18
REMARK    7  A    between atoms: N_17  and  C_19
REMARK    8  A    between atoms: C_19  and  C_20
REMARK    9  A    between atoms: N_22  and  C_23
REMARK   10  A    between atoms: C_23  and  C_24
REMARK   11  A    between atoms: C_23  and  C_25
REMARK   12  A    between atoms: C_23  and  C_26
REMARK                            x       y       z     vdW  Elec       q    Type
REMARK                         _______ _______ _______ _____ _____    ______ ____
ROOT
ATOM      1  C   UNL     1       0.094   1.346   0.715  0.00  0.00    -0.004 C 
ATOM      2  C   UNL     1       0.045   0.042  -0.084  0.00  0.00    +0.017 C 
ENDROOT
BRANCH   2   3
ATOM      3  C   UNL     1      -1.376  -0.455  -0.149  0.00  0.00    +0.207 C 
ATOM      4  O   UNL     1      -1.783  -1.239   0.682  0.00  0.00    -0.277 OA
ATOM      5  N   UNL     1      -2.195  -0.027  -1.130  0.00  0.00    -0.242 N 
ATOM      6  C   UNL     1      -3.466  -0.471  -1.188  0.00  0.00    +0.306 C 
ATOM      7  O   UNL     1      -3.874  -1.258  -0.356  0.00  0.00    -0.252 OA
ATOM      8  N   UNL     1      -4.285  -0.044  -2.169  0.00  0.00    -0.297 N 
ATOM      9  H   UNL     1      -1.870   0.600  -1.794  0.00  0.00    +0.159 HD
ATOM     10  H   UNL     1      -3.960   0.583  -2.834  0.00  0.00    +0.150 HD
BRANCH   8  11
ATOM     11  C   UNL     1      -5.667  -0.527  -2.233  0.00  0.00    +0.137 C 
BRANCH  11  12
ATOM     12  C   UNL     1      -6.375   0.108  -3.431  0.00  0.00    +0.135 C 
ATOM     13  C   UNL     1      -7.850  -0.363  -3.496  0.00  0.00    +0.035 C 
ATOM     14  C   UNL     1      -8.499   0.809  -4.282  0.00  0.00    +0.031 C 
ATOM     15  C   UNL     1      -7.686   2.025  -3.788  0.00  0.00    +0.160 C 
ATOM     16  O   UNL     1      -6.441   1.534  -3.274  0.00  0.00    -0.375 OA
ENDBRANCH  11  12
ENDBRANCH   8  11
ENDBRANCH   2   3
BRANCH   2  17
ATOM     17  N   UNL     1       0.886  -0.967   0.574  0.00  0.00    +0.391 N 
ATOM     18  C   UNL     1       2.261  -0.461   0.686  0.00  0.00    -0.094 C 
ATOM     19  H   UNL     1       0.523  -1.160   1.495  0.00  0.00    -0.080 HD
BRANCH  17  20
ATOM     20  C   UNL     1       0.883  -2.202  -0.222  0.00  0.00    +0.019 C 
BRANCH  20  21
ATOM     21  C   UNL     1       1.605  -3.288   0.533  0.00  0.00    +0.197 C 
ATOM     22  O   UNL     1       2.076  -3.057   1.626  0.00  0.00    -0.278 OA
ATOM     23  N   UNL     1       1.727  -4.517  -0.007  0.00  0.00    -0.312 N 
ATOM     24  H   UNL     1       1.350  -4.702  -0.881  0.00  0.00    +0.149 HD
BRANCH  23  25
ATOM     25  C   UNL     1       2.428  -5.573   0.727  0.00  0.00    +0.026 C 
ATOM     26  C   UNL     1       1.721  -5.824   2.061  0.00  0.00    +0.031 C 
ATOM     27  C   UNL     1       2.425  -6.859  -0.102  0.00  0.00    +0.031 C 
ATOM     28  C   UNL     1       3.872  -5.140   0.989  0.00  0.00    +0.031 C 
ENDBRANCH  23  25
ENDBRANCH  20  21
ENDBRANCH  17  20
ENDBRANCH   2  17
TORSDOF 7
