REMARK  Name = ZINC07785266
REMARK  12 active torsions:
REMARK  status: ('A' for Active; 'I' for Inactive)
REMARK    1  A    between atoms: C_1  and  C_2
REMARK    2  A    between atoms: C_2  and  C_4
REMARK    3  A    between atoms: C_2  and  N_49
REMARK    4  A    between atoms: C_9  and  O_10
REMARK    5  A    between atoms: O_10  and  C_11
REMARK    6  A    between atoms: C_12  and  C_14
REMARK    7  A    between atoms: C_12  and  C_15
REMARK    8  A    between atoms: C_12  and  N_49
REMARK    9  A    between atoms: C_15  and  C_17
REMARK   10  A    between atoms: C_18  and  N_27
REMARK   11  A    between atoms: N_19  and  C_26
REMARK   12  A    between atoms: N_22  and  C_25
REMARK                            x       y       z     vdW  Elec       q    Type
REMARK                         _______ _______ _______ _____ _____    ______ ____
ROOT
ATOM      1  C   UNL     1       4.959   3.623  -0.903  0.00  0.00    -0.001 C 
ATOM      2  C   UNL     1       6.191   3.493  -0.006  0.00  0.00    -0.006 C 
ENDROOT
BRANCH   1   3
ATOM      3  N   UNL     1       3.820   2.938  -0.263  0.00  0.00    +0.390 N 
ATOM      4  H   UNL     1       3.877   1.931  -0.457  0.00  0.00    -0.084 HD
ATOM      5  H   UNL     1       3.857   3.094   0.751  0.00  0.00    -0.084 HD
BRANCH   3   7
ATOM      6  C   UNL     1       2.132   4.699   0.012  0.00  0.00    -0.009 C 
ATOM      7  C   UNL     1       2.545   3.463  -0.789  0.00  0.00    -0.040 C 
BRANCH   7   8
ATOM      8  C   UNL     1       1.483   2.402  -0.660  0.00  0.00    -0.020 A 
ATOM      9  C   UNL     1       1.605   1.414   0.298  0.00  0.00    +0.005 A 
ATOM     10  C   UNL     1       0.630   0.441   0.417  0.00  0.00    +0.000 A 
ATOM     11  C   UNL     1      -0.466   0.450  -0.425  0.00  0.00    +0.004 A 
ATOM     12  C   UNL     1      -0.596   1.439  -1.381  0.00  0.00    +0.046 A 
ATOM     13  C   UNL     1       0.381   2.417  -1.503  0.00  0.00    +0.122 A 
BRANCH  13  14
ATOM     14  O   UNL     1       0.259   3.387  -2.446  0.00  0.00    -0.495 OA
ATOM     15  C   UNL     1      -0.901   3.340  -3.279  0.00  0.00    +0.277 C 
ENDBRANCH  13  14
ENDBRANCH   7   8
ENDBRANCH   3   7
ENDBRANCH   1   3
BRANCH   1  16
ATOM     16  C   UNL     1       5.242   2.987  -2.240  0.00  0.00    +0.158 C 
ATOM     17  O   UNL     1       4.757   1.908  -2.514  0.00  0.00    -0.294 OA
BRANCH  16  18
ATOM     18  C   UNL     1       6.069   3.647  -3.174  0.00  0.00    +0.118 A 
ATOM     19  C   UNL     1       6.456   3.019  -4.370  0.00  0.00    +0.116 A 
ATOM     20  N   UNL     1       7.253   3.700  -5.246  0.00  0.00    -0.284 N 
ATOM     21  C   UNL     1       7.679   4.944  -4.978  0.00  0.00    +0.333 A 
ATOM     22  O   UNL     1       8.391   5.505  -5.788  0.00  0.00    -0.246 OA
ATOM     23  N   UNL     1       7.347   5.592  -3.850  0.00  0.00    -0.263 N 
ATOM     24  C   UNL     1       6.559   5.008  -2.923  0.00  0.00    +0.269 A 
ATOM     25  O   UNL     1       6.260   5.598  -1.902  0.00  0.00    -0.267 OA
ATOM     26  C   UNL     1       7.848   6.949  -3.621  0.00  0.00    +0.157 C 
ATOM     27  C   UNL     1       7.657   3.056  -6.498  0.00  0.00    +0.155 C 
BRANCH  19  28
ATOM     28  N   UNL     1       6.038   1.756  -4.655  0.00  0.00    -0.344 N 
ATOM     29  H   UNL     1       5.369   1.329  -4.097  0.00  0.00    +0.144 HD
ATOM     30  H   UNL     1       6.409   1.282  -5.416  0.00  0.00    +0.144 HD
ENDBRANCH  19  28
ENDBRANCH  16  18
ENDBRANCH   1  16
TORSDOF 7
