REMARK  Name = ZINC43110468
REMARK  8 active torsions:
REMARK  status: ('A' for Active; 'I' for Inactive)
REMARK    1  A    between atoms: C_1  and  C_2
REMARK    2  A    between atoms: C_2  and  C_3
REMARK    3  A    between atoms: C_3  and  C_5
REMARK    4  A    between atoms: C_3  and  N_22
REMARK    5  A    between atoms: C_5  and  C_7
REMARK    6  A    between atoms: C_5  and  O_12
REMARK    7  A    between atoms: O_12  and  C_13
REMARK    8  A    between atoms: C_16  and  C_19
REMARK                            x       y       z     vdW  Elec       q    Type
REMARK                         _______ _______ _______ _____ _____    ______ ____
ROOT
ATOM      1  C   UNL     1      -1.404  -2.085   0.130  0.00  0.00    +0.196 C 
ENDROOT
BRANCH   1   2
ATOM      2  C   UNL     1      -0.680  -2.610   1.343  0.00  0.00    +0.028 A 
ATOM      3  C   UNL     1       0.616  -2.986   1.467  0.00  0.00    +0.015 A 
ATOM      4  C   UNL     1       1.067  -3.442   2.691  0.00  0.00    +0.008 A 
ATOM      5  C   UNL     1       0.200  -3.501   3.731  0.00  0.00    +0.045 A 
ATOM      6  S   UNL     1      -1.306  -2.893   2.991  0.00  0.00    -0.098 S 
ENDBRANCH   1   2
BRANCH   1   7
ATOM      7  C   UNL     1      -1.395  -0.555   0.154  0.00  0.00    -0.029 C 
BRANCH   7   8
ATOM      8  N   UNL     1      -2.101  -0.042  -1.028  0.00  0.00    +0.383 N 
ATOM      9  H   UNL     1      -1.638  -0.368  -1.863  0.00  0.00    -0.089 HD
ATOM     10  H   UNL     1      -3.054  -0.373  -1.020  0.00  0.00    -0.089 HD
ATOM     11  H   UNL     1      -2.095   0.967  -1.012  0.00  0.00    -0.089 HD
ENDBRANCH   7   8
BRANCH   7  13
ATOM     12  C   UNL     1       0.062   1.470   0.293  0.00  0.00    +0.002 C 
ATOM     13  C   UNL     1       0.050  -0.053   0.143  0.00  0.00    -0.016 C 
ENDBRANCH   7  13
ENDBRANCH   1   7
BRANCH   1  14
ATOM     14  O   UNL     1      -2.754  -2.554   0.140  0.00  0.00    -0.485 OA
BRANCH  14  15
ATOM     15  C   UNL     1      -3.343  -2.760  -1.064  0.00  0.00    +0.121 A 
ATOM     16  C   UNL     1      -2.609  -2.597  -2.233  0.00  0.00    +0.046 A 
ATOM     17  C   UNL     1      -3.203  -2.806  -3.457  0.00  0.00    +0.016 A 
ATOM     18  C   UNL     1      -4.547  -3.183  -3.524  0.00  0.00    +0.037 A 
ATOM     19  C   UNL     1      -5.282  -3.347  -2.347  0.00  0.00    +0.016 A 
ATOM     20  C   UNL     1      -4.679  -3.141  -1.126  0.00  0.00    +0.046 A 
BRANCH  18  21
ATOM     21  C   UNL     1      -5.188  -3.407  -4.834  0.00  0.00    +0.242 C 
ATOM     22  O   UNL     1      -4.547  -3.264  -5.857  0.00  0.00    -0.270 OA
ATOM     23  N   UNL     1      -6.484  -3.771  -4.897  0.00  0.00    -0.325 N 
ATOM     24  H   UNL     1      -6.996  -3.885  -4.080  0.00  0.00    +0.145 HD
ATOM     25  H   UNL     1      -6.906  -3.918  -5.758  0.00  0.00    +0.145 HD
ENDBRANCH  18  21
ENDBRANCH  14  15
ENDBRANCH   1  14
TORSDOF 7
