REMARK  Name = ZINC39772848
REMARK  13 active torsions:
REMARK  status: ('A' for Active; 'I' for Inactive)
REMARK    1  A    between atoms: C_1  and  C_2
REMARK    2  A    between atoms: C_4  and  N_35
REMARK    3  A    between atoms: C_7  and  N_8
REMARK    4  A    between atoms: C_9  and  C_11
REMARK    5  A    between atoms: C_11  and  S_12
REMARK    6  A    between atoms: S_12  and  C_13
REMARK    7  A    between atoms: C_16  and  CA_21
REMARK    8  A    between atoms: N_17  and  C_18
REMARK    9  A    between atoms: C_18  and  C_19
REMARK   10  A    between atoms: CA_21  and  C_23
REMARK   11  A    between atoms: CA_21  and  N_25
REMARK   12  A    between atoms: C_23  and  O_24
REMARK   13  A    between atoms: C_26  and  C_28
REMARK                            x       y       z     vdW  Elec       q    Type
REMARK                         _______ _______ _______ _____ _____    ______ ____
ROOT
ATOM      1  C   UNL     1      -0.385  -0.118   7.687  0.00  0.00    +0.192 A 
ATOM      2  N   UNL     1      -0.411   1.194   7.715  0.00  0.00    -0.122 NA
ATOM      3  N   UNL     1      -0.509   1.603   8.929  0.00  0.00    -0.131 NA
ATOM      4  C   UNL     1      -0.552   0.585   9.742  0.00  0.00    +0.157 A 
ATOM      5  N   UNL     1      -0.481  -0.548   8.979  0.00  0.00    -0.301 N 
ENDROOT
BRANCH   1   6
ATOM      6  S   UNL     1      -0.260  -1.133   6.252  0.00  0.00    -0.077 S 
BRANCH   6   7
ATOM      7  C   UNL     1      -0.169   0.052   4.882  0.00  0.00    +0.173 C 
BRANCH   7   9
ATOM      8  N   UNL     1       0.025  -0.015   2.417  0.00  0.00    -0.285 N 
ATOM      9  C   UNL     1      -0.057  -0.694   3.578  0.00  0.00    +0.227 C 
ATOM     10  O   UNL     1      -0.040  -1.907   3.573  0.00  0.00    -0.275 OA
ATOM     11  H   UNL     1       0.077   0.954   2.425  0.00  0.00    +0.155 HD
BRANCH   8  18
ATOM     12  C   UNL     1      -1.265   1.183   0.181  0.00  0.00    +0.046 C 
ATOM     13  C   UNL     1      -0.584  -0.158   0.084  0.00  0.00    -0.027 A 
ATOM     14  C   UNL     1      -0.569  -0.841  -1.117  0.00  0.00    +0.038 A 
ATOM     15  C   UNL     1       0.056  -2.071  -1.206  0.00  0.00    +0.127 A 
ATOM     16  C   UNL     1       0.667  -2.622  -0.095  0.00  0.00    +0.034 A 
ATOM     17  C   UNL     1       0.656  -1.944   1.109  0.00  0.00    +0.026 A 
ATOM     18  C   UNL     1       0.034  -0.706   1.201  0.00  0.00    +0.036 A 
BRANCH  15  19
ATOM     19  N   UNL     1       0.070  -2.800  -2.494  0.00  0.00    +0.056 N 
ATOM     20  O   UNL     1      -0.465  -2.320  -3.466  0.00  0.00    -0.126 OA
ATOM     21  O   UNL     1       0.615  -3.876  -2.574  0.00  0.00    -0.126 OA
ENDBRANCH  15  19
ENDBRANCH   8  18
ENDBRANCH   7   9
ENDBRANCH   6   7
ENDBRANCH   1   6
BRANCH   5  22
ATOM     22  C   UNL     1      -0.499  -1.935   9.451  0.00  0.00    +0.152 C 
BRANCH  22  23
ATOM     23  C   UNL     1       0.911  -2.391   9.725  0.00  0.00    -0.013 C 
ATOM     24  C   UNL     1       1.228  -2.873  10.901  0.00  0.00    +0.005 C 
ENDBRANCH  22  23
ENDBRANCH   5  22
BRANCH   4  25
ATOM     25  CA  UNL     1      -0.666   0.645  11.243  0.00  0.00    +0.167 C 
BRANCH  25  26
ATOM     26  N   UNL     1      -1.691   1.623  11.617  0.00  0.00    -0.299 N 
ATOM     27  C   UNL     1      -2.328   1.513  12.799  0.00  0.00    +0.247 C 
ATOM     28  O   UNL     1      -2.051   0.603  13.556  0.00  0.00    -0.270 OA
ATOM     29  H   UNL     1      -1.912   2.349  11.013  0.00  0.00    +0.150 HD
BRANCH  27  30
ATOM     30  C   UNL     1      -3.362   2.498  13.176  0.00  0.00    +0.072 A 
ATOM     31  C   UNL     1      -3.686   3.542  12.306  0.00  0.00    +0.016 A 
ATOM     32  C   UNL     1      -4.652   4.458  12.663  0.00  0.00    +0.001 A 
ATOM     33  C   UNL     1      -5.302   4.347  13.881  0.00  0.00    +0.003 A 
ATOM     34  C   UNL     1      -4.987   3.318  14.749  0.00  0.00    +0.039 A 
ATOM     35  C   UNL     1      -4.025   2.388  14.402  0.00  0.00    +0.135 A 
ATOM     36  F   UNL     1      -3.721   1.379  15.248  0.00  0.00    -0.205 F 
ENDBRANCH  27  30
ENDBRANCH  25  26
BRANCH  25  37
ATOM     37  C   UNL     1       0.679   1.064  11.840  0.00  0.00    +0.186 C 
BRANCH  37  38
ATOM     38  O   UNL     1       1.099   2.296  11.251  0.00  0.00    -0.393 OA
ATOM     39  H   UNL     1       1.947   2.623  11.583  0.00  0.00    +0.209 HD
ENDBRANCH  37  38
ENDBRANCH  25  37
ENDBRANCH   4  25
TORSDOF 12
