REMARK  Name = ZINC06760133
REMARK  8 active torsions:
REMARK  status: ('A' for Active; 'I' for Inactive)
REMARK    1  A    between atoms: C_1  and  C_2
REMARK    2  A    between atoms: C_2  and  C_3
REMARK    3  A    between atoms: C_13  and  C_14
REMARK    4  A    between atoms: C_18  and  N_58
REMARK    5  A    between atoms: C_20  and  C_25
REMARK    6  A    between atoms: C_20  and  C_26
REMARK    7  A    between atoms: C_21  and  C_23
REMARK    8  A    between atoms: C_21  and  C_24
REMARK                            x       y       z     vdW  Elec       q    Type
REMARK                         _______ _______ _______ _____ _____    ______ ____
ROOT
ATOM      1  C   UNL     1       1.152   2.098   0.002  0.00  0.00    -0.030 A 
ATOM      2  C   UNL     1      -0.017   1.406   0.010  0.00  0.00    +0.096 A 
ATOM      3  C   UNL     1       0.002  -0.004   0.002  0.00  0.00    +0.337 A 
ATOM      4  O   UNL     1      -1.053  -0.612   0.009  0.00  0.00    -0.245 OA
ATOM      5  O   UNL     1       1.154  -0.694  -0.014  0.00  0.00    -0.422 OA
ATOM      6  C   UNL     1       2.350  -0.068  -0.022  0.00  0.00    +0.146 A 
ATOM      7  C   UNL     1       2.405   1.339  -0.014  0.00  0.00    +0.021 A 
ATOM      8  C   UNL     1       3.642   1.990  -0.022  0.00  0.00    +0.017 A 
ATOM      9  C   UNL     1       4.798   1.260  -0.039  0.00  0.00    -0.021 A 
ATOM     10  C   UNL     1       4.751  -0.132  -0.045  0.00  0.00    +0.125 A 
ATOM     11  C   UNL     1       3.530  -0.792  -0.038  0.00  0.00    +0.034 A 
ATOM     12  C   UNL     1       3.489  -2.299  -0.046  0.00  0.00    +0.051 C 
ATOM     13  O   UNL     1       5.895  -0.865  -0.058  0.00  0.00    -0.509 OA
ATOM     14  C   UNL     1       7.098  -0.189  -0.430  0.00  0.00    +0.158 C 
ATOM     15  C   UNL     1       6.121   1.984  -0.054  0.00  0.00    -0.034 C 
ATOM     16  N   UNL     1       7.187   1.054   0.364  0.00  0.00    +0.407 N 
ATOM     17  H   UNL     1       7.064   0.827   1.358  0.00  0.00    -0.076 HD
ENDROOT
BRANCH  16  18
ATOM     18  C   UNL     1       8.516   1.684   0.176  0.00  0.00    -0.066 C 
ATOM     19  C   UNL     1       8.531   3.033   0.894  0.00  0.00    -0.028 C 
ATOM     20  C   UNL     1       9.881   3.723   0.712  0.00  0.00    -0.075 C 
ATOM     21  C   UNL     1      10.144   2.574  -1.505  0.00  0.00    -0.075 C 
ATOM     22  C   UNL     1       8.772   1.929  -1.313  0.00  0.00    -0.028 C 
ATOM     23  C   UNL     1      11.242   1.534  -1.266  0.00  0.00    -0.010 C 
ATOM     24  C   UNL     1      10.245   3.020  -2.980  0.00  0.00    -0.010 C 
ATOM     25  C   UNL     1      10.921   3.062   1.624  0.00  0.00    -0.010 C 
ATOM     26  C   UNL     1       9.723   5.185   1.185  0.00  0.00    -0.010 C 
ATOM     27  N   UNL     1      10.361   3.803  -0.694  0.00  0.00    +0.386 N 
ATOM     28  H   UNL     1      11.369   3.998  -0.675  0.00  0.00    -0.084 HD
ATOM     29  H   UNL     1       9.871   4.579  -1.154  0.00  0.00    -0.084 HD
ENDBRANCH  16  18
BRANCH   1  31
ATOM     30  C   UNL     1       1.274   4.122  -1.425  0.00  0.00    +0.009 C 
ATOM     31  C   UNL     1       1.160   3.604   0.011  0.00  0.00    +0.033 C 
ENDBRANCH   1  31
TORSDOF 2
