REMARK  Name = ZINC47149178
REMARK  10 active torsions:
REMARK  status: ('A' for Active; 'I' for Inactive)
REMARK    1  A    between atoms: C_1  and  C_2
REMARK    2  A    between atoms: C_5  and  C_29
REMARK    3  A    between atoms: N_8  and  C_10
REMARK    4  A    between atoms: C_10  and  C_11
REMARK    5  A    between atoms: C_11  and  N_12
REMARK    6  A    between atoms: C_13  and  C_15
REMARK    7  A    between atoms: C_15  and  S_16
REMARK    8  A    between atoms: S_16  and  C_17
REMARK    9  A    between atoms: C_20  and  C_26
REMARK   10  A    between atoms: C_22  and  N_23
REMARK                            x       y       z     vdW  Elec       q    Type
REMARK                         _______ _______ _______ _____ _____    ______ ____
ROOT
ATOM      1  C   UNL     1       4.941  -0.157   6.264  0.00  0.00    +0.170 C 
ENDROOT
BRANCH   1   3
ATOM      2  N   UNL     1       2.927  -0.202   4.830  0.00  0.00    -0.316 N 
ATOM      3  C   UNL     1       4.167   0.278   5.047  0.00  0.00    +0.223 C 
ATOM      4  O   UNL     1       4.661   1.059   4.262  0.00  0.00    -0.275 OA
ATOM      5  H   UNL     1       2.532  -0.827   5.457  0.00  0.00    +0.149 HD
BRANCH   2   6
ATOM      6  C   UNL     1       2.174   0.221   3.646  0.00  0.00    +0.085 C 
BRANCH   6   7
ATOM      7  C   UNL     1       0.807  -0.464   3.639  0.00  0.00    -0.060 C 
BRANCH   7  13
ATOM      8  C   UNL     1      -0.019   1.526   0.010  0.00  0.00    +0.005 C 
ATOM      9  C   UNL     1       0.002  -0.004   0.002  0.00  0.00    -0.031 C 
ATOM     10  C   UNL     1      -1.434  -0.535   0.015  0.00  0.00    +0.003 C 
ATOM     11  C   UNL     1      -2.117  -0.099   1.315  0.00  0.00    -0.031 C 
ATOM     12  C   UNL     1      -1.302  -0.604   2.507  0.00  0.00    -0.076 C 
ATOM     13  N   UNL     1       0.052  -0.040   2.452  0.00  0.00    +0.381 N 
ATOM     14  C   UNL     1       0.740  -0.512   1.242  0.00  0.00    -0.076 C 
ATOM     15  C   UNL     1      -3.528  -0.689   1.373  0.00  0.00    +0.005 C 
ATOM     16  H   UNL     1      -0.004   0.967   2.434  0.00  0.00    -0.082 HD
ENDBRANCH   7  13
ENDBRANCH   6   7
ENDBRANCH   2   6
ENDBRANCH   1   3
BRANCH   1  17
ATOM     17  S   UNL     1       6.563   0.656   6.273  0.00  0.00    -0.114 S 
BRANCH  17  18
ATOM     18  C   UNL     1       7.335   0.052   7.737  0.00  0.00    +0.039 A 
ATOM     19  C   UNL     1       6.661  -0.851   8.556  0.00  0.00    +0.018 A 
ATOM     20  C   UNL     1       7.254  -1.322   9.693  0.00  0.00    +0.014 A 
ATOM     21  C   UNL     1       8.541  -0.898  10.038  0.00  0.00    +0.039 A 
ATOM     22  C   UNL     1       9.220   0.008   9.218  0.00  0.00    +0.047 A 
ATOM     23  C   UNL     1       8.619   0.475   8.071  0.00  0.00    +0.140 A 
BRANCH  21  24
ATOM     24  C   UNL     1       9.181  -1.407  11.266  0.00  0.00    +0.242 C 
ATOM     25  O   UNL     1      10.301  -1.037  11.565  0.00  0.00    -0.270 OA
ATOM     26  N   UNL     1       8.526  -2.280  12.056  0.00  0.00    -0.325 N 
ATOM     27  H   UNL     1       7.633  -2.574  11.817  0.00  0.00    +0.145 HD
ATOM     28  H   UNL     1       8.947  -2.614  12.863  0.00  0.00    +0.145 HD
ENDBRANCH  21  24
BRANCH  23  29
ATOM     29  N   UNL     1       9.335   1.430   7.196  0.00  0.00    +0.058 N 
ATOM     30  O   UNL     1      10.450   1.796   7.486  0.00  0.00    -0.126 OA
ATOM     31  O   UNL     1       8.805   1.844   6.191  0.00  0.00    -0.126 OA
ENDBRANCH  23  29
ENDBRANCH  17  18
ENDBRANCH   1  17
TORSDOF 8
