REMARK  Name = ZINC65897844
REMARK  10 active torsions:
REMARK  status: ('A' for Active; 'I' for Inactive)
REMARK    1  A    between atoms: C_1  and  C_2
REMARK    2  A    between atoms: C_2  and  N_3
REMARK    3  A    between atoms: N_3  and  C_4
REMARK    4  A    between atoms: N_3  and  C_20
REMARK    5  A    between atoms: C_4  and  C_5
REMARK    6  A    between atoms: N_7  and  N_8
REMARK    7  A    between atoms: N_11  and  C_12
REMARK    8  A    between atoms: C_12  and  C_13
REMARK    9  A    between atoms: C_13  and  C_14
REMARK   10  A    between atoms: C_14  and  N_15
REMARK                            x       y       z     vdW  Elec       q    Type
REMARK                         _______ _______ _______ _____ _____    ______ ____
ROOT
ATOM      1  N   UNL     1       3.951  -3.881  -0.297  0.00  0.00    -0.218 N 
ATOM      2  C   UNL     1       5.223  -4.318  -0.208  0.00  0.00    +0.316 C 
ATOM      3  O   UNL     1       5.450  -5.465   0.125  0.00  0.00    -0.251 OA
ATOM      4  N   UNL     1       6.243  -3.482  -0.487  0.00  0.00    -0.298 N 
ATOM      5  H   UNL     1       3.217  -4.482  -0.096  0.00  0.00    +0.174 HD
ATOM      6  H   UNL     1       6.062  -2.567  -0.752  0.00  0.00    +0.150 HD
ENDROOT
BRANCH   1   9
ATOM      7  C   UNL     1       2.417  -2.123  -0.770  0.00  0.00    +0.246 C 
ATOM      8  O   UNL     1       1.499  -2.875  -0.518  0.00  0.00    -0.273 OA
ATOM      9  N   UNL     1       3.689  -2.559  -0.680  0.00  0.00    -0.232 N 
ATOM     10  H   UNL     1       4.423  -1.958  -0.881  0.00  0.00    +0.173 HD
BRANCH   7  11
ATOM     11  C   UNL     1       2.135  -0.701  -1.182  0.00  0.00    +0.202 C 
BRANCH  11  12
ATOM     12  N   UNL     1       0.688  -0.476  -1.203  0.00  0.00    -0.321 N 
BRANCH  12  13
ATOM     13  C   UNL     1      -0.038  -0.713  -2.373  0.00  0.00    +0.030 A 
ATOM     14  C   UNL     1      -1.410  -0.495  -2.396  0.00  0.00    +0.023 A 
ATOM     15  C   UNL     1      -2.125  -0.729  -3.554  0.00  0.00    +0.002 A 
ATOM     16  C   UNL     1      -1.477  -1.180  -4.690  0.00  0.00    +0.000 A 
ATOM     17  C   UNL     1      -0.112  -1.398  -4.670  0.00  0.00    +0.002 A 
ATOM     18  C   UNL     1       0.610  -1.161  -3.517  0.00  0.00    +0.023 A 
ENDBRANCH  12  13
BRANCH  12  20
ATOM     19  C   UNL     1      -0.019   1.526   0.010  0.00  0.00    +0.024 C 
ATOM     20  C   UNL     1       0.002  -0.004   0.002  0.00  0.00    +0.102 C 
ENDBRANCH  12  20
ENDBRANCH  11  12
ENDBRANCH   7  11
ENDBRANCH   1   9
BRANCH   4  21
ATOM     21  C   UNL     1       7.626  -3.957  -0.390  0.00  0.00    +0.107 C 
BRANCH  21  22
ATOM     22  C   UNL     1       8.582  -2.820  -0.756  0.00  0.00    +0.040 C 
BRANCH  22  23
ATOM     23  C   UNL     1      10.026  -3.315  -0.655  0.00  0.00    +0.124 C 
BRANCH  23  24
ATOM     24  N   UNL     1      10.941  -2.227  -1.006  0.00  0.00    -0.338 N 
ATOM     25  C   UNL     1      11.411  -1.932  -2.257  0.00  0.00    +0.104 A 
ATOM     26  C   UNL     1      12.219  -0.862  -2.129  0.00  0.00    +0.101 A 
ATOM     27  N   UNL     1      12.242  -0.513  -0.834  0.00  0.00    -0.352 N 
ATOM     28  C   UNL     1      11.475  -1.323  -0.156  0.00  0.00    +0.173 A 
ATOM     29  H   UNL     1      12.745   0.227  -0.461  0.00  0.00    +0.166 HD
ENDBRANCH  23  24
ENDBRANCH  22  23
ENDBRANCH  21  22
ENDBRANCH   4  21
TORSDOF 9
