REMARK  Name = ZINC08815737
REMARK  8 active torsions:
REMARK  status: ('A' for Active; 'I' for Inactive)
REMARK    1  A    between atoms: C_1  and  C_2
REMARK    2  A    between atoms: C_5  and  N_8
REMARK    3  A    between atoms: C_9  and  C_11
REMARK    4  A    between atoms: C_11  and  N_12
REMARK    5  A    between atoms: C_16  and  C_17
REMARK    6  A    between atoms: C_20  and  C_22
REMARK    7  A    between atoms: C_24  and  C_29
REMARK    8  A    between atoms: C_27  and  C_28
REMARK                            x       y       z     vdW  Elec       q    Type
REMARK                         _______ _______ _______ _____ _____    ______ ____
ROOT
ATOM      1  N   UNL     1      -4.255   0.438  -0.213  0.00  0.00    -0.212 N 
ATOM      2  C   UNL     1      -5.083   0.972   0.706  0.00  0.00    +0.269 C 
ATOM      3  O   UNL     1      -5.048   0.782   1.908  0.00  0.00    -0.268 OA
ATOM      4  C   UNL     1      -6.002   1.800   0.006  0.00  0.00    +0.101 C 
ATOM      5  C   UNL     1      -7.016   2.539   0.544  0.00  0.00    +0.074 C 
ATOM      6  N   UNL     1      -5.659   1.700  -1.348  0.00  0.00    -0.265 N 
ATOM      7  C   UNL     1      -4.603   0.870  -1.437  0.00  0.00    +0.314 C 
ATOM      8  O   UNL     1      -4.045   0.558  -2.472  0.00  0.00    -0.252 OA
ATOM      9  H   UNL     1      -6.102   2.146  -2.086  0.00  0.00    +0.157 HD
ENDROOT
BRANCH   5  10
ATOM     10  C   UNL     1      -7.098   2.711   1.943  0.00  0.00    +0.131 A 
ATOM     11  C   UNL     1      -8.132   3.326   2.627  0.00  0.00    +0.050 A 
ATOM     12  C   UNL     1      -7.804   3.272   3.984  0.00  0.00    +0.050 A 
ATOM     13  C   UNL     1      -6.595   2.644   4.082  0.00  0.00    +0.136 A 
ATOM     14  O   UNL     1      -6.179   2.311   2.847  0.00  0.00    -0.455 OA
BRANCH  13  15
ATOM     15  C   UNL     1      -5.865   2.376   5.337  0.00  0.00    +0.021 A 
ATOM     16  C   UNL     1      -5.655   3.403   6.257  0.00  0.00    +0.027 A 
ATOM     17  C   UNL     1      -4.971   3.139   7.441  0.00  0.00    +0.064 A 
ATOM     18  C   UNL     1      -4.488   1.851   7.694  0.00  0.00    +0.015 A 
ATOM     19  C   UNL     1      -4.694   0.841   6.776  0.00  0.00    +0.005 A 
ATOM     20  C   UNL     1      -5.377   1.093   5.603  0.00  0.00    -0.040 A 
ATOM     21  C   UNL     1      -5.598  -0.016   4.607  0.00  0.00    +0.044 C 
BRANCH  17  22
ATOM     22  C   UNL     1      -4.749   4.218   8.425  0.00  0.00    +0.387 C 
ATOM     23  O   UNL     1      -5.169   5.337   8.205  0.00  0.00    -0.241 OA
ATOM     24  O   UNL     1      -4.081   3.963   9.567  0.00  0.00    -0.241 OA
ENDBRANCH  17  22
ENDBRANCH  13  15
ENDBRANCH   5  10
BRANCH   1  25
ATOM     25  C   UNL     1      -3.150  -0.479   0.076  0.00  0.00    +0.214 C 
BRANCH  25  27
ATOM     26  N   UNL     1      -0.738  -0.325   0.604  0.00  0.00    -0.284 N 
ATOM     27  C   UNL     1      -1.890   0.312   0.317  0.00  0.00    +0.235 C 
ATOM     28  O   UNL     1      -1.914   1.524   0.253  0.00  0.00    -0.274 OA
ATOM     29  H   UNL     1      -0.699  -1.294   0.573  0.00  0.00    +0.155 HD
BRANCH  26  34
ATOM     30  C   UNL     1       3.891   2.658   1.968  0.00  0.00    +0.044 C 
ATOM     31  C   UNL     1       2.661   1.866   1.605  0.00  0.00    -0.050 A 
ATOM     32  C   UNL     1       1.410   2.328   1.970  0.00  0.00    +0.005 A 
ATOM     33  C   UNL     1       0.281   1.605   1.639  0.00  0.00    +0.023 A 
ATOM     34  C   UNL     1       0.404   0.411   0.940  0.00  0.00    +0.033 A 
ATOM     35  C   UNL     1       1.662  -0.054   0.581  0.00  0.00    +0.023 A 
ATOM     36  C   UNL     1       2.787   0.677   0.909  0.00  0.00    +0.005 A 
ENDBRANCH  26  34
ENDBRANCH  25  27
ENDBRANCH   1  25
TORSDOF 6
