REMARK  Name = ZINC19236599
REMARK  10 active torsions:
REMARK  status: ('A' for Active; 'I' for Inactive)
REMARK    1  A    between atoms: C_1  and  C_2
REMARK    2  A    between atoms: C_11  and  C_12
REMARK    3  A    between atoms: C_12  and  C_13
REMARK    4  A    between atoms: C_13  and  C_15
REMARK    5  A    between atoms: C_13  and  N_16
REMARK    6  A    between atoms: C_17  and  C_19
REMARK    7  A    between atoms: C_19  and  C_20
REMARK    8  A    between atoms: N_27  and  C_28
REMARK    9  A    between atoms: C_28  and  C_29
REMARK   10  A    between atoms: C_28  and  C_30
REMARK                            x       y       z     vdW  Elec       q    Type
REMARK                         _______ _______ _______ _____ _____    ______ ____
ROOT
ATOM      1  N   UNL     1      -1.595   1.804  -0.715  0.00  0.00    -0.312 N 
ATOM      2  C   UNL     1      -0.445   1.130  -0.518  0.00  0.00    +0.212 C 
ATOM      3  O   UNL     1      -0.397  -0.063  -0.733  0.00  0.00    -0.276 OA
ATOM      4  H   UNL     1      -1.618   2.898  -0.601  0.00  0.00    +0.149 HD
ENDROOT
BRANCH   1   5
ATOM      5  C   UNL     1      -2.815   1.080  -1.080  0.00  0.00    +0.074 C 
ATOM      6  C   UNL     1      -3.531   0.614   0.190  0.00  0.00    +0.028 C 
BRANCH   5   7
ATOM      7  C   UNL     1      -3.738   2.005  -1.875  0.00  0.00    +0.059 C 
BRANCH   7  18
ATOM      8  C   UNL     1      -1.428   2.576  -7.677  0.00  0.00    +0.046 C 
ATOM      9  C   UNL     1      -2.226   1.810  -6.653  0.00  0.00    -0.027 A 
ATOM     10  C   UNL     1      -2.814   0.611  -6.991  0.00  0.00    +0.005 A 
ATOM     11  C   UNL     1      -3.551  -0.104  -6.058  0.00  0.00    +0.001 A 
ATOM     12  C   UNL     1      -3.706   0.370  -4.785  0.00  0.00    +0.010 A 
ATOM     13  C   UNL     1      -3.115   1.580  -4.420  0.00  0.00    +0.003 A 
ATOM     14  C   UNL     1      -2.372   2.312  -5.364  0.00  0.00    +0.050 A 
ATOM     15  N   UNL     1      -1.920   3.449  -4.733  0.00  0.00    -0.360 N 
ATOM     16  H   UNL     1      -1.306   4.176  -5.283  0.00  0.00    +0.165 HD
ATOM     17  C   UNL     1      -2.353   3.463  -3.435  0.00  0.00    +0.087 A 
ATOM     18  C   UNL     1      -3.083   2.365  -3.183  0.00  0.00    -0.021 A 
ENDBRANCH   7  18
ENDBRANCH   5   7
ENDBRANCH   1   5
BRANCH   2  19
ATOM     19  C   UNL     1       0.783   1.859  -0.038  0.00  0.00    +0.089 C 
BRANCH  19  20
ATOM     20  C   UNL     1       1.907   0.852   0.218  0.00  0.00    +0.028 C 
ATOM     21  C   UNL     1       1.500  -0.080   1.324  0.00  0.00    +0.200 C 
ATOM     22  O   UNL     1       0.949   0.383   2.300  0.00  0.00    -0.278 OA
ATOM     23  N   UNL     1       1.719  -1.398   1.277  0.00  0.00    -0.318 N 
ATOM     24  C   UNL     1       2.341  -2.058   0.133  0.00  0.00    +0.085 C 
ATOM     25  C   UNL     1       3.078  -1.031  -0.729  0.00  0.00    -0.058 C 
ATOM     26  N   UNL     1       2.167   0.090  -1.010  0.00  0.00    +0.390 N 
ATOM     27  H   UNL     1       1.408  -1.989   2.151  0.00  0.00    +0.149 HD
ATOM     28  H   UNL     1       1.213  -0.317  -1.376  0.00  0.00    -0.080 HD
BRANCH  26  29
ATOM     29  C   UNL     1       2.711   0.958  -2.063  0.00  0.00    -0.074 C 
ATOM     30  C   UNL     1       4.142   1.363  -1.702  0.00  0.00    -0.013 C 
ATOM     31  C   UNL     1       2.716   0.204  -3.395  0.00  0.00    -0.013 C 
ENDBRANCH  26  29
ENDBRANCH  19  20
ENDBRANCH   2  19
TORSDOF 6
