REMARK  Name = ZINC37149479
REMARK  6 active torsions:
REMARK  status: ('A' for Active; 'I' for Inactive)
REMARK    1  A    between atoms: C_1  and  C_2
REMARK    2  A    between atoms: C_2  and  C_4
REMARK    3  A    between atoms: C_2  and  N_12
REMARK    4  A    between atoms: N_12  and  C_13
REMARK    5  A    between atoms: C_13  and  C_15
REMARK    6  A    between atoms: C_13  and  C_16
REMARK                            x       y       z     vdW  Elec       q    Type
REMARK                         _______ _______ _______ _____ _____    ______ ____
ROOT
ATOM      1  N   UNL     1      -1.376  -0.512   0.012  0.00  0.00    +0.390 N 
ATOM      2  H   UNL     1      -1.363  -1.518   0.090  0.00  0.00    -0.084 HD
ATOM      3  H   UNL     1      -1.873  -0.121   0.799  0.00  0.00    -0.084 HD
ENDROOT
BRANCH   1   5
ATOM      4  C   UNL     1      -0.019   1.526   0.010  0.00  0.00    -0.009 C 
ATOM      5  C   UNL     1       0.002  -0.004   0.002  0.00  0.00    -0.042 C 
BRANCH   5   6
ATOM      6  C   UNL     1       0.731  -0.503   1.223  0.00  0.00    -0.043 A 
ATOM      7  C   UNL     1       0.017  -0.951   2.319  0.00  0.00    +0.005 A 
ATOM      8  C   UNL     1       0.685  -1.409   3.439  0.00  0.00    +0.020 A 
ATOM      9  C   UNL     1       2.068  -1.420   3.464  0.00  0.00    +0.042 A 
ATOM     10  C   UNL     1       2.783  -0.973   2.367  0.00  0.00    +0.040 A 
ATOM     11  C   UNL     1       2.114  -0.519   1.244  0.00  0.00    +0.044 A 
ATOM     12 CL   UNL     1       3.010   0.037  -0.135  0.00  0.00    -0.083 Cl
ATOM     13 CL   UNL     1       2.907  -1.995   4.871  0.00  0.00    -0.083 Cl
ENDBRANCH   5   6
ENDBRANCH   1   5
BRANCH   1  14
ATOM     14  C   UNL     1      -2.050  -0.126  -1.234  0.00  0.00    -0.005 C 
ATOM     15  C   UNL     1      -1.371  -0.820  -2.417  0.00  0.00    -0.006 C 
BRANCH  14  16
ATOM     16  C   UNL     1      -3.498  -0.540  -1.172  0.00  0.00    +0.119 A 
ATOM     17  N   UNL     1      -3.957  -1.688  -0.753  0.00  0.00    -0.136 NA
ATOM     18  N   UNL     1      -5.240  -1.698  -0.839  0.00  0.00    -0.134 NA
ATOM     19  C   UNL     1      -5.657  -0.556  -1.319  0.00  0.00    +0.133 A 
ATOM     20  N   UNL     1      -4.566   0.212  -1.535  0.00  0.00    -0.316 N 
ATOM     21  C   UNL     1      -4.942   1.529  -2.065  0.00  0.00    +0.125 C 
ATOM     22  C   UNL     1      -6.392   1.373  -2.572  0.00  0.00    +0.029 C 
ATOM     23  C   UNL     1      -6.907   0.202  -1.709  0.00  0.00    +0.078 C 
ENDBRANCH  14  16
ENDBRANCH   1  14
TORSDOF 4
