REMARK  Name = ZINC63281618
REMARK  5 active torsions:
REMARK  status: ('A' for Active; 'I' for Inactive)
REMARK    1  A    between atoms: C_1  and  O_2
REMARK    2  A    between atoms: O_2  and  C_3
REMARK    3  A    between atoms: C_6  and  C_9
REMARK    4  A    between atoms: C_9  and  C_10
REMARK    5  A    between atoms: C_13  and  C_20
REMARK                            x       y       z     vdW  Elec       q    Type
REMARK                         _______ _______ _______ _____ _____    ______ ____
ROOT
ATOM      1  C   UNL     1       1.592  -2.804   5.414  0.00  0.00    +0.099 C 
ATOM      2  N   UNL     1       0.333  -2.515   5.432  0.00  0.00    -0.178 NA
ATOM      3  N   UNL     1      -0.480  -2.748   6.520  0.00  0.00    -0.206 N 
ATOM      4  C   UNL     1      -1.751  -2.367   7.178  0.00  0.00    +0.202 C 
ATOM      5  N   UNL     1      -1.454  -2.349   8.631  0.00  0.00    -0.231 NA
ATOM      6  N   UNL     1      -0.067  -2.824   8.781  0.00  0.00    -0.224 NA
ATOM      7  C   UNL     1       0.139  -3.630   7.561  0.00  0.00    +0.240 C 
ATOM      8  S   UNL     1       1.880  -3.581   6.997  0.00  0.00    -0.067 S 
ATOM      9  H   UNL     1      -2.095  -2.939   9.139  0.00  0.00    +0.143 HD
ATOM     10  H   UNL     1       0.033  -3.390   9.610  0.00  0.00    +0.144 HD
ENDROOT
BRANCH   4  11
ATOM     11  C   UNL     1      -2.837  -3.400   6.871  0.00  0.00    +0.141 C 
ATOM     12  C   UNL     1      -3.025  -3.530   5.376  0.00  0.00    +0.010 C 
ATOM     13  C   UNL     1      -4.307  -3.179   5.127  0.00  0.00    -0.004 A 
ATOM     14  C   UNL     1      -5.094  -3.097   3.890  0.00  0.00    +0.010 A 
ATOM     15  C   UNL     1      -6.386  -2.703   3.959  0.00  0.00    +0.001 A 
ATOM     16  C   UNL     1      -6.990  -2.370   5.179  0.00  0.00    +0.002 A 
ATOM     17  C   UNL     1      -6.333  -2.421   6.357  0.00  0.00    +0.026 A 
ATOM     18  C   UNL     1      -4.969  -2.822   6.402  0.00  0.00    +0.043 A 
ATOM     19  N   UNL     1      -4.129  -2.950   7.402  0.00  0.00    -0.375 N 
ATOM     20  H   UNL     1      -4.327  -2.775   8.335  0.00  0.00    +0.160 HD
ENDBRANCH   4  11
BRANCH   1  21
ATOM     21  C   UNL     1       2.587  -2.550   4.310  0.00  0.00    +0.099 C 
BRANCH  21  25
ATOM     22  C   UNL     1       0.626  -0.618   1.042  0.00  0.00    +0.120 A 
ATOM     23  C   UNL     1       1.202   0.138   2.051  0.00  0.00    +0.046 A 
ATOM     24  C   UNL     1       1.835  -0.488   3.107  0.00  0.00    +0.007 A 
ATOM     25  C   UNL     1       1.895  -1.869   3.158  0.00  0.00    -0.041 A 
ATOM     26  C   UNL     1       1.322  -2.625   2.152  0.00  0.00    +0.007 A 
ATOM     27  C   UNL     1       0.682  -2.003   1.098  0.00  0.00    +0.046 A 
BRANCH  22  29
ATOM     28  C   UNL     1      -0.017   1.425   0.010  0.00  0.00    +0.277 C 
ATOM     29  O   UNL     1       0.002  -0.004   0.002  0.00  0.00    -0.495 OA
ENDBRANCH  22  29
ENDBRANCH  21  25
ENDBRANCH   1  21
TORSDOF 4
