REMARK  Name = ZINC23080007
REMARK  14 active torsions:
REMARK  status: ('A' for Active; 'I' for Inactive)
REMARK    1  A    between atoms: C_1  and  O_2
REMARK    2  A    between atoms: O_2  and  C_3
REMARK    3  A    between atoms: C_3  and  C_4
REMARK    4  A    between atoms: C_4  and  N_5
REMARK    5  A    between atoms: N_5  and  C_6
REMARK    6  A    between atoms: C_7  and  N_22
REMARK    7  A    between atoms: N_8  and  C_15
REMARK    8  A    between atoms: C_15  and  C_16
REMARK    9  A    between atoms: C_23  and  C_25
REMARK   10  A    between atoms: C_25  and  O_26
REMARK   11  A    between atoms: O_26  and  C_27
REMARK   12  A    between atoms: C_27  and  C_29
REMARK   13  A    between atoms: C_29  and  C_30
REMARK   14  A    between atoms: C_30  and  C_31
REMARK                            x       y       z     vdW  Elec       q    Type
REMARK                         _______ _______ _______ _____ _____    ______ ____
ROOT
ATOM      1  N   UNL     1      -0.520  -2.553   1.255  0.00  0.00    -0.259 N 
ATOM      2  C   UNL     1       0.813  -2.752   1.321  0.00  0.00    +0.258 C 
ATOM      3  O   UNL     1       1.310  -3.203   2.332  0.00  0.00    -0.272 OA
ENDROOT
BRANCH   1   4
ATOM      4  C   UNL     1      -1.324  -2.778   2.392  0.00  0.00    +0.140 A 
ATOM      5  C   UNL     1      -2.265  -3.787   2.398  0.00  0.00    +0.128 A 
ATOM      6  N   UNL     1      -3.034  -3.981   3.522  0.00  0.00    -0.276 N 
ATOM      7  C   UNL     1      -2.871  -3.196   4.603  0.00  0.00    +0.331 A 
ATOM      8  O   UNL     1      -3.561  -3.383   5.586  0.00  0.00    -0.246 OA
ATOM      9  N   UNL     1      -1.959  -2.208   4.615  0.00  0.00    -0.273 N 
ATOM     10  H   UNL     1      -1.860  -1.656   5.406  0.00  0.00    +0.173 HD
ATOM     11  C   UNL     1      -1.176  -1.980   3.542  0.00  0.00    +0.277 A 
ATOM     12  O   UNL     1      -0.348  -1.084   3.566  0.00  0.00    -0.266 OA
BRANCH   5  13
ATOM     13  N   UNL     1      -2.433  -4.588   1.295  0.00  0.00    -0.343 N 
ATOM     14  H   UNL     1      -1.938  -4.403   0.481  0.00  0.00    +0.144 HD
ATOM     15  H   UNL     1      -3.045  -5.339   1.329  0.00  0.00    +0.144 HD
ENDBRANCH   5  13
BRANCH   6  16
ATOM     16  C   UNL     1      -4.037  -5.048   3.543  0.00  0.00    +0.163 C 
BRANCH  16  17
ATOM     17  C   UNL     1      -3.409  -6.318   4.059  0.00  0.00    -0.028 A 
ATOM     18  C   UNL     1      -2.815  -7.202   3.178  0.00  0.00    +0.005 A 
ATOM     19  C   UNL     1      -2.239  -8.366   3.652  0.00  0.00    +0.000 A 
ATOM     20  C   UNL     1      -2.257  -8.646   5.005  0.00  0.00    +0.000 A 
ATOM     21  C   UNL     1      -2.851  -7.761   5.886  0.00  0.00    +0.000 A 
ATOM     22  C   UNL     1      -3.423  -6.595   5.413  0.00  0.00    +0.005 A 
ENDBRANCH  16  17
ENDBRANCH   6  16
ENDBRANCH   1   4
BRANCH   1  23
ATOM     23  C   UNL     1      -1.132  -2.104   0.002  0.00  0.00    +0.142 C 
BRANCH  23  24
ATOM     24  C   UNL     1      -1.301  -0.584   0.033  0.00  0.00    +0.178 C 
BRANCH  24  26
ATOM     25  C   UNL     1      -0.060   1.465   0.100  0.00  0.00    +0.194 C 
ATOM     26  O   UNL     1      -0.015   0.037   0.069  0.00  0.00    -0.381 OA
ENDBRANCH  24  26
ENDBRANCH  23  24
ENDBRANCH   1  23
BRANCH   2  27
ATOM     27  C   UNL     1       1.685  -2.415   0.139  0.00  0.00    +0.328 C 
BRANCH  27  28
ATOM     28  O   UNL     1       3.047  -2.712   0.452  0.00  0.00    -0.455 OA
BRANCH  28  29
ATOM     29  C   UNL     1       3.959  -2.467  -0.503  0.00  0.00    +0.308 C 
ATOM     30  O   UNL     1       3.612  -2.015  -1.568  0.00  0.00    -0.251 OA
BRANCH  29  31
ATOM     31  C   UNL     1       5.415  -2.755  -0.245  0.00  0.00    +0.125 C 
BRANCH  31  32
ATOM     32  C   UNL     1       6.235  -2.389  -1.484  0.00  0.00    +0.048 C 
BRANCH  32  33
ATOM     33  C   UNL     1       7.691  -2.678  -1.227  0.00  0.00    -0.022 A 
ATOM     34  C   UNL     1       8.613  -1.804  -0.791  0.00  0.00    +0.087 A 
ATOM     35  N   UNL     1       9.826  -2.426  -0.675  0.00  0.00    -0.360 N 
ATOM     36  H   UNL     1      10.645  -1.999  -0.378  0.00  0.00    +0.165 HD
ATOM     37  C   UNL     1       9.712  -3.748  -1.043  0.00  0.00    +0.047 A 
ATOM     38  C   UNL     1       8.368  -3.965  -1.398  0.00  0.00    +0.003 A 
ATOM     39  C   UNL     1       7.954  -5.232  -1.813  0.00  0.00    +0.010 A 
ATOM     40  C   UNL     1       8.856  -6.257  -1.868  0.00  0.00    +0.001 A 
ATOM     41  C   UNL     1      10.181  -6.049  -1.514  0.00  0.00    +0.002 A 
ATOM     42  C   UNL     1      10.614  -4.804  -1.111  0.00  0.00    +0.026 A 
ENDBRANCH  32  33
ENDBRANCH  31  32
ENDBRANCH  29  31
ENDBRANCH  28  29
ENDBRANCH  27  28
ENDBRANCH   2  27
TORSDOF 13
