REMARK  Name = ZINC63908894
REMARK  8 active torsions:
REMARK  status: ('A' for Active; 'I' for Inactive)
REMARK    1  A    between atoms: C_1  and  C_2
REMARK    2  A    between atoms: C_4  and  N_10
REMARK    3  A    between atoms: C_5  and  C_9
REMARK    4  A    between atoms: N_7  and  C_8
REMARK    5  A    between atoms: C_11  and  C_13
REMARK    6  A    between atoms: C_13  and  C_14
REMARK    7  A    between atoms: C_14  and  C_15
REMARK    8  A    between atoms: C_15  and  C_16
REMARK                            x       y       z     vdW  Elec       q    Type
REMARK                         _______ _______ _______ _____ _____    ______ ____
ROOT
ATOM      1  N   UNL     1      -2.420  -0.362  -0.887  0.00  0.00    -0.286 N 
ATOM      2  C   UNL     1      -3.597  -1.004  -0.756  0.00  0.00    +0.217 C 
ATOM      3  O   UNL     1      -3.812  -1.682   0.227  0.00  0.00    -0.275 OA
ATOM      4  H   UNL     1      -2.275   0.238  -1.636  0.00  0.00    +0.155 HD
ENDROOT
BRANCH   1   7
ATOM      5  C   UNL     1      -0.116  -2.542  -0.754  0.00  0.00    +0.032 C 
ATOM      6  C   UNL     1      -0.786  -1.883   0.453  0.00  0.00    +0.118 C 
ATOM      7  C   UNL     1      -1.404  -0.560   0.057  0.00  0.00    +0.047 C 
ATOM      8  C   UNL     1      -0.802   0.374   0.775  0.00  0.00    +0.034 C 
ATOM      9  N   UNL     1       0.160  -0.172   1.616  0.00  0.00    -0.280 N 
ATOM     10  N   UNL     1       0.221  -1.531   1.474  0.00  0.00    -0.224 NA
ATOM     11  C   UNL     1       1.563  -1.958   1.058  0.00  0.00    +0.128 C 
ATOM     12  C   UNL     1      -1.118   1.845   0.690  0.00  0.00    +0.063 C 
ATOM     13  H   UNL     1       0.714   0.342   2.224  0.00  0.00    +0.166 HD
ENDBRANCH   1   7
BRANCH   2  14
ATOM     14  C   UNL     1      -4.647  -0.881  -1.830  0.00  0.00    +0.096 C 
BRANCH  14  15
ATOM     15  C   UNL     1      -5.877  -1.701  -1.437  0.00  0.00    +0.014 C 
BRANCH  15  16
ATOM     16  C   UNL     1      -6.943  -1.576  -2.528  0.00  0.00    +0.033 C 
BRANCH  16  17
ATOM     17  C   UNL     1      -8.155  -2.384  -2.141  0.00  0.00    -0.042 C 
ATOM     18  C   UNL     1      -9.266  -1.934  -1.515  0.00  0.00    -0.001 A 
ATOM     19  C   UNL     1      -9.664  -0.609  -1.025  0.00  0.00    +0.010 A 
ATOM     20  C   UNL     1     -10.867  -0.465  -0.425  0.00  0.00    +0.001 A 
ATOM     21  C   UNL     1     -11.742  -1.548  -0.260  0.00  0.00    +0.002 A 
ATOM     22  C   UNL     1     -11.447  -2.795  -0.683  0.00  0.00    +0.026 A 
ATOM     23  C   UNL     1     -10.208  -3.061  -1.329  0.00  0.00    +0.043 A 
ATOM     24  N   UNL     1      -9.699  -4.164  -1.820  0.00  0.00    -0.380 N 
ATOM     25  C   UNL     1      -8.377  -3.861  -2.380  0.00  0.00    +0.144 C 
ATOM     26  H   UNL     1     -10.126  -5.035  -1.817  0.00  0.00    +0.160 HD
ENDBRANCH  16  17
ENDBRANCH  15  16
ENDBRANCH  14  15
ENDBRANCH   2  14
TORSDOF 5
