REMARK  Name = ZINC66233756
REMARK  9 active torsions:
REMARK  status: ('A' for Active; 'I' for Inactive)
REMARK    1  A    between atoms: C_1  and  C_2
REMARK    2  A    between atoms: C_2  and  C_4
REMARK    3  A    between atoms: C_2  and  N_18
REMARK    4  A    between atoms: C_7  and  N_11
REMARK    5  A    between atoms: N_14  and  C_17
REMARK    6  A    between atoms: N_21  and  C_22
REMARK    7  A    between atoms: C_22  and  C_23
REMARK    8  A    between atoms: C_23  and  C_24
REMARK    9  A    between atoms: N_28  and  C_29
REMARK                            x       y       z     vdW  Elec       q    Type
REMARK                         _______ _______ _______ _____ _____    ______ ____
ROOT
ATOM      1  C   UNL     1      -0.019   1.526   0.010  0.00  0.00    +0.033 C 
ATOM      2  C   UNL     1       0.002  -0.004   0.002  0.00  0.00    +0.102 C 
ENDROOT
BRANCH   2   3
ATOM      3  C   UNL     1       0.707  -0.490  -1.238  0.00  0.00    -0.025 A 
ATOM      4  C   UNL     1       2.089  -0.510  -1.282  0.00  0.00    +0.007 A 
ATOM      5  C   UNL     1       2.740  -0.954  -2.417  0.00  0.00    +0.026 A 
ATOM      6  C   UNL     1       2.005  -1.382  -3.514  0.00  0.00    +0.065 A 
ATOM      7  C   UNL     1       0.616  -1.361  -3.468  0.00  0.00    +0.145 A 
ATOM      8  C   UNL     1      -0.029  -0.920  -2.326  0.00  0.00    +0.045 A 
ATOM      9  F   UNL     1      -0.104  -1.776  -4.533  0.00  0.00    -0.204 F 
BRANCH   6  10
ATOM     10  N   UNL     1       2.661  -1.832  -4.665  0.00  0.00    -0.331 N 
ATOM     11  C   UNL     1       3.023  -0.899  -5.743  0.00  0.00    +0.086 C 
ATOM     12  C   UNL     1       4.502  -1.105  -6.088  0.00  0.00    -0.060 C 
ATOM     13  N   UNL     1       4.737  -2.519  -6.406  0.00  0.00    +0.380 N 
ATOM     14  C   UNL     1       4.489  -3.347  -5.219  0.00  0.00    -0.060 C 
ATOM     15  C   UNL     1       3.015  -3.251  -4.828  0.00  0.00    +0.086 C 
ATOM     16  C   UNL     1       6.128  -2.696  -6.843  0.00  0.00    -0.096 C 
ATOM     17  H   UNL     1       4.115  -2.803  -7.148  0.00  0.00    -0.082 HD
ENDBRANCH   6  10
ENDBRANCH   2   3
BRANCH   2  18
ATOM     18  N   UNL     1       0.711  -0.489   1.189  0.00  0.00    -0.293 N 
ATOM     19  C   UNL     1       0.051  -0.633   2.355  0.00  0.00    +0.300 C 
ATOM     20  O   UNL     1      -1.132  -0.361   2.423  0.00  0.00    -0.253 OA
ATOM     21  N   UNL     1       0.703  -1.080   3.447  0.00  0.00    -0.299 N 
ATOM     22  H   UNL     1       1.654  -0.707   1.135  0.00  0.00    +0.151 HD
ATOM     23  H   UNL     1       1.647  -1.298   3.394  0.00  0.00    +0.150 HD
BRANCH  21  24
ATOM     24  C   UNL     1      -0.014  -1.237   4.715  0.00  0.00    +0.113 C 
BRANCH  24  25
ATOM     25  C   UNL     1       0.950  -1.754   5.785  0.00  0.00    +0.091 C 
BRANCH  25  26
ATOM     26  C   UNL     1       0.212  -1.915   7.090  0.00  0.00    +0.088 A 
ATOM     27  N   UNL     1      -0.477  -2.963   7.449  0.00  0.00    -0.350 N 
ATOM     28  C   UNL     1      -0.993  -2.756   8.670  0.00  0.00    +0.101 A 
ATOM     29  C   UNL     1      -0.609  -1.533   9.082  0.00  0.00    +0.104 A 
ATOM     30  N   UNL     1       0.160  -1.001   8.082  0.00  0.00    -0.339 N 
ATOM     31  C   UNL     1       0.804   0.315   8.087  0.00  0.00    +0.150 C 
ATOM     32  H   UNL     1      -0.597  -3.765   6.918  0.00  0.00    +0.166 HD
ENDBRANCH  25  26
ENDBRANCH  24  25
ENDBRANCH  21  24
ENDBRANCH   2  18
TORSDOF 6
