REMARK  Name = ZINC62180175
REMARK  9 active torsions:
REMARK  status: ('A' for Active; 'I' for Inactive)
REMARK    1  A    between atoms: C_1  and  C_2
REMARK    2  A    between atoms: C_2  and  C_3
REMARK    3  A    between atoms: C_3  and  C_4
REMARK    4  A    between atoms: C_4  and  N_5
REMARK    5  A    between atoms: N_5  and  C_6
REMARK    6  A    between atoms: N_5  and  C_7
REMARK    7  A    between atoms: C_9  and  O_22
REMARK    8  A    between atoms: C_18  and  C_19
REMARK    9  A    between atoms: C_18  and  C_20
REMARK                            x       y       z     vdW  Elec       q    Type
REMARK                         _______ _______ _______ _____ _____    ______ ____
ROOT
ATOM      1  C   UNL     1      -2.886  -4.037   0.081  0.00  0.00    +0.009 C 
ATOM      2  C   UNL     1      -4.357  -4.455   0.148  0.00  0.00    +0.138 C 
ATOM      3  C   UNL     1      -5.015  -4.214  -1.188  0.00  0.00    +0.023 A 
ATOM      4  C   UNL     1      -6.398  -4.164  -1.250  0.00  0.00    +0.010 A 
ATOM      5  C   UNL     1      -7.034  -3.948  -2.457  0.00  0.00    +0.002 A 
ATOM      6  C   UNL     1      -6.290  -3.781  -3.610  0.00  0.00    +0.024 A 
ATOM      7  C   UNL     1      -4.912  -3.829  -3.554  0.00  0.00    +0.083 A 
ATOM      8  C   UNL     1      -4.267  -4.044  -2.339  0.00  0.00    +0.145 A 
ATOM      9  O   UNL     1      -2.909  -4.074  -2.322  0.00  0.00    -0.486 OA
ATOM     10  C   UNL     1      -2.267  -4.649  -1.182  0.00  0.00    +0.096 C 
ATOM     11  C   UNL     1      -0.769  -4.342  -1.222  0.00  0.00    +0.054 C 
ATOM     12  C   UNL     1      -2.483  -6.164  -1.179  0.00  0.00    +0.054 C 
ATOM     13 CL   UNL     1      -3.979  -3.620  -5.004  0.00  0.00    -0.080 Cl
ENDROOT
BRANCH   1  14
ATOM     14  N   UNL     1      -2.791  -2.572   0.019  0.00  0.00    +0.384 N 
ATOM     15  C   UNL     1      -3.685  -2.067  -1.030  0.00  0.00    -0.095 C 
ATOM     16  H   UNL     1      -1.841  -2.306  -0.192  0.00  0.00    -0.082 HD
BRANCH  14  17
ATOM     17  C   UNL     1      -3.183  -2.001   1.314  0.00  0.00    -0.079 C 
BRANCH  17  18
ATOM     18  C   UNL     1      -2.932  -0.491   1.303  0.00  0.00    -0.019 C 
BRANCH  18  20
ATOM     19  C   UNL     1      -3.090   1.613   2.640  0.00  0.00    +0.004 C 
ATOM     20  C   UNL     1      -3.341   0.104   2.652  0.00  0.00    -0.005 C 
ENDBRANCH  18  20
ENDBRANCH  17  18
ENDBRANCH  14  17
ENDBRANCH   1  14
BRANCH   2  21
ATOM     21  O   UNL     1      -4.442  -5.843   0.475  0.00  0.00    -0.389 OA
ATOM     22  H   UNL     1      -5.348  -6.179   0.534  0.00  0.00    +0.210 HD
ENDBRANCH   2  21
TORSDOF 5
