REMARK  Name = ZINC65513318
REMARK  5 active torsions:
REMARK  status: ('A' for Active; 'I' for Inactive)
REMARK    1  A    between atoms: C_1  and  C_2
REMARK    2  A    between atoms: C_2  and  N_3
REMARK    3  A    between atoms: C_8  and  N_12
REMARK    4  A    between atoms: C_18  and  N_22
REMARK    5  A    between atoms: C_19  and  C_20
REMARK                            x       y       z     vdW  Elec       q    Type
REMARK                         _______ _______ _______ _____ _____    ______ ____
ROOT
ATOM      1  N   UNL     1       1.973  -4.529  -1.356  0.00  0.00    -0.310 N 
ATOM      2  C   UNL     1       0.829  -5.362  -0.956  0.00  0.00    +0.111 C 
ATOM      3  C   UNL     1       1.224  -6.840  -1.018  0.00  0.00    +0.056 C 
ATOM      4  C   UNL     1       2.565  -7.027  -0.324  0.00  0.00    -0.015 A 
ATOM      5  C   UNL     1       3.405  -5.990  -0.114  0.00  0.00    +0.013 A 
ATOM      6  S   UNL     1       4.802  -6.699   0.705  0.00  0.00    -0.076 S 
ATOM      7  C   UNL     1       4.308  -8.302   0.778  0.00  0.00    +0.081 A 
ATOM      8  C   UNL     1       3.063  -8.301   0.170  0.00  0.00    +0.083 A 
ATOM      9  C   UNL     1       3.177  -4.564  -0.501  0.00  0.00    +0.149 C 
ENDROOT
BRANCH   1  15
ATOM     10  N   UNL     1       0.783  -0.450  -1.191  0.00  0.00    +0.383 N 
ATOM     11  C   UNL     1      -0.007  -0.058  -2.369  0.00  0.00    -0.072 C 
ATOM     12  C   UNL     1       0.830  -0.304  -3.625  0.00  0.00    +0.037 C 
ATOM     13  C   UNL     1       1.377  -1.707  -3.603  0.00  0.00    +0.046 A 
ATOM     14  C   UNL     1       1.400  -2.449  -2.446  0.00  0.00    -0.003 A 
ATOM     15  C   UNL     1       1.926  -3.744  -2.497  0.00  0.00    +0.126 A 
ATOM     16  N   UNL     1       2.379  -4.209  -3.656  0.00  0.00    -0.221 NA
ATOM     17  C   UNL     1       2.336  -3.464  -4.742  0.00  0.00    +0.223 A 
ATOM     18  N   UNL     1       1.848  -2.240  -4.725  0.00  0.00    -0.240 NA
ATOM     19  C   UNL     1       0.877  -1.913  -1.143  0.00  0.00    -0.038 C 
ATOM     20  H   UNL     1       1.708  -0.054  -1.257  0.00  0.00    -0.081 HD
BRANCH  10  22
ATOM     21  C   UNL     1       0.138   1.570   0.034  0.00  0.00    -0.017 C 
ATOM     22  C   UNL     1       0.124   0.040   0.027  0.00  0.00    -0.082 C 
ENDBRANCH  10  22
ENDBRANCH   1  15
BRANCH   7  23
ATOM     23  N   UNL     1       4.988  -9.378   1.321  0.00  0.00    -0.352 N 
ATOM     24  H   UNL     1       5.862  -9.248   1.722  0.00  0.00    +0.143 HD
ATOM     25  H   UNL     1       4.592 -10.263   1.300  0.00  0.00    +0.143 HD
ENDBRANCH   7  23
BRANCH   8  26
ATOM     26  C   UNL     1       2.298  -9.504   0.033  0.00  0.00    +0.102 C 
ATOM     27  N   UNL     1       1.691 -10.458  -0.076  0.00  0.00    -0.191 NA
ENDBRANCH   8  26
TORSDOF 4
