REMARK  Name = ZINC34740233
REMARK  10 active torsions:
REMARK  status: ('A' for Active; 'I' for Inactive)
REMARK    1  A    between atoms: C_1  and  C_2
REMARK    2  A    between atoms: C_5  and  C_8
REMARK    3  A    between atoms: C_13  and  C_15
REMARK    4  A    between atoms: C_15  and  N_16
REMARK    5  A    between atoms: N_16  and  C_17
REMARK    6  A    between atoms: C_17  and  C_18
REMARK    7  A    between atoms: C_17  and  C_19
REMARK    8  A    between atoms: C_20  and  C_22
REMARK    9  A    between atoms: C_22  and  C_23
REMARK   10  A    between atoms: C_22  and  C_24
REMARK                            x       y       z     vdW  Elec       q    Type
REMARK                         _______ _______ _______ _____ _____    ______ ____
ROOT
ATOM      1  C   UNL     1      -0.236  -2.599   1.794  0.00  0.00    +0.005 C 
ATOM      2  C   UNL     1       0.738  -2.325   2.960  0.00  0.00    -0.074 C 
ATOM      3  N   UNL     1       0.626  -3.523   3.831  0.00  0.00    +0.380 N 
ATOM      4  C   UNL     1      -0.823  -3.851   3.816  0.00  0.00    -0.077 C 
ATOM      5  C   UNL     1      -1.263  -3.604   2.354  0.00  0.00    -0.005 C 
ATOM      6  H   UNL     1       1.164  -4.287   3.451  0.00  0.00    -0.086 HD
ATOM      7  H   UNL     1       0.929  -3.307   4.769  0.00  0.00    -0.086 HD
ENDROOT
BRANCH   1  12
ATOM      8  C   UNL     1      -2.877   2.285   0.191  0.00  0.00    +0.044 C 
ATOM      9  C   UNL     1      -2.188   1.011   0.609  0.00  0.00    -0.050 A 
ATOM     10  C   UNL     1      -1.652   0.169  -0.347  0.00  0.00    +0.003 A 
ATOM     11  C   UNL     1      -1.020  -0.999   0.036  0.00  0.00    +0.004 A 
ATOM     12  C   UNL     1      -0.924  -1.325   1.376  0.00  0.00    -0.046 A 
ATOM     13  C   UNL     1      -1.459  -0.483   2.333  0.00  0.00    +0.004 A 
ATOM     14  C   UNL     1      -2.087   0.688   1.949  0.00  0.00    +0.003 A 
ENDBRANCH   1  12
BRANCH   5  15
ATOM     15  C   UNL     1      -2.670  -3.003   2.316  0.00  0.00    +0.110 C 
BRANCH  15  16
ATOM     16  N   UNL     1      -3.653  -4.039   2.640  0.00  0.00    -0.299 N 
ATOM     17  C   UNL     1      -4.255  -4.730   1.652  0.00  0.00    +0.218 C 
ATOM     18  O   UNL     1      -5.149  -5.507   1.913  0.00  0.00    -0.275 OA
BRANCH  16  19
ATOM     19  C   UNL     1      -3.981  -4.325   4.039  0.00  0.00    +0.070 C 
ATOM     20  C   UNL     1      -5.462  -4.033   4.286  0.00  0.00    +0.028 C 
ATOM     21  C   UNL     1      -3.695  -5.798   4.339  0.00  0.00    +0.028 C 
ENDBRANCH  16  19
BRANCH  17  22
ATOM     22  C   UNL     1      -3.818  -4.536   0.223  0.00  0.00    +0.069 C 
ATOM     23  C   UNL     1      -2.889  -5.680  -0.186  0.00  0.00    +0.017 C 
ATOM     24  C   UNL     1      -5.047  -4.526  -0.689  0.00  0.00    +0.017 C 
ENDBRANCH  17  22
ENDBRANCH  15  16
ENDBRANCH   5  15
TORSDOF 5
