REMARK  Name = ZINC37996489
REMARK  2 active torsions:
REMARK  status: ('A' for Active; 'I' for Inactive)
REMARK    1  A    between atoms: C_5  and  C_8
REMARK    2  A    between atoms: C_15  and  C_17
REMARK                            x       y       z     vdW  Elec       q    Type
REMARK                         _______ _______ _______ _____ _____    ______ ____
ROOT
ATOM      1  C   UNL     1       0.909  -2.043   1.655  0.00  0.00    +0.202 C 
ATOM      2  O   UNL     1       1.948  -2.638   1.463  0.00  0.00    -0.277 OA
ATOM      3  N   UNL     1      -0.263  -2.708   1.629  0.00  0.00    -0.291 N 
ATOM      4  C   UNL     1      -1.537  -1.984   1.747  0.00  0.00    +0.108 C 
ATOM      5  C   UNL     1      -2.433  -2.367   0.566  0.00  0.00    +0.019 C 
ATOM      6  C   UNL     1      -2.578  -3.890   0.513  0.00  0.00    +0.004 C 
ATOM      7  C   UNL     1      -1.203  -4.527   0.302  0.00  0.00    +0.032 C 
ATOM      8  C   UNL     1      -0.292  -4.168   1.475  0.00  0.00    +0.162 C 
ENDROOT
BRANCH   1  13
ATOM      9  C   UNL     1       0.491   1.696   0.946  0.00  0.00    -0.003 C 
ATOM     10  C   UNL     1       1.901   2.104   1.383  0.00  0.00    -0.019 C 
ATOM     11  C   UNL     1       2.307   1.284   2.610  0.00  0.00    -0.082 C 
ATOM     12  N   UNL     1       2.292  -0.145   2.274  0.00  0.00    +0.387 N 
ATOM     13  C   UNL     1       0.928  -0.560   1.923  0.00  0.00    +0.016 C 
ATOM     14  C   UNL     1       0.470   0.189   0.670  0.00  0.00    -0.007 C 
ATOM     15  H   UNL     1       2.905  -0.311   1.490  0.00  0.00    -0.085 HD
ATOM     16  H   UNL     1       2.611  -0.679   3.068  0.00  0.00    -0.085 HD
ENDBRANCH   1  13
BRANCH   8  17
ATOM     17  C   UNL     1       1.101  -4.676   1.204  0.00  0.00    +0.231 C 
ATOM     18  O   UNL     1       1.664  -4.378   0.172  0.00  0.00    -0.274 OA
ATOM     19  N   UNL     1       1.720  -5.460   2.108  0.00  0.00    -0.328 N 
ATOM     20  H   UNL     1       1.269  -5.698   2.933  0.00  0.00    +0.145 HD
ATOM     21  H   UNL     1       2.616  -5.786   1.934  0.00  0.00    +0.145 HD
ENDBRANCH   8  17
TORSDOF 2
