REMARK  Name = ZINC42027469
REMARK  4 active torsions:
REMARK  status: ('A' for Active; 'I' for Inactive)
REMARK    1  A    between atoms: C_5  and  N_7
REMARK    2  A    between atoms: C_8  and  C_12
REMARK    3  A    between atoms: C_15  and  N_19
REMARK    4  A    between atoms: C_17  and  N_18
REMARK                            x       y       z     vdW  Elec       q    Type
REMARK                         _______ _______ _______ _____ _____    ______ ____
ROOT
ATOM      1  N   UNL     1       1.230  -2.109  -0.089  0.00  0.00    -0.192 N 
ATOM      2  C   UNL     1       0.164  -2.949   0.057  0.00  0.00    +0.189 A 
ATOM      3  N   UNL     1       0.642  -4.177   0.046  0.00  0.00    -0.108 NA
ATOM      4  N   UNL     1       1.918  -4.163  -0.094  0.00  0.00    -0.022 NA
ATOM      5  N   UNL     1       2.350  -2.953  -0.189  0.00  0.00    -0.039 NA
ENDROOT
BRANCH   1  10
ATOM      6  C   UNL     1       0.498   1.391   0.777  0.00  0.00    +0.002 A 
ATOM      7  C   UNL     1       1.174   2.058  -0.229  0.00  0.00    +0.001 A 
ATOM      8  C   UNL     1       1.869   1.345  -1.189  0.00  0.00    +0.017 A 
ATOM      9  C   UNL     1       1.890  -0.036  -1.146  0.00  0.00    +0.043 A 
ATOM     10  C   UNL     1       1.212  -0.708  -0.136  0.00  0.00    +0.083 A 
ATOM     11  C   UNL     1       0.516   0.011   0.826  0.00  0.00    +0.029 A 
ATOM     12 BR   UNL     1       2.839  -1.010  -2.460  0.00  0.00    -0.048 Br
ENDBRANCH   1  10
BRANCH   2  13
ATOM     13  C   UNL     1      -1.252  -2.556   0.199  0.00  0.00    +0.042 A 
ATOM     14  C   UNL     1      -1.812  -1.624  -0.677  0.00  0.00    +0.015 A 
ATOM     15  C   UNL     1      -3.133  -1.260  -0.542  0.00  0.00    +0.023 A 
ATOM     16  C   UNL     1      -3.915  -1.818   0.466  0.00  0.00    +0.026 A 
ATOM     17  C   UNL     1      -3.368  -2.745   1.342  0.00  0.00    +0.046 A 
ATOM     18  C   UNL     1      -2.041  -3.123   1.211  0.00  0.00    +0.037 A 
BRANCH  18  19
ATOM     19  N   UNL     1      -1.491  -4.057   2.086  0.00  0.00    -0.357 N 
ATOM     20  H   UNL     1      -0.542  -4.257   2.048  0.00  0.00    +0.142 HD
ATOM     21  H   UNL     1      -2.056  -4.508   2.732  0.00  0.00    +0.142 HD
ENDBRANCH  18  19
BRANCH  16  22
ATOM     22  N   UNL     1      -5.252  -1.444   0.596  0.00  0.00    -0.358 N 
ATOM     23  H   UNL     1      -5.636  -0.795  -0.015  0.00  0.00    +0.142 HD
ATOM     24  H   UNL     1      -5.798  -1.831   1.297  0.00  0.00    +0.142 HD
ENDBRANCH  16  22
ENDBRANCH   2  13
TORSDOF 4
