REMARK  Name = ZINC12116845
REMARK  4 active torsions:
REMARK  status: ('A' for Active; 'I' for Inactive)
REMARK    1  A    between atoms: C_1  and  C_2
REMARK    2  A    between atoms: C_2  and  C_4
REMARK    3  A    between atoms: C_2  and  N_13
REMARK    4  A    between atoms: C_14  and  C_16
REMARK                            x       y       z     vdW  Elec       q    Type
REMARK                         _______ _______ _______ _____ _____    ______ ____
ROOT
ATOM      1  N   UNL     1       4.513   4.836   1.799  0.00  0.00    -0.304 N 
ATOM      2  C   UNL     1       3.608   4.065   1.165  0.00  0.00    +0.263 C 
ATOM      3  O   UNL     1       3.417   4.206  -0.028  0.00  0.00    -0.269 OA
ATOM      4  H   UNL     1       4.666   4.723   2.750  0.00  0.00    +0.150 HD
ENDROOT
BRANCH   2   5
ATOM      5  C   UNL     1       2.851   3.051   1.916  0.00  0.00    +0.124 A 
ATOM      6  C   UNL     1       1.899   2.190   1.418  0.00  0.00    +0.005 A 
ATOM      7  C   UNL     1       1.464   1.431   2.506  0.00  0.00    +0.067 A 
ATOM      8  N   UNL     1       2.133   1.825   3.557  0.00  0.00    -0.178 NA
ATOM      9  N   UNL     1       2.950   2.770   3.252  0.00  0.00    -0.272 N 
ATOM     10  H   UNL     1       3.564   3.230   3.893  0.00  0.00    +0.189 HD
ATOM     11  C   UNL     1       0.406   0.358   2.447  0.00  0.00    +0.057 C 
ATOM     12  C   UNL     1       0.685  -0.555   1.249  0.00  0.00    +0.006 C 
ATOM     13  C   UNL     1       0.002  -0.004   0.002  0.00  0.00    +0.001 C 
ATOM     14  C   UNL     1      -0.019   1.521   0.010  0.00  0.00    +0.005 C 
ATOM     15  C   UNL     1       1.417   2.057  -0.000  0.00  0.00    +0.039 C 
ENDBRANCH   2   5
BRANCH   1  17
ATOM     16  C   UNL     1       4.447   7.134   0.965  0.00  0.00    +0.033 C 
ATOM     17  C   UNL     1       5.267   5.846   1.051  0.00  0.00    +0.100 C 
BRANCH  17  18
ATOM     18  C   UNL     1       6.569   6.125   1.757  0.00  0.00    -0.027 A 
ATOM     19  C   UNL     1       6.606   6.200   3.137  0.00  0.00    +0.006 A 
ATOM     20  C   UNL     1       7.800   6.456   3.781  0.00  0.00    +0.004 A 
ATOM     21  C   UNL     1       8.962   6.638   3.050  0.00  0.00    -0.044 A 
ATOM     22  C   UNL     1       8.925   6.563   1.671  0.00  0.00    -0.044 A 
ATOM     23  C   UNL     1       7.728   6.301   1.026  0.00  0.00    +0.009 A 
ATOM     24  C   UNL     1      10.311   6.796   1.108  0.00  0.00    +0.036 C 
ATOM     25  C   UNL     1      11.271   6.586   2.299  0.00  0.00    +0.009 C 
ATOM     26  C   UNL     1      10.375   6.926   3.510  0.00  0.00    +0.036 C 
ENDBRANCH  17  18
ENDBRANCH   1  17
TORSDOF 3
