REMARK  Name = ZINC08738528
REMARK  6 active torsions:
REMARK  status: ('A' for Active; 'I' for Inactive)
REMARK    1  A    between atoms: C_4  and  C_7
REMARK    2  A    between atoms: C_7  and  C_8
REMARK    3  A    between atoms: C_8  and  N_9
REMARK    4  A    between atoms: C_12  and  C_18
REMARK    5  A    between atoms: C_13  and  O_17
REMARK    6  A    between atoms: C_15  and  O_16
REMARK                            x       y       z     vdW  Elec       q    Type
REMARK                         _______ _______ _______ _____ _____    ______ ____
ROOT
ATOM      1  N   UNL     1      -0.067   1.120  -2.437  0.00  0.00    -0.262 N 
ATOM      2  C   UNL     1       0.907   1.869  -2.995  0.00  0.00    +0.262 A 
ATOM      3  O   UNL     1       1.224   2.941  -2.505  0.00  0.00    -0.267 OA
ATOM      4  C   UNL     1       1.550   1.393  -4.145  0.00  0.00    +0.069 A 
ATOM      5  C   UNL     1       1.155   0.175  -4.670  0.00  0.00    +0.224 A 
ATOM      6  N   UNL     1       0.179  -0.520  -4.074  0.00  0.00    -0.161 NA
ATOM      7  C   UNL     1      -0.416  -0.069  -2.994  0.00  0.00    +0.302 A 
ENDROOT
BRANCH   4   8
ATOM      8  C   UNL     1       2.647   2.192  -4.800  0.00  0.00    +0.001 C 
ATOM      9  C   UNL     1       2.073   3.477  -5.337  0.00  0.00    -0.054 A 
ATOM     10  C   UNL     1       0.848   3.427  -5.993  0.00  0.00    +0.002 A 
ATOM     11  C   UNL     1       0.286   4.577  -6.508  0.00  0.00    +0.000 A 
ATOM     12  C   UNL     1       0.945   5.785  -6.375  0.00  0.00    +0.000 A 
ATOM     13  C   UNL     1       2.163   5.835  -5.726  0.00  0.00    +0.004 A 
ATOM     14  C   UNL     1       2.728   4.680  -5.207  0.00  0.00    -0.047 A 
ATOM     15  C   UNL     1       4.056   4.783  -4.503  0.00  0.00    +0.016 C 
ATOM     16  C   UNL     1       4.691   3.398  -4.380  0.00  0.00    -0.077 C 
ATOM     17  N   UNL     1       3.694   2.474  -3.808  0.00  0.00    +0.387 N 
ATOM     18  H   UNL     1       4.156   1.596  -3.543  0.00  0.00    -0.085 HD
ATOM     19  H   UNL     1       3.270   2.902  -2.977  0.00  0.00    -0.085 HD
ENDBRANCH   4   8
BRANCH   7  20
ATOM     20  O   UNL     1      -1.395  -0.802  -2.425  0.00  0.00    -0.479 OA
ATOM     21  H   UNL     1      -1.617  -1.642  -2.849  0.00  0.00    +0.295 HD
ENDBRANCH   7  20
BRANCH   5  22
ATOM     22  O   UNL     1       1.753  -0.311  -5.782  0.00  0.00    -0.492 OA
ATOM     23  H   UNL     1       1.409  -1.167  -6.072  0.00  0.00    +0.294 HD
ENDBRANCH   5  22
BRANCH   1  24
ATOM     24  C   UNL     1      -0.753   1.593  -1.232  0.00  0.00    +0.134 C 
BRANCH  24  25
ATOM     25  C   UNL     1      -0.013   1.086   0.008  0.00  0.00    +0.057 C 
BRANCH  25  29
ATOM     26  C   UNL     1      -2.012   2.463   3.523  0.00  0.00    +0.000 A 
ATOM     27  C   UNL     1      -2.366   1.254   2.955  0.00  0.00    +0.000 A 
ATOM     28  C   UNL     1      -1.719   0.808   1.818  0.00  0.00    +0.004 A 
ATOM     29  C   UNL     1      -0.718   1.572   1.248  0.00  0.00    -0.046 A 
ATOM     30  C   UNL     1      -0.360   2.779   1.819  0.00  0.00    +0.004 A 
ATOM     31  C   UNL     1      -1.010   3.227   2.954  0.00  0.00    +0.000 A 
ENDBRANCH  25  29
ENDBRANCH  24  25
ENDBRANCH   1  24
TORSDOF 6
