REMARK  Name = ZINC50814999
REMARK  6 active torsions:
REMARK  status: ('A' for Active; 'I' for Inactive)
REMARK    1  A    between atoms: C_1  and  C_2
REMARK    2  A    between atoms: C_2  and  N_3
REMARK    3  A    between atoms: N_3  and  C_4
REMARK    4  A    between atoms: C_5  and  C_9
REMARK    5  A    between atoms: C_9  and  N_10
REMARK    6  A    between atoms: C_18  and  C_20
REMARK                            x       y       z     vdW  Elec       q    Type
REMARK                         _______ _______ _______ _____ _____    ______ ____
ROOT
ATOM      1  N   UNL     1       3.485  -1.460  -3.293  0.00  0.00    +0.388 N 
ATOM      2  C   UNL     1       3.561  -0.592  -2.110  0.00  0.00    -0.072 C 
ATOM      3  C   UNL     1       5.008  -0.593  -1.585  0.00  0.00    +0.024 C 
ATOM      4  C   UNL     1       5.911  -0.379  -2.755  0.00  0.00    -0.010 A 
ATOM      5  C   UNL     1       5.566  -0.468  -4.071  0.00  0.00    -0.051 A 
ATOM      6  C   UNL     1       6.577  -0.222  -4.996  0.00  0.00    +0.010 A 
ATOM      7  C   UNL     1       7.825   0.084  -4.570  0.00  0.00    +0.045 A 
ATOM      8  S   UNL     1       7.631   0.037  -2.794  0.00  0.00    -0.101 S 
ATOM      9  C   UNL     1       4.132  -0.826  -4.448  0.00  0.00    -0.039 C 
ATOM     10  C   UNL     1       4.139  -1.798  -5.629  0.00  0.00    -0.008 C 
ATOM     11  H   UNL     1       3.946  -2.334  -3.093  0.00  0.00    -0.080 HD
ENDROOT
BRANCH   1  12
ATOM     12  C   UNL     1       2.075  -1.720  -3.611  0.00  0.00    -0.017 C 
BRANCH  12  14
ATOM     13  C   UNL     1       0.832  -1.843  -1.432  0.00  0.00    +0.107 A 
ATOM     14  C   UNL     1       1.435  -2.480  -2.478  0.00  0.00    +0.077 A 
ATOM     15  N   UNL     1       1.428  -3.794  -2.442  0.00  0.00    -0.146 NA
ATOM     16  N   UNL     1       0.866  -4.393  -1.448  0.00  0.00    -0.109 NA
ATOM     17  S   UNL     1       0.313  -3.134  -0.489  0.00  0.00    +0.051 S 
BRANCH  13  18
ATOM     18  N   UNL     1       0.688  -0.476  -1.203  0.00  0.00    -0.336 N 
ATOM     19  H   UNL     1       1.042   0.162  -1.842  0.00  0.00    +0.147 HD
BRANCH  18  21
ATOM     20  C   UNL     1      -0.019   1.526   0.010  0.00  0.00    +0.024 C 
ATOM     21  C   UNL     1       0.002  -0.004   0.002  0.00  0.00    +0.099 C 
ENDBRANCH  18  21
ENDBRANCH  13  18
ENDBRANCH  12  14
ENDBRANCH   1  12
TORSDOF 4
