REMARK  Name = ZINC52067027
REMARK  7 active torsions:
REMARK  status: ('A' for Active; 'I' for Inactive)
REMARK    1  A    between atoms: C_1  and  C_2
REMARK    2  A    between atoms: C_2  and  C_4
REMARK    3  A    between atoms: C_2  and  N_22
REMARK    4  A    between atoms: C_9  and  O_10
REMARK    5  A    between atoms: O_10  and  C_11
REMARK    6  A    between atoms: C_18  and  O_20
REMARK    7  A    between atoms: N_22  and  C_23
REMARK                            x       y       z     vdW  Elec       q    Type
REMARK                         _______ _______ _______ _____ _____    ______ ____
ROOT
ATOM      1  C   UNL     1       0.750  -0.239  -1.334  0.00  0.00    -0.019 A 
ATOM      2  C   UNL     1       0.063  -0.313  -2.531  0.00  0.00    +0.020 A 
ATOM      3  C   UNL     1       0.753  -0.509  -3.714  0.00  0.00    +0.018 A 
ATOM      4  C   UNL     1       2.131  -0.630  -3.701  0.00  0.00    +0.019 A 
ATOM      5  C   UNL     1       2.821  -0.556  -2.507  0.00  0.00    +0.047 A 
ATOM      6  C   UNL     1       2.132  -0.355  -1.320  0.00  0.00    +0.123 A 
ATOM      7 BR   UNL     1      -0.189  -0.610  -5.350  0.00  0.00    -0.050 Br
ENDROOT
BRANCH   1   9
ATOM      8  C   UNL     1      -0.027   1.466   0.290  0.00  0.00    -0.009 C 
ATOM      9  C   UNL     1      -0.002  -0.027  -0.046  0.00  0.00    -0.041 C 
BRANCH   9  10
ATOM     10  N   UNL     1      -1.378  -0.518  -0.195  0.00  0.00    +0.382 N 
ATOM     11  C   UNL     1      -2.075  -0.421   1.095  0.00  0.00    -0.100 C 
ATOM     12  H   UNL     1      -1.862   0.040  -0.882  0.00  0.00    -0.085 HD
ATOM     13  H   UNL     1      -1.361  -1.481  -0.496  0.00  0.00    -0.085 HD
ENDBRANCH   9  10
ENDBRANCH   1   9
BRANCH   6  14
ATOM     14  O   UNL     1       2.809  -0.278  -0.144  0.00  0.00    -0.484 OA
BRANCH  14  15
ATOM     15  C   UNL     1       4.216  -0.529  -0.188  0.00  0.00    +0.224 C 
ATOM     16  C   UNL     1       4.932   0.758  -0.657  0.00  0.00    +0.213 C 
ATOM     17  S   UNL     1       5.494   1.464   0.953  0.00  0.00    -0.025 S 
ATOM     18  O   UNL     1       6.749   2.107   0.772  0.00  0.00    -0.174 OA
ATOM     19  O   UNL     1       4.420   2.171   1.557  0.00  0.00    -0.174 OA
ATOM     20  C   UNL     1       5.749  -0.136   1.837  0.00  0.00    +0.201 C 
ATOM     21  C   UNL     1       4.665  -1.015   1.181  0.00  0.00    +0.177 C 
BRANCH  21  22
ATOM     22  O   UNL     1       5.178  -2.342   1.048  0.00  0.00    -0.386 OA
ATOM     23  H   UNL     1       5.488  -2.729   1.879  0.00  0.00    +0.210 HD
ENDBRANCH  21  22
ENDBRANCH  14  15
ENDBRANCH   6  14
TORSDOF 5
