REMARK  Name = ZINC57840474
REMARK  9 active torsions:
REMARK  status: ('A' for Active; 'I' for Inactive)
REMARK    1  A    between atoms: C_1  and  C_2
REMARK    2  A    between atoms: C_2  and  O_3
REMARK    3  A    between atoms: O_3  and  C_4
REMARK    4  A    between atoms: C_7  and  C_13
REMARK    5  A    between atoms: C_9  and  N_10
REMARK    6  A    between atoms: C_13  and  C_23
REMARK    7  A    between atoms: N_16  and  C_20
REMARK    8  A    between atoms: C_20  and  C_21
REMARK    9  A    between atoms: C_21  and  N_22
REMARK                            x       y       z     vdW  Elec       q    Type
REMARK                         _______ _______ _______ _____ _____    ______ ____
ROOT
ATOM      1  C   UNL     1      -2.001  -6.092  -0.010  0.00  0.00    +0.135 C 
ATOM      2  C   UNL     1      -0.896  -6.763   0.782  0.00  0.00    +0.251 C 
ATOM      3  O   UNL     1       0.294  -6.727   0.555  0.00  0.00    -0.272 OA
ATOM      4  N   UNL     1      -1.513  -7.407   1.793  0.00  0.00    -0.226 N 
ATOM      5  C   UNL     1      -2.839  -7.238   1.750  0.00  0.00    +0.310 C 
ATOM      6  O   UNL     1      -3.609  -7.723   2.556  0.00  0.00    -0.252 OA
ATOM      7  N   UNL     1      -3.226  -6.472   0.714  0.00  0.00    -0.281 N 
ATOM      8  C   UNL     1      -2.037  -6.623  -1.445  0.00  0.00    +0.047 C 
ATOM      9  H   UNL     1      -4.135  -6.218   0.488  0.00  0.00    +0.152 HD
ENDROOT
BRANCH   1  13
ATOM     10  C   UNL     1      -1.498  -1.848   0.006  0.00  0.00    +0.151 A 
ATOM     11  C   UNL     1      -0.387  -2.679  -0.003  0.00  0.00    +0.048 A 
ATOM     12  C   UNL     1      -0.552  -4.051  -0.008  0.00  0.00    +0.010 A 
ATOM     13  C   UNL     1      -1.823  -4.596  -0.004  0.00  0.00    -0.013 A 
ATOM     14  C   UNL     1      -2.932  -3.769   0.004  0.00  0.00    +0.042 A 
ATOM     15  C   UNL     1      -2.772  -2.397   0.016  0.00  0.00    +0.168 A 
BRANCH  15  16
ATOM     16  N   UNL     1      -3.959  -1.513   0.031  0.00  0.00    +0.060 N 
ATOM     17  O   UNL     1      -5.069  -1.992   0.039  0.00  0.00    -0.126 OA
ATOM     18  O   UNL     1      -3.819  -0.312   0.036  0.00  0.00    -0.126 OA
ENDBRANCH  15  16
BRANCH  10  19
ATOM     19  O   UNL     1      -1.339  -0.499   0.012  0.00  0.00    -0.490 OA
BRANCH  19  21
ATOM     20  C   UNL     1      -0.019   1.526   0.010  0.00  0.00    +0.048 C 
ATOM     21  C   UNL     1       0.002  -0.004   0.002  0.00  0.00    +0.226 C 
ENDBRANCH  19  21
ENDBRANCH  10  19
ENDBRANCH   1  13
BRANCH   4  22
ATOM     22  C   UNL     1      -0.817  -8.195   2.813  0.00  0.00    +0.098 C 
BRANCH  22  23
ATOM     23  C   UNL     1      -0.451  -7.293   3.993  0.00  0.00    -0.067 C 
BRANCH  23  24
ATOM     24  N   UNL     1       0.247  -8.084   5.016  0.00  0.00    +0.379 N 
ATOM     25  H   UNL     1      -0.355  -8.828   5.335  0.00  0.00    -0.090 HD
ATOM     26  H   UNL     1       1.088  -8.478   4.620  0.00  0.00    -0.090 HD
ATOM     27  H   UNL     1       0.489  -7.489   5.794  0.00  0.00    -0.090 HD
ENDBRANCH  23  24
ENDBRANCH  22  23
ENDBRANCH   4  22
TORSDOF 7
