REMARK  Name = ZINC62776974
REMARK  6 active torsions:
REMARK  status: ('A' for Active; 'I' for Inactive)
REMARK    1  A    between atoms: C_1  and  C_2
REMARK    2  A    between atoms: C_2  and  C_3
REMARK    3  A    between atoms: C_3  and  N_4
REMARK    4  A    between atoms: N_4  and  C_5
REMARK    5  A    between atoms: C_5  and  C_7
REMARK    6  A    between atoms: C_5  and  C_13
REMARK                            x       y       z     vdW  Elec       q    Type
REMARK                         _______ _______ _______ _____ _____    ______ ____
ROOT
ATOM      1  C   UNL     1      -2.792  -2.511   0.015  0.00  0.00    +0.012 C 
ENDROOT
BRANCH   1   2
ATOM      2  C   UNL     1      -2.774  -4.012  -0.117  0.00  0.00    -0.038 A 
ATOM      3  C   UNL     1      -1.664  -4.728   0.290  0.00  0.00    +0.052 A 
ATOM      4  C   UNL     1      -1.645  -6.109   0.171  0.00  0.00    +0.162 A 
ATOM      5  C   UNL     1      -2.747  -6.773  -0.357  0.00  0.00    +0.163 A 
ATOM      6  C   UNL     1      -3.857  -6.049  -0.765  0.00  0.00    +0.065 A 
ATOM      7  C   UNL     1      -3.871  -4.672  -0.640  0.00  0.00    +0.024 A 
ATOM      8 BR   UNL     1      -5.390  -3.689  -1.189  0.00  0.00    -0.050 Br
ATOM      9  O   UNL     1      -2.752  -8.129  -0.476  0.00  0.00    -0.485 OA
ATOM     10  C   UNL     1      -1.483  -8.786  -0.404  0.00  0.00    +0.270 C 
ATOM     11  C   UNL     1      -0.708  -8.206   0.787  0.00  0.00    +0.270 C 
ATOM     12  O   UNL     1      -0.543  -6.800   0.573  0.00  0.00    -0.485 OA
ENDBRANCH   1   2
BRANCH   1  13
ATOM     13  C   UNL     1      -3.458  -2.128   1.311  0.00  0.00    +0.053 A 
ATOM     14  C   UNL     1      -4.835  -1.987   1.515  0.00  0.00    +0.042 A 
ATOM     15  C   UNL     1      -5.031  -1.636   2.807  0.00  0.00    +0.105 A 
ATOM     16  N   UNL     1      -3.821  -1.558   3.400  0.00  0.00    -0.285 N 
ATOM     17  N   UNL     1      -2.850  -1.877   2.442  0.00  0.00    -0.180 NA
ATOM     18  H   UNL     1      -3.654  -1.327   4.327  0.00  0.00    +0.188 HD
ENDBRANCH   1  13
BRANCH   1  19
ATOM     19  N   UNL     1      -1.413  -2.002   0.005  0.00  0.00    +0.387 N 
ATOM     20  H   UNL     1      -0.941  -2.328  -0.825  0.00  0.00    -0.084 HD
ATOM     21  H   UNL     1      -0.925  -2.337   0.822  0.00  0.00    -0.084 HD
BRANCH  19  22
ATOM     22  C   UNL     1      -1.433  -0.534   0.013  0.00  0.00    -0.081 C 
BRANCH  22  24
ATOM     23  C   UNL     1      -0.019   1.526   0.010  0.00  0.00    +0.002 C 
ATOM     24  C   UNL     1       0.002  -0.004   0.002  0.00  0.00    -0.022 C 
ENDBRANCH  22  24
ENDBRANCH  19  22
ENDBRANCH   1  19
TORSDOF 5
