REMARK  Name = ZINC63196179
REMARK  6 active torsions:
REMARK  status: ('A' for Active; 'I' for Inactive)
REMARK    1  A    between atoms: C_1  and  C_2
REMARK    2  A    between atoms: C_2  and  C_4
REMARK    3  A    between atoms: C_2  and  N_22
REMARK    4  A    between atoms: N_10  and  C_11
REMARK    5  A    between atoms: C_11  and  C_12
REMARK    6  A    between atoms: C_15  and  N_19
REMARK                            x       y       z     vdW  Elec       q    Type
REMARK                         _______ _______ _______ _____ _____    ______ ____
ROOT
ATOM      1  C   UNL     1       0.429  -0.571   1.046  0.00  0.00    +0.042 C 
ATOM      2  C   UNL     1       0.206  -2.048   0.715  0.00  0.00    +0.017 C 
ATOM      3  C   UNL     1       0.663  -2.906   1.898  0.00  0.00    +0.003 C 
ATOM      4  C   UNL     1      -0.110  -2.486   3.151  0.00  0.00    +0.015 C 
ATOM      5  C   UNL     1       0.121  -0.996   3.412  0.00  0.00    +0.085 C 
ATOM      6  N   UNL     1      -0.332  -0.219   2.252  0.00  0.00    -0.297 NA
ENDROOT
BRANCH   1   8
ATOM      7  C   UNL     1       0.770  -0.053  -1.374  0.00  0.00    -0.013 C 
ATOM      8  C   UNL     1      -0.045   0.291  -0.126  0.00  0.00    -0.061 C 
BRANCH   8   9
ATOM      9  N   UNL     1      -1.468   0.031  -0.382  0.00  0.00    +0.381 N 
ATOM     10  H   UNL     1      -1.596  -0.944  -0.608  0.00  0.00    -0.090 HD
ATOM     11  H   UNL     1      -2.005   0.258   0.442  0.00  0.00    -0.090 HD
ATOM     12  H   UNL     1      -1.780   0.600  -1.155  0.00  0.00    -0.090 HD
ENDBRANCH   8   9
ENDBRANCH   1   8
BRANCH   6  13
ATOM     13  C   UNL     1      -0.254   1.223   2.521  0.00  0.00    +0.121 C 
BRANCH  13  14
ATOM     14  C   UNL     1      -1.138   1.564   3.693  0.00  0.00    -0.019 A 
ATOM     15  C   UNL     1      -2.448   1.952   3.480  0.00  0.00    +0.008 A 
ATOM     16  C   UNL     1      -3.260   2.264   4.554  0.00  0.00    +0.033 A 
ATOM     17  C   UNL     1      -2.762   2.189   5.842  0.00  0.00    +0.127 A 
ATOM     18  C   UNL     1      -1.453   1.801   6.056  0.00  0.00    +0.048 A 
ATOM     19  C   UNL     1      -0.642   1.483   4.981  0.00  0.00    +0.024 A 
ATOM     20 BR   UNL     1       1.147   0.945   5.273  0.00  0.00    -0.050 Br
BRANCH  17  21
ATOM     21  N   UNL     1      -3.631   2.524   6.992  0.00  0.00    +0.056 N 
ATOM     22  O   UNL     1      -4.777   2.864   6.805  0.00  0.00    -0.126 OA
ATOM     23  O   UNL     1      -3.196   2.458   8.118  0.00  0.00    -0.126 OA
ENDBRANCH  17  21
ENDBRANCH  13  14
ENDBRANCH   6  13
TORSDOF 5
