REMARK  Name = ZINC12879640
REMARK  4 active torsions:
REMARK  status: ('A' for Active; 'I' for Inactive)
REMARK    1  A    between atoms: C_11  and  C_13
REMARK    2  A    between atoms: C_13  and  C_14
REMARK    3  A    between atoms: C_14  and  C_15
REMARK    4  A    between atoms: N_17  and  N_18
REMARK                            x       y       z     vdW  Elec       q    Type
REMARK                         _______ _______ _______ _____ _____    ______ ____
ROOT
ATOM      1  C   UNL     1       3.439   6.293   0.000  0.00  0.00    +0.230 C 
ATOM      2  O   UNL     1       4.487   5.682  -0.013  0.00  0.00    -0.274 OA
ATOM      3  N   UNL     1       3.444   7.640   0.007  0.00  0.00    -0.224 N 
ATOM      4  H   UNL     1       2.606   8.128   0.018  0.00  0.00    +0.174 HD
ENDROOT
BRANCH   3   5
ATOM      5  N   UNL     1       4.660   8.336  -0.002  0.00  0.00    -0.137 N 
ATOM      6  C   UNL     1       5.164   8.969  -1.082  0.00  0.00    +0.263 C 
ATOM      7  O   UNL     1       4.670   9.042  -2.186  0.00  0.00    -0.271 OA
ATOM      8  C   UNL     1       6.473   9.569  -0.624  0.00  0.00    +0.114 C 
ATOM      9  C   UNL     1       6.435  11.088  -0.752  0.00  0.00    +0.035 C 
ATOM     10  C   UNL     1       7.758  11.678  -0.258  0.00  0.00    +0.003 C 
ATOM     11  C   UNL     1       8.911  11.108  -1.087  0.00  0.00    +0.000 C 
ATOM     12  C   UNL     1       8.951   9.586  -0.928  0.00  0.00    +0.003 C 
ATOM     13  C   UNL     1       7.633   8.988  -1.425  0.00  0.00    +0.035 C 
ATOM     14  N   UNL     1       6.572   9.174   0.787  0.00  0.00    -0.284 N 
ATOM     15  C   UNL     1       5.463   8.461   1.062  0.00  0.00    +0.326 C 
ATOM     16  O   UNL     1       5.221   7.981   2.152  0.00  0.00    -0.251 OA
ATOM     17  H   UNL     1       7.292   9.388   1.401  0.00  0.00    +0.151 HD
ENDBRANCH   3   5
BRANCH   1  18
ATOM     18  C   UNL     1       2.131   5.544   0.010  0.00  0.00    +0.105 C 
BRANCH  18  19
ATOM     19  C   UNL     1       2.405   4.039  -0.001  0.00  0.00    +0.083 C 
BRANCH  19  30
ATOM     20  C   UNL     1      -3.673   2.064   0.048  0.00  0.00    +0.001 A 
ATOM     21  C   UNL     1      -3.615   3.452   0.055  0.00  0.00    +0.002 A 
ATOM     22  C   UNL     1      -2.405   4.108   0.047  0.00  0.00    +0.028 A 
ATOM     23  C   UNL     1      -1.219   3.371   0.032  0.00  0.00    +0.078 A 
ATOM     24  C   UNL     1      -1.281   1.960   0.019  0.00  0.00    +0.065 A 
ATOM     25  C   UNL     1      -2.517   1.315   0.033  0.00  0.00    +0.015 A 
ATOM     26  C   UNL     1      -0.014   1.213   0.009  0.00  0.00    +0.259 A 
ATOM     27  O   UNL     1       0.002  -0.004   0.002  0.00  0.00    -0.267 OA
ATOM     28  N   UNL     1       1.132   1.932   0.002  0.00  0.00    -0.310 N 
ATOM     29  H   UNL     1       1.987   1.473  -0.009  0.00  0.00    +0.170 HD
ATOM     30  C   UNL     1       1.097   3.290   0.009  0.00  0.00    +0.111 A 
ATOM     31  N   UNL     1      -0.005   3.976   0.023  0.00  0.00    -0.234 NA
ENDBRANCH  19  30
ENDBRANCH  18  19
ENDBRANCH   1  18
TORSDOF 4
