REMARK  Name = ZINC42691810
REMARK  12 active torsions:
REMARK  status: ('A' for Active; 'I' for Inactive)
REMARK    1  A    between atoms: C_1  and  C_2
REMARK    2  A    between atoms: C_2  and  C_3
REMARK    3  A    between atoms: C_2  and  C_4
REMARK    4  A    between atoms: C_4  and  N_5
REMARK    5  A    between atoms: N_5  and  C_6
REMARK    6  A    between atoms: N_5  and  C_10
REMARK    7  A    between atoms: C_6  and  C_7
REMARK    8  A    between atoms: C_15  and  C_16
REMARK    9  A    between atoms: C_16  and  N_17
REMARK   10  A    between atoms: N_17  and  C_18
REMARK   11  A    between atoms: C_18  and  C_19
REMARK   12  A    between atoms: C_18  and  C_20
REMARK                            x       y       z     vdW  Elec       q    Type
REMARK                         _______ _______ _______ _____ _____    ______ ____
ROOT
ATOM      1  C   UNL     1      -0.747  -2.713  -1.085  0.00  0.00    +0.033 A 
ATOM      2  C   UNL     1       0.309  -3.146  -1.877  0.00  0.00    +0.038 A 
ATOM      3  C   UNL     1       0.062  -3.924  -2.991  0.00  0.00    +0.020 A 
ATOM      4  C   UNL     1      -1.237  -4.271  -3.320  0.00  0.00    +0.015 A 
ATOM      5  C   UNL     1      -2.290  -3.841  -2.534  0.00  0.00    +0.004 A 
ATOM      6  C   UNL     1      -2.049  -3.068  -1.415  0.00  0.00    -0.043 A 
ATOM      7 BR   UNL     1       1.498  -4.514  -4.070  0.00  0.00    -0.050 Br
ENDROOT
BRANCH   1   8
ATOM      8  N   UNL     1      -0.500  -1.927   0.043  0.00  0.00    -0.321 N 
BRANCH   8   9
ATOM      9  C   UNL     1      -0.082  -2.557   1.297  0.00  0.00    +0.108 C 
BRANCH   9  11
ATOM     10  C   UNL     1      -0.893  -3.731   3.349  0.00  0.00    +0.009 C 
ATOM     11  C   UNL     1      -1.319  -2.923   2.120  0.00  0.00    +0.000 C 
ATOM     12  C   UNL     1      -2.029  -1.645   2.571  0.00  0.00    +0.009 C 
ENDBRANCH   9  11
ENDBRANCH   8   9
BRANCH   8  13
ATOM     13  C   UNL     1      -0.659  -0.472  -0.029  0.00  0.00    +0.200 C 
BRANCH  13  14
ATOM     14  C   UNL     1       0.680   0.167  -0.292  0.00  0.00    +0.228 C 
ATOM     15  O   UNL     1       1.654  -0.527  -0.498  0.00  0.00    -0.274 OA
ATOM     16  N   UNL     1       0.797   1.510  -0.299  0.00  0.00    -0.328 N 
ATOM     17  H   UNL     1       0.018   2.065  -0.135  0.00  0.00    +0.145 HD
ATOM     18  H   UNL     1       1.659   1.921  -0.468  0.00  0.00    +0.145 HD
ENDBRANCH  13  14
ENDBRANCH   8  13
ENDBRANCH   1   8
BRANCH   6  19
ATOM     19  C   UNL     1      -3.197  -2.605  -0.555  0.00  0.00    -0.045 C 
BRANCH  19  20
ATOM     20  N   UNL     1      -3.625  -1.268  -0.988  0.00  0.00    +0.383 N 
ATOM     21  H   UNL     1      -2.892  -0.602  -0.796  0.00  0.00    -0.085 HD
ATOM     22  H   UNL     1      -3.816  -1.280  -1.979  0.00  0.00    -0.085 HD
BRANCH  20  23
ATOM     23  C   UNL     1      -4.841  -0.883  -0.259  0.00  0.00    -0.078 C 
ATOM     24  C   UNL     1      -4.517  -0.734   1.229  0.00  0.00    -0.014 C 
ATOM     25  C   UNL     1      -5.362   0.449  -0.804  0.00  0.00    -0.014 C 
ENDBRANCH  20  23
ENDBRANCH  19  20
ENDBRANCH   6  19
TORSDOF 8
