REMARK  Name = ZINC42879390
REMARK  6 active torsions:
REMARK  status: ('A' for Active; 'I' for Inactive)
REMARK    1  A    between atoms: C_1  and  C_2
REMARK    2  A    between atoms: C_2  and  C_4
REMARK    3  A    between atoms: C_2  and  N_11
REMARK    4  A    between atoms: N_11  and  C_12
REMARK    5  A    between atoms: C_12  and  C_13
REMARK    6  A    between atoms: C_18  and  O_19
REMARK                            x       y       z     vdW  Elec       q    Type
REMARK                         _______ _______ _______ _____ _____    ______ ____
ROOT
ATOM      1  N   UNL     1       0.713  -0.491   1.192  0.00  0.00    +0.386 N 
ATOM      2  H   UNL     1       0.798  -1.495   1.145  0.00  0.00    -0.085 HD
ATOM      3  H   UNL     1       1.632  -0.076   1.228  0.00  0.00    -0.085 HD
ENDROOT
BRANCH   1   5
ATOM      4  C   UNL     1      -0.019   1.526   0.010  0.00  0.00    -0.009 C 
ATOM      5  C   UNL     1       0.002  -0.004   0.002  0.00  0.00    -0.044 C 
BRANCH   5   6
ATOM      6  C   UNL     1       0.707  -0.490  -1.238  0.00  0.00    -0.062 A 
ATOM      7  C   UNL     1       2.089  -0.511  -1.284  0.00  0.00    +0.003 A 
ATOM      8  C   UNL     1       2.736  -0.956  -2.421  0.00  0.00    +0.020 A 
ATOM      9  C   UNL     1       2.002  -1.382  -3.513  0.00  0.00    +0.041 A 
ATOM     10  C   UNL     1       0.619  -1.361  -3.466  0.00  0.00    +0.020 A 
ATOM     11  C   UNL     1      -0.027  -0.920  -2.327  0.00  0.00    +0.003 A 
ATOM     12 CL   UNL     1       2.814  -1.941  -4.941  0.00  0.00    -0.084 Cl
ENDBRANCH   5   6
ENDBRANCH   1   5
BRANCH   1  13
ATOM     13  C   UNL     1      -0.040  -0.119   2.398  0.00  0.00    -0.042 C 
BRANCH  13  14
ATOM     14  C   UNL     1       0.689  -0.618   3.619  0.00  0.00    -0.019 A 
ATOM     15  C   UNL     1       1.382   0.270   4.420  0.00  0.00    +0.054 A 
ATOM     16  C   UNL     1       2.053  -0.185   5.543  0.00  0.00    +0.167 A 
ATOM     17  C   UNL     1       2.029  -1.541   5.865  0.00  0.00    +0.170 A 
ATOM     18  C   UNL     1       1.333  -2.428   5.061  0.00  0.00    +0.095 A 
ATOM     19  C   UNL     1       0.659  -1.967   3.940  0.00  0.00    +0.122 A 
ATOM     20  O   UNL     1       2.757  -1.732   7.003  0.00  0.00    -0.452 OA
ATOM     21  C   UNL     1       3.564  -0.548   7.147  0.00  0.00    +0.466 C 
ATOM     22  O   UNL     1       2.796   0.472   6.481  0.00  0.00    -0.453 OA
BRANCH  19  23
ATOM     23  O   UNL     1      -0.028  -2.837   3.153  0.00  0.00    -0.506 OA
ATOM     24  H   UNL     1       0.498  -3.221   2.439  0.00  0.00    +0.292 HD
ENDBRANCH  19  23
ENDBRANCH  13  14
ENDBRANCH   1  13
TORSDOF 5
