REMARK  Name = ZINC40377394
REMARK  8 active torsions:
REMARK  status: ('A' for Active; 'I' for Inactive)
REMARK    1  A    between atoms: C_1  and  C_2
REMARK    2  A    between atoms: C_2  and  C_3
REMARK    3  A    between atoms: C_3  and  C_4
REMARK    4  A    between atoms: C_3  and  C_5
REMARK    5  A    between atoms: C_3  and  N_9
REMARK    6  A    between atoms: N_6  and  O_7
REMARK    7  A    between atoms: N_9  and  S_10
REMARK    8  A    between atoms: S_10  and  C_13
REMARK                            x       y       z     vdW  Elec       q    Type
REMARK                         _______ _______ _______ _____ _____    ______ ____
ROOT
ATOM      1  N   UNL     1       0.020  -0.010  -2.646  0.00  0.00    -0.177 NA
ATOM      2  H   UNL     1       0.427   0.398  -3.427  0.00  0.00    +0.149 HD
ENDROOT
BRANCH   1   3
ATOM      3  S   UNL     1      -1.605  -0.329  -2.631  0.00  0.00    +0.061 S 
ATOM      4  O   UNL     1      -2.094   0.114  -1.372  0.00  0.00    -0.153 OA
ATOM      5  O   UNL     1      -2.125   0.154  -3.862  0.00  0.00    -0.153 OA
BRANCH   3   6
ATOM      6  C   UNL     1      -1.793  -2.080  -2.657  0.00  0.00    +0.132 A 
ATOM      7  C   UNL     1      -2.404  -2.737  -1.604  0.00  0.00    +0.057 A 
ATOM      8  C   UNL     1      -2.533  -4.085  -1.656  0.00  0.00    +0.081 A 
ATOM      9  S   UNL     1      -1.778  -4.468  -3.228  0.00  0.00    -0.063 S 
ATOM     10  C   UNL     1      -1.346  -2.805  -3.712  0.00  0.00    +0.106 A 
ATOM     11 CL   UNL     1      -0.557  -2.258  -5.159  0.00  0.00    -0.074 Cl
ATOM     12 CL   UNL     1      -3.246  -5.161  -0.495  0.00  0.00    -0.076 Cl
ENDBRANCH   3   6
ENDBRANCH   1   3
BRANCH   1  13
ATOM     13  C   UNL     1       0.843  -0.345  -1.482  0.00  0.00    +0.095 C 
ATOM     14  C   UNL     1       0.648  -1.821  -1.127  0.00  0.00    +0.037 C 
BRANCH  13  15
ATOM     15  C   UNL     1       2.294  -0.093  -1.802  0.00  0.00    +0.153 C 
ATOM     16  N   UNL     1       2.997   0.682  -1.045  0.00  0.00    -0.075 NA
ATOM     17  N   UNL     1       2.869  -0.688  -2.903  0.00  0.00    -0.342 N 
ATOM     18  H   UNL     1       2.341  -1.270  -3.471  0.00  0.00    +0.144 HD
ATOM     19  H   UNL     1       3.803  -0.525  -3.109  0.00  0.00    +0.144 HD
BRANCH  16  20
ATOM     20  O   UNL     1       4.360   0.919  -1.346  0.00  0.00    -0.408 OA
ATOM     21  H   UNL     1       4.803   1.512  -0.723  0.00  0.00    +0.328 HD
ENDBRANCH  16  20
ENDBRANCH  13  15
BRANCH  13  23
ATOM     22  C   UNL     1       0.479   1.999  -0.698  0.00  0.00    +0.006 C 
ATOM     23  C   UNL     1       0.424   0.524  -0.294  0.00  0.00    +0.028 C 
ENDBRANCH  13  23
ENDBRANCH   1  13
TORSDOF 6
