REMARK  Name = ZINC58993154
REMARK  11 active torsions:
REMARK  status: ('A' for Active; 'I' for Inactive)
REMARK    1  A    between atoms: C_1  and  C_2
REMARK    2  A    between atoms: C_2  and  O_3
REMARK    3  A    between atoms: O_3  and  C_4
REMARK    4  A    between atoms: C_4  and  C_6
REMARK    5  A    between atoms: C_10  and  N_11
REMARK    6  A    between atoms: C_12  and  C_14
REMARK    7  A    between atoms: C_14  and  S_15
REMARK    8  A    between atoms: S_15  and  C_16
REMARK    9  A    between atoms: N_21  and  N_22
REMARK   10  A    between atoms: C_23  and  C_24
REMARK   11  A    between atoms: C_28  and  N_30
REMARK                            x       y       z     vdW  Elec       q    Type
REMARK                         _______ _______ _______ _____ _____    ______ ____
ROOT
ATOM      1  S   UNL     1      -2.971  -3.124  -7.080  0.00  0.00    -0.075 S 
ENDROOT
BRANCH   1   2
ATOM      2  C   UNL     1      -4.705  -2.851  -7.231  0.00  0.00    +0.211 A 
ATOM      3  N   UNL     1      -5.439  -3.103  -8.320  0.00  0.00    -0.186 NA
ATOM      4  C   UNL     1      -6.696  -2.784  -8.091  0.00  0.00    +0.232 A 
ATOM      5  N   UNL     1      -6.783  -2.315  -6.828  0.00  0.00    -0.245 N 
ATOM      6  N   UNL     1      -5.486  -2.373  -6.292  0.00  0.00    -0.144 NA
ATOM      7  N   UNL     1      -7.743  -2.908  -8.986  0.00  0.00    -0.205 N 
ATOM      8  H   UNL     1      -8.639  -2.645  -8.724  0.00  0.00    +0.177 HD
ATOM      9  H   UNL     1      -7.584  -2.003  -6.378  0.00  0.00    +0.192 HD
BRANCH   7  10
ATOM     10  N   UNL     1      -7.509  -3.412 -10.272  0.00  0.00    -0.188 NA
ATOM     11  C   UNL     1      -8.491  -3.528 -11.113  0.00  0.00    +0.138 C 
BRANCH  11  12
ATOM     12  C   UNL     1      -8.245  -4.060 -12.466  0.00  0.00    -0.003 A 
ATOM     13  C   UNL     1      -6.956  -4.445 -12.845  0.00  0.00    +0.009 A 
ATOM     14  C   UNL     1      -6.733  -4.941 -14.112  0.00  0.00    +0.003 A 
ATOM     15  C   UNL     1      -7.782  -5.058 -15.008  0.00  0.00    +0.033 A 
ATOM     16  C   UNL     1      -9.061  -4.679 -14.639  0.00  0.00    +0.127 A 
ATOM     17  C   UNL     1      -9.300  -4.186 -13.373  0.00  0.00    +0.042 A 
BRANCH  16  18
ATOM     18  N   UNL     1     -10.176  -4.807 -15.604  0.00  0.00    +0.056 N 
ATOM     19  O   UNL     1      -9.969  -5.244 -16.712  0.00  0.00    -0.126 OA
ATOM     20  O   UNL     1     -11.294  -4.476 -15.283  0.00  0.00    -0.126 OA
ENDBRANCH  16  18
ENDBRANCH  11  12
ENDBRANCH   7  10
ENDBRANCH   1   2
BRANCH   1  21
ATOM     21  C   UNL     1      -2.590  -2.597  -5.387  0.00  0.00    +0.173 C 
BRANCH  21  23
ATOM     22  N   UNL     1      -0.603  -2.454  -3.921  0.00  0.00    -0.279 N 
ATOM     23  C   UNL     1      -1.118  -2.781  -5.122  0.00  0.00    +0.228 C 
ATOM     24  O   UNL     1      -0.397  -3.224  -5.991  0.00  0.00    -0.275 OA
ATOM     25  H   UNL     1      -1.180  -2.100  -3.226  0.00  0.00    +0.155 HD
BRANCH  22  30
ATOM     26  C   UNL     1       1.449  -2.344  -2.516  0.00  0.00    +0.091 A 
ATOM     27  C   UNL     1       2.885  -2.621  -2.515  0.00  0.00    -0.021 A 
ATOM     28  C   UNL     1       3.349  -3.116  -3.676  0.00  0.00    -0.004 A 
ATOM     29  S   UNL     1       1.922  -3.210  -4.726  0.00  0.00    -0.077 S 
ATOM     30  C   UNL     1       0.751  -2.623  -3.678  0.00  0.00    +0.086 A 
ATOM     31  C   UNL     1       4.830  -3.378  -3.621  0.00  0.00    +0.043 C 
ATOM     32  C   UNL     1       5.324  -2.577  -2.396  0.00  0.00    +0.010 C 
ATOM     33  C   UNL     1       4.048  -2.505  -1.532  0.00  0.00    +0.037 C 
BRANCH  26  34
ATOM     34  C   UNL     1       0.776  -1.800  -1.335  0.00  0.00    +0.342 C 
ATOM     35  O   UNL     1       0.312  -2.552  -0.499  0.00  0.00    -0.245 OA
BRANCH  34  36
ATOM     36  O   UNL     1       0.671  -0.465  -1.174  0.00  0.00    -0.461 OA
BRANCH  36  38
ATOM     37  C   UNL     1      -0.019   1.526   0.010  0.00  0.00    +0.048 C 
ATOM     38  C   UNL     1       0.002  -0.004   0.002  0.00  0.00    +0.229 C 
ENDBRANCH  36  38
ENDBRANCH  34  36
ENDBRANCH  26  34
ENDBRANCH  22  30
ENDBRANCH  21  23
ENDBRANCH   1  21
TORSDOF 10
