REMARK  Name = ZINC62951204
REMARK  8 active torsions:
REMARK  status: ('A' for Active; 'I' for Inactive)
REMARK    1  A    between atoms: C_1  and  C_2
REMARK    2  A    between atoms: C_2  and  C_3
REMARK    3  A    between atoms: C_3  and  C_21
REMARK    4  A    between atoms: N_6  and  C_9
REMARK    5  A    between atoms: C_9  and  C_10
REMARK    6  A    between atoms: N_12  and  C_13
REMARK    7  A    between atoms: C_15  and  N_20
REMARK    8  A    between atoms: C_18  and  C_19
REMARK                            x       y       z     vdW  Elec       q    Type
REMARK                         _______ _______ _______ _____ _____    ______ ____
ROOT
ATOM      1  C   UNL     1       1.137  -4.115   4.912  0.00  0.00    +0.201 C 
ATOM      2  O   UNL     1       0.591  -4.673   3.984  0.00  0.00    -0.278 OA
ATOM      3  N   UNL     1       1.622  -4.837   5.942  0.00  0.00    -0.287 N 
ATOM      4  H   UNL     1       2.128  -4.400   6.645  0.00  0.00    +0.155 HD
ENDROOT
BRANCH   3   5
ATOM      5  C   UNL     1       1.395  -6.216   5.998  0.00  0.00    +0.038 A 
ATOM      6  C   UNL     1       0.301  -6.767   5.346  0.00  0.00    +0.046 A 
ATOM      7  C   UNL     1       0.080  -8.136   5.403  0.00  0.00    +0.026 A 
ATOM      8  C   UNL     1       0.954  -8.950   6.112  0.00  0.00    +0.023 A 
ATOM      9  C   UNL     1       2.042  -8.399   6.761  0.00  0.00    +0.007 A 
ATOM     10  C   UNL     1       2.268  -7.037   6.701  0.00  0.00    -0.029 A 
ATOM     11  C   UNL     1       3.459  -6.440   7.404  0.00  0.00    +0.045 C 
BRANCH   7  12
ATOM     12  N   UNL     1      -1.021  -8.694   4.748  0.00  0.00    -0.358 N 
ATOM     13  H   UNL     1      -1.631  -8.125   4.254  0.00  0.00    +0.142 HD
ATOM     14  H   UNL     1      -1.175  -9.651   4.789  0.00  0.00    +0.142 HD
ENDBRANCH   7  12
ENDBRANCH   3   5
BRANCH   1  15
ATOM     15  C   UNL     1       1.273  -2.614   4.914  0.00  0.00    +0.019 C 
BRANCH  15  19
ATOM     16  C   UNL     1       0.723  -0.500   1.256  0.00  0.00    -0.036 C 
ATOM     17  C   UNL     1      -0.004  -0.025   2.517  0.00  0.00    -0.012 C 
ATOM     18  C   UNL     1       0.695  -0.600   3.750  0.00  0.00    -0.078 C 
ATOM     19  N   UNL     1       0.670  -2.066   3.692  0.00  0.00    +0.385 N 
ATOM     20  C   UNL     1       1.427  -2.532   2.523  0.00  0.00    -0.078 C 
ATOM     21  C   UNL     1       0.755  -2.031   1.243  0.00  0.00    -0.012 C 
ATOM     22  C   UNL     1       2.154   0.042   1.253  0.00  0.00    +0.011 C 
ATOM     23  H   UNL     1      -0.286  -2.382   3.620  0.00  0.00    -0.081 HD
BRANCH  16  25
ATOM     24  C   UNL     1      -0.049   1.536   0.030  0.00  0.00    +0.004 C 
ATOM     25  C   UNL     1      -0.018   0.007   0.016  0.00  0.00    +0.003 C 
ENDBRANCH  16  25
ENDBRANCH  15  19
ENDBRANCH   1  15
TORSDOF 5
