REMARK  Name = ZINC00323997
REMARK  10 active torsions:
REMARK  status: ('A' for Active; 'I' for Inactive)
REMARK    1  A    between atoms: C_1  and  C_2
REMARK    2  A    between atoms: C_2  and  C_21
REMARK    3  A    between atoms: C_4  and  C_9
REMARK    4  A    between atoms: C_6  and  C_7
REMARK    5  A    between atoms: C_6  and  C_8
REMARK    6  A    between atoms: C_9  and  C_11
REMARK    7  A    between atoms: C_14  and  O_19
REMARK    8  A    between atoms: C_15  and  O_17
REMARK    9  A    between atoms: O_17  and  C_18
REMARK   10  A    between atoms: O_19  and  C_20
REMARK                            x       y       z     vdW  Elec       q    Type
REMARK                         _______ _______ _______ _____ _____    ______ ____
ROOT
ATOM      1  C   UNL     1       7.409   0.547  -1.763  0.00  0.00    -0.010 C 
ATOM      2  C   UNL     1       7.395   1.595  -0.643  0.00  0.00    -0.073 C 
ATOM      3  C   UNL     1       6.049   2.314  -0.634  0.00  0.00    -0.002 C 
ATOM      4  C   UNL     1       4.969   1.413  -0.036  0.00  0.00    +0.058 C 
ATOM      5  C   UNL     1       5.367   1.064   1.398  0.00  0.00    -0.002 C 
ATOM      6  C   UNL     1       6.706   0.331   1.414  0.00  0.00    -0.073 C 
ATOM      7  C   UNL     1       6.505  -1.114   0.941  0.00  0.00    -0.010 C 
ATOM      8  C   UNL     1       7.184   0.269   2.882  0.00  0.00    -0.010 C 
ATOM      9  C   UNL     1       8.480   2.641  -0.984  0.00  0.00    -0.010 C 
ATOM     10  N   UNL     1       7.798   1.003   0.661  0.00  0.00    +0.386 N 
ATOM     11  H   UNL     1       8.174   1.756   1.249  0.00  0.00    -0.084 HD
ATOM     12  H   UNL     1       8.534   0.309   0.481  0.00  0.00    -0.084 HD
ENDROOT
BRANCH   4  13
ATOM     13  C   UNL     1       3.654   2.156  -0.020  0.00  0.00    +0.166 C 
ATOM     14  O   UNL     1       3.643   3.369  -0.013  0.00  0.00    -0.292 OA
BRANCH  13  15
ATOM     15  C   UNL     1       2.389   1.411  -0.013  0.00  0.00    +0.021 A 
ATOM     16  C   UNL     1       2.400   0.011  -0.021  0.00  0.00    +0.015 A 
ATOM     17  C   UNL     1       1.212  -0.686  -0.014  0.00  0.00    +0.050 A 
ATOM     18  C   UNL     1       0.002  -0.004   0.002  0.00  0.00    +0.162 A 
ATOM     19  C   UNL     1      -0.017   1.391   0.010  0.00  0.00    +0.162 A 
ATOM     20  C   UNL     1       1.169   2.097   0.002  0.00  0.00    +0.060 A 
BRANCH  19  21
ATOM     21  O   UNL     1      -1.204   2.054   0.019  0.00  0.00    -0.491 OA
ATOM     22  C   UNL     1      -1.149   3.482   0.026  0.00  0.00    +0.277 C 
ENDBRANCH  19  21
BRANCH  18  23
ATOM     23  O   UNL     1      -1.165  -0.697   0.009  0.00  0.00    -0.491 OA
ATOM     24  C   UNL     1      -1.074  -2.123   0.001  0.00  0.00    +0.277 C 
ENDBRANCH  18  23
ENDBRANCH  13  15
ENDBRANCH   4  13
TORSDOF 4
