REMARK  Name = ZINC52692239
REMARK  6 active torsions:
REMARK  status: ('A' for Active; 'I' for Inactive)
REMARK    1  A    between atoms: C_1  and  C_2
REMARK    2  A    between atoms: C_3  and  C_17
REMARK    3  A    between atoms: C_5  and  C_7
REMARK    4  A    between atoms: C_7  and  O_8
REMARK    5  A    between atoms: O_8  and  C_9
REMARK    6  A    between atoms: C_17  and  N_18
REMARK                            x       y       z     vdW  Elec       q    Type
REMARK                         _______ _______ _______ _____ _____    ______ ____
ROOT
ATOM      1  C   UNL     1      -0.018   1.503   0.010  0.00  0.00    +0.086 C 
ATOM      2  C   UNL     1       0.002  -0.004   0.002  0.00  0.00    +0.104 A 
ATOM      3  C   UNL     1      -1.078  -0.805   0.003  0.00  0.00    -0.024 A 
ATOM      4  C   UNL     1      -0.601  -2.136  -0.007  0.00  0.00    +0.050 A 
ATOM      5  C   UNL     1       0.742  -2.069  -0.013  0.00  0.00    +0.143 A 
ATOM      6  O   UNL     1       1.102  -0.775  -0.013  0.00  0.00    -0.461 OA
ENDROOT
BRANCH   5   7
ATOM      7  C   UNL     1       1.684  -3.245  -0.023  0.00  0.00    +0.303 C 
BRANCH   7   8
ATOM      8  O   UNL     1       1.976  -3.610  -1.373  0.00  0.00    -0.483 OA
BRANCH   8   9
ATOM      9  C   UNL     1       2.817  -4.662  -1.560  0.00  0.00    +0.135 A 
ATOM     10  C   UNL     1       3.346  -5.331  -0.466  0.00  0.00    +0.048 A 
ATOM     11  C   UNL     1       4.200  -6.399  -0.658  0.00  0.00    +0.023 A 
ATOM     12  C   UNL     1       4.529  -6.802  -1.941  0.00  0.00    +0.042 A 
ATOM     13  C   UNL     1       4.003  -6.136  -3.033  0.00  0.00    +0.039 A 
ATOM     14  C   UNL     1       3.143  -5.070  -2.846  0.00  0.00    +0.061 A 
ATOM     15 BR   UNL     1       2.418  -4.165  -4.339  0.00  0.00    -0.046 Br
ATOM     16 CL   UNL     1       5.604  -8.144  -2.179  0.00  0.00    -0.084 Cl
ENDBRANCH   8   9
ENDBRANCH   7   8
ENDBRANCH   5   7
BRANCH   3  17
ATOM     17  C   UNL     1      -2.521  -0.369   0.012  0.00  0.00    -0.047 C 
BRANCH  17  18
ATOM     18  N   UNL     1      -2.926   0.012  -1.347  0.00  0.00    +0.381 N 
ATOM     19  H   UNL     1      -2.347   0.772  -1.671  0.00  0.00    -0.090 HD
ATOM     20  H   UNL     1      -2.819  -0.780  -1.964  0.00  0.00    -0.090 HD
ATOM     21  H   UNL     1      -3.892   0.304  -1.341  0.00  0.00    -0.090 HD
ENDBRANCH  17  18
ENDBRANCH   3  17
TORSDOF 5
