REMARK  Name = ZINC51359866
REMARK  3 active torsions:
REMARK  status: ('A' for Active; 'I' for Inactive)
REMARK    1  A    between atoms: C_5  and  C_11
REMARK    2  A    between atoms: C_11  and  N_12
REMARK    3  A    between atoms: C_16  and  C_18
REMARK                            x       y       z     vdW  Elec       q    Type
REMARK                         _______ _______ _______ _____ _____    ______ ____
ROOT
ATOM      1  N   UNL     1       6.415   0.873  -1.436  0.00  0.00    -0.295 NA
ATOM      2  C   UNL     1       6.100   2.214  -1.974  0.00  0.00    +0.085 C 
ATOM      3  C   UNL     1       7.410   3.024  -1.807  0.00  0.00    +0.017 C 
ATOM      4  C   UNL     1       8.485   1.949  -2.115  0.00  0.00    +0.018 C 
ATOM      5  C   UNL     1       7.872   0.664  -1.519  0.00  0.00    +0.043 C 
ENDROOT
BRANCH   5   6
ATOM      6  C   UNL     1       8.176  -0.527  -2.429  0.00  0.00    -0.054 C 
ATOM      7  C   UNL     1       7.553  -1.810  -1.840  0.00  0.00    -0.016 C 
ATOM      8  C   UNL     1       8.625  -2.890  -2.142  0.00  0.00    -0.021 C 
ATOM      9  C   UNL     1       9.937  -2.087  -1.965  0.00  0.00    -0.082 C 
ATOM     10  N   UNL     1       9.633  -0.741  -2.506  0.00  0.00    +0.382 N 
ATOM     11  H   UNL     1       9.935  -0.683  -3.467  0.00  0.00    -0.085 HD
ATOM     12  H   UNL     1      10.109  -0.039  -1.959  0.00  0.00    -0.085 HD
ENDBRANCH   5   6
BRANCH   1  13
ATOM     13  C   UNL     1       5.942   0.736  -0.052  0.00  0.00    +0.141 C 
BRANCH  13  18
ATOM     14  C   UNL     1      -0.017   1.401   0.010  0.00  0.00    +0.025 A 
ATOM     15  C   UNL     1       1.155   2.091   0.002  0.00  0.00    +0.048 A 
ATOM     16  C   UNL     1       2.373   1.383  -0.013  0.00  0.00    +0.138 A 
ATOM     17  N   UNL     1       3.638   1.781  -0.024  0.00  0.00    -0.231 NA
ATOM     18  C   UNL     1       4.435   0.711  -0.037  0.00  0.00    +0.074 A 
ATOM     19  C   UNL     1       3.666  -0.400  -0.036  0.00  0.00    +0.117 A 
ATOM     20  N   UNL     1       2.361   0.012  -0.020  0.00  0.00    -0.305 N 
ATOM     21  C   UNL     1       1.177  -0.669  -0.013  0.00  0.00    +0.112 A 
ATOM     22  C   UNL     1       0.002  -0.004   0.002  0.00  0.00    +0.058 A 
ATOM     23 CL   UNL     1      -1.492  -0.889   0.012  0.00  0.00    -0.082 Cl
ENDBRANCH  13  18
ENDBRANCH   1  13
TORSDOF 3
