REMARK  Name = ZINC62609744
REMARK  4 active torsions:
REMARK  status: ('A' for Active; 'I' for Inactive)
REMARK    1  A    between atoms: C_1  and  N_2
REMARK    2  A    between atoms: C_3  and  N_20
REMARK    3  A    between atoms: C_4  and  C_12
REMARK    4  A    between atoms: C_5  and  C_7
REMARK                            x       y       z     vdW  Elec       q    Type
REMARK                         _______ _______ _______ _____ _____    ______ ____
ROOT
ATOM      1  C   UNL     1      -0.018   1.461   0.010  0.00  0.00    +0.172 C 
ATOM      2  N   UNL     1       0.002  -0.004   0.002  0.00  0.00    -0.276 N 
ATOM      3  C   UNL     1       0.008  -0.790  -1.098  0.00  0.00    +0.120 A 
ATOM      4  C   UNL     1       0.028  -2.104  -0.663  0.00  0.00    +0.043 A 
ATOM      5  C   UNL     1       0.034  -2.078   0.745  0.00  0.00    +0.047 A 
ATOM      6  N   UNL     1       0.025  -0.830   1.132  0.00  0.00    -0.299 N 
ATOM      7  H   UNL     1       0.030  -0.525   2.053  0.00  0.00    +0.187 HD
ENDROOT
BRANCH   4   8
ATOM      8  C   UNL     1       0.039  -3.314  -1.521  0.00  0.00    +0.006 A 
ATOM      9  C   UNL     1       1.251  -3.872  -1.926  0.00  0.00    +0.013 A 
ATOM     10  C   UNL     1       1.257  -4.998  -2.723  0.00  0.00    +0.039 A 
ATOM     11  C   UNL     1       0.062  -5.574  -3.122  0.00  0.00    +0.125 A 
ATOM     12  C   UNL     1      -1.145  -5.024  -2.722  0.00  0.00    +0.059 A 
ATOM     13  C   UNL     1      -1.161  -3.901  -1.919  0.00  0.00    +0.052 A 
ATOM     14 CL   UNL     1      -2.674  -3.216  -1.413  0.00  0.00    -0.083 Cl
ATOM     15  F   UNL     1       0.073  -6.677  -3.903  0.00  0.00    -0.205 F 
ENDBRANCH   4   8
BRANCH   5  16
ATOM     16  C   UNL     1       0.054  -3.282   1.650  0.00  0.00    +0.038 C 
ATOM     17  C   UNL     1      -1.160  -3.249   2.601  0.00  0.00    +0.010 C 
ATOM     18  C   UNL     1      -0.610  -3.806   3.938  0.00  0.00    +0.001 C 
ATOM     19  C   UNL     1       0.815  -3.203   3.999  0.00  0.00    +0.001 C 
ATOM     20  C   UNL     1       1.310  -3.253   2.539  0.00  0.00    +0.010 C 
ENDBRANCH   5  16
BRANCH   3  21
ATOM     21  N   UNL     1      -0.004  -0.359  -2.418  0.00  0.00    -0.343 N 
ATOM     22  H   UNL     1      -0.018   0.590  -2.619  0.00  0.00    +0.144 HD
ATOM     23  H   UNL     1       0.001  -1.008  -3.140  0.00  0.00    +0.144 HD
ENDBRANCH   3  21
TORSDOF 3
