REMARK  Name = ZINC40995603
REMARK  9 active torsions:
REMARK  status: ('A' for Active; 'I' for Inactive)
REMARK    1  A    between atoms: C_1  and  C_2
REMARK    2  A    between atoms: C_2  and  N_3
REMARK    3  A    between atoms: N_3  and  C_4
REMARK    4  A    between atoms: C_4  and  C_6
REMARK    5  A    between atoms: C_4  and  C_7
REMARK    6  A    between atoms: C_8  and  C_22
REMARK    7  A    between atoms: C_10  and  C_12
REMARK    8  A    between atoms: C_17  and  O_18
REMARK    9  A    between atoms: O_18  and  C_19
REMARK                            x       y       z     vdW  Elec       q    Type
REMARK                         _______ _______ _______ _____ _____    ______ ____
ROOT
ATOM      1  C   UNL     1       1.520  -2.432  -2.389  0.00  0.00    -0.001 A 
ATOM      2  C   UNL     1       2.463  -3.409  -2.448  0.00  0.00    +0.048 A 
ATOM      3  N   UNL     1       3.057  -3.676  -3.588  0.00  0.00    -0.244 NA
ATOM      4  C   UNL     1       2.757  -3.009  -4.694  0.00  0.00    +0.112 A 
ATOM      5  S   UNL     1       1.502  -1.886  -4.092  0.00  0.00    -0.073 S 
ATOM      6  C   UNL     1       2.825  -4.184  -1.208  0.00  0.00    +0.066 C 
ENDROOT
BRANCH   4   7
ATOM      7  C   UNL     1       3.306  -3.158  -6.057  0.00  0.00    +0.049 A 
ATOM      8  C   UNL     1       2.850  -2.339  -7.091  0.00  0.00    +0.014 A 
ATOM      9  C   UNL     1       3.367  -2.482  -8.361  0.00  0.00    +0.001 A 
ATOM     10  C   UNL     1       4.338  -3.435  -8.616  0.00  0.00    +0.004 A 
ATOM     11  C   UNL     1       4.797  -4.252  -7.601  0.00  0.00    +0.046 A 
ATOM     12  C   UNL     1       4.292  -4.117  -6.318  0.00  0.00    +0.137 A 
BRANCH  12  13
ATOM     13  O   UNL     1       4.747  -4.916  -5.318  0.00  0.00    -0.434 OA
BRANCH  13  14
ATOM     14  C   UNL     1       5.754  -5.872  -5.659  0.00  0.00    +0.541 C 
ATOM     15  F   UNL     1       5.260  -6.740  -6.638  0.00  0.00    -0.166 F 
ATOM     16  F   UNL     1       6.881  -5.206  -6.151  0.00  0.00    -0.166 F 
ENDBRANCH  13  14
ENDBRANCH  12  13
ENDBRANCH   4   7
BRANCH   1  17
ATOM     17  C   UNL     1       0.710  -1.947  -1.215  0.00  0.00    -0.035 C 
ATOM     18  C   UNL     1      -0.722  -2.475  -1.330  0.00  0.00    -0.008 C 
BRANCH  17  19
ATOM     19  N   UNL     1       0.690  -0.478  -1.207  0.00  0.00    +0.384 N 
ATOM     20  H   UNL     1       0.202  -0.144  -2.024  0.00  0.00    -0.085 HD
ATOM     21  H   UNL     1       1.636  -0.129  -1.214  0.00  0.00    -0.085 HD
BRANCH  19  23
ATOM     22  C   UNL     1      -0.019   1.526   0.010  0.00  0.00    -0.017 C 
ATOM     23  C   UNL     1       0.002  -0.004   0.002  0.00  0.00    -0.085 C 
ENDBRANCH  19  23
ENDBRANCH  17  19
ENDBRANCH   1  17
TORSDOF 6
