REMARK  Name = ZINC49337512
REMARK  8 active torsions:
REMARK  status: ('A' for Active; 'I' for Inactive)
REMARK    1  A    between atoms: C_1  and  C_2
REMARK    2  A    between atoms: C_2  and  N_3
REMARK    3  A    between atoms: N_3  and  C_4
REMARK    4  A    between atoms: N_3  and  C_5
REMARK    5  A    between atoms: C_5  and  C_6
REMARK    6  A    between atoms: C_6  and  N_7
REMARK    7  A    between atoms: C_8  and  N_10
REMARK    8  A    between atoms: C_17  and  C_21
REMARK                            x       y       z     vdW  Elec       q    Type
REMARK                         _______ _______ _______ _____ _____    ______ ____
ROOT
ATOM      1  N   UNL     1      -3.920  -5.966  -0.592  0.00  0.00    -0.139 NA
ATOM      2  C   UNL     1      -5.060  -6.636  -0.706  0.00  0.00    +0.165 A 
ATOM      3  N   UNL     1      -6.335  -6.154  -0.730  0.00  0.00    -0.335 N 
ATOM      4  H   UNL     1      -6.492  -5.199  -0.658  0.00  0.00    +0.168 HD
ATOM      5  C   UNL     1      -7.407  -7.020  -0.856  0.00  0.00    +0.055 A 
ATOM      6  C   UNL     1      -8.773  -6.691  -0.897  0.00  0.00    +0.027 A 
ATOM      7  C   UNL     1      -9.729  -7.669  -1.027  0.00  0.00    +0.005 A 
ATOM      8  C   UNL     1      -9.383  -9.006  -1.122  0.00  0.00    -0.049 A 
ATOM      9  C   UNL     1      -8.045  -9.359  -1.084  0.00  0.00    +0.020 A 
ATOM     10  C   UNL     1      -7.088  -8.382  -0.955  0.00  0.00    +0.039 A 
ATOM     11  S   UNL     1      -5.313  -8.395  -0.874  0.00  0.00    -0.052 S 
ATOM     12  C   UNL     1     -10.447 -10.063  -1.263  0.00  0.00    +0.044 C 
ENDROOT
BRANCH   1  14
ATOM     13  N   UNL     1      -2.777  -3.954  -0.359  0.00  0.00    -0.299 N 
ATOM     14  C   UNL     1      -3.935  -4.633  -0.475  0.00  0.00    +0.325 C 
ATOM     15  O   UNL     1      -4.996  -4.034  -0.472  0.00  0.00    -0.251 OA
ATOM     16  H   UNL     1      -1.933  -4.431  -0.361  0.00  0.00    +0.150 HD
BRANCH  13  17
ATOM     17  C   UNL     1      -2.794  -2.494  -0.231  0.00  0.00    +0.087 C 
BRANCH  17  18
ATOM     18  C   UNL     1      -1.359  -1.976  -0.116  0.00  0.00    -0.060 C 
BRANCH  18  19
ATOM     19  N   UNL     1      -1.376  -0.512   0.012  0.00  0.00    +0.379 N 
ATOM     20  C   UNL     1      -2.026  -0.140   1.276  0.00  0.00    -0.096 C 
ATOM     21  H   UNL     1      -1.888  -0.113  -0.760  0.00  0.00    -0.082 HD
BRANCH  19  23
ATOM     22  C   UNL     1      -0.019   1.526   0.010  0.00  0.00    -0.017 C 
ATOM     23  C   UNL     1       0.002  -0.004   0.002  0.00  0.00    -0.083 C 
ENDBRANCH  19  23
ENDBRANCH  18  19
ENDBRANCH  17  18
ENDBRANCH  13  17
ENDBRANCH   1  14
TORSDOF 5
