REMARK  Name = ZINC14533779
REMARK  11 active torsions:
REMARK  status: ('A' for Active; 'I' for Inactive)
REMARK    1  A    between atoms: C_1  and  C_2
REMARK    2  A    between atoms: C_2  and  C_3
REMARK    3  A    between atoms: C_2  and  C_4
REMARK    4  A    between atoms: C_2  and  N_5
REMARK    5  A    between atoms: N_5  and  S_6
REMARK    6  A    between atoms: S_6  and  C_9
REMARK    7  A    between atoms: C_11  and  C_24
REMARK    8  A    between atoms: C_13  and  N_15
REMARK    9  A    between atoms: N_15  and  C_16
REMARK   10  A    between atoms: C_16  and  C_17
REMARK   11  A    between atoms: C_32  and  N_70
REMARK                            x       y       z     vdW  Elec       q    Type
REMARK                         _______ _______ _______ _____ _____    ______ ____
ROOT
ATOM      1  C   UNL     1      -0.217   2.363  -1.150  0.00  0.00    +0.108 A 
ATOM      2  C   UNL     1      -1.376   2.142  -1.866  0.00  0.00    +0.041 A 
ATOM      3  C   UNL     1      -1.868   3.130  -2.720  0.00  0.00    +0.040 A 
ATOM      4  C   UNL     1      -1.186   4.340  -2.845  0.00  0.00    +0.036 A 
ATOM      5  C   UNL     1      -0.023   4.553  -2.121  0.00  0.00    +0.030 A 
ATOM      6  C   UNL     1       0.456   3.563  -1.270  0.00  0.00    +0.051 A 
ENDROOT
BRANCH   3   7
ATOM      7  C   UNL     1      -3.109   2.896  -3.489  0.00  0.00    +0.247 C 
ATOM      8  O   UNL     1      -3.934   2.099  -3.084  0.00  0.00    -0.270 OA
ATOM      9  N   UNL     1      -3.326   3.565  -4.638  0.00  0.00    -0.299 N 
ATOM     10  C   UNL     1      -4.510   3.218  -5.449  0.00  0.00    +0.106 C 
ATOM     11  C   UNL     1      -5.198   4.484  -5.997  0.00  0.00    +0.000 C 
ATOM     12  C   UNL     1      -5.196   5.566  -4.939  0.00  0.00    -0.078 C 
ATOM     13  C   UNL     1      -2.832   5.958  -4.456  0.00  0.00    -0.060 C 
ATOM     14  C   UNL     1      -2.386   4.593  -5.034  0.00  0.00    +0.089 C 
ATOM     15  C   UNL     1      -4.295   7.802  -4.784  0.00  0.00    -0.096 C 
ATOM     16  N   UNL     1      -3.996   6.418  -5.174  0.00  0.00    +0.379 N 
ATOM     17  H   UNL     1      -3.780   6.397  -6.177  0.00  0.00    -0.082 HD
ENDBRANCH   3   7
BRANCH   1  18
ATOM     18  S   UNL     1       0.401   1.113  -0.073  0.00  0.00    +0.059 S 
ATOM     19  O   UNL     1      -0.636   0.153   0.073  0.00  0.00    -0.153 OA
ATOM     20  O   UNL     1       0.981   1.783   1.038  0.00  0.00    -0.153 OA
BRANCH  18  21
ATOM     21  N   UNL     1       1.641   0.352  -0.866  0.00  0.00    -0.185 NA
ATOM     22  H   UNL     1       2.547   0.420  -0.527  0.00  0.00    +0.149 HD
BRANCH  21  24
ATOM     23  C   UNL     1       0.609   0.441  -3.082  0.00  0.00    +0.029 C 
ATOM     24  C   UNL     1       1.367  -0.427  -2.076  0.00  0.00    +0.032 C 
ATOM     25  C   UNL     1       2.688  -0.889  -2.694  0.00  0.00    +0.029 C 
ATOM     26  C   UNL     1       0.518  -1.648  -1.714  0.00  0.00    +0.029 C 
ENDBRANCH  21  24
ENDBRANCH  18  21
ENDBRANCH   1  18
BRANCH   5  27
ATOM     27  N   UNL     1       0.664   5.763  -2.242  0.00  0.00    -0.343 N 
ATOM     28  H   UNL     1       1.478   5.912  -1.735  0.00  0.00    +0.146 HD
BRANCH  27  29
ATOM     29  C   UNL     1       0.157   6.807  -3.135  0.00  0.00    +0.105 C 
BRANCH  29  30
ATOM     30  C   UNL     1       1.088   8.020  -3.083  0.00  0.00    +0.010 C 
ATOM     31  C   UNL     1       0.625   9.070  -4.101  0.00  0.00    +0.009 C 
ATOM     32  C   UNL     1       1.670  10.186  -4.155  0.00  0.00    +0.027 C 
ATOM     33  C   UNL     1       2.004  10.648  -2.767  0.00  0.00    -0.031 C 
ATOM     34  C   UNL     1       1.735   9.976  -1.694  0.00  0.00    -0.031 C 
ATOM     35  C   UNL     1       1.046   8.642  -1.686  0.00  0.00    +0.032 C 
ENDBRANCH  29  30
ENDBRANCH  27  29
ENDBRANCH   5  27
TORSDOF 7
