REMARK  Name = ZINC39554799
REMARK  7 active torsions:
REMARK  status: ('A' for Active; 'I' for Inactive)
REMARK    1  A    between atoms: C_1  and  C_2
REMARK    2  A    between atoms: C_2  and  N_3
REMARK    3  A    between atoms: N_14  and  N_15
REMARK    4  A    between atoms: C_16  and  C_18
REMARK    5  A    between atoms: C_19  and  C_31
REMARK    6  A    between atoms: C_21  and  C_30
REMARK    7  A    between atoms: C_23  and  C_27
REMARK                            x       y       z     vdW  Elec       q    Type
REMARK                         _______ _______ _______ _____ _____    ______ ____
ROOT
ATOM      1  N   UNL     1       4.063  -0.650   0.031  0.00  0.00    -0.230 N 
ATOM      2  C   UNL     1       4.706  -0.504   1.206  0.00  0.00    +0.267 C 
ATOM      3  O   UNL     1       4.098  -0.122   2.188  0.00  0.00    -0.268 OA
ATOM      4  H   UNL     1       4.547  -0.954  -0.753  0.00  0.00    +0.173 HD
ENDROOT
BRANCH   1  16
ATOM      5  N   UNL     1       0.707  -0.221  -1.309  0.00  0.00    -0.280 N 
ATOM      6  C   UNL     1       0.021  -0.347  -2.468  0.00  0.00    +0.263 A 
ATOM      7  O   UNL     1      -1.167  -0.088  -2.530  0.00  0.00    -0.267 OA
ATOM      8  C   UNL     1       0.762  -0.809  -3.649  0.00  0.00    +0.065 A 
ATOM      9  C   UNL     1       0.146  -0.971  -4.889  0.00  0.00    +0.015 A 
ATOM     10  C   UNL     1       0.884  -1.404  -5.957  0.00  0.00    +0.001 A 
ATOM     11  C   UNL     1       2.237  -1.683  -5.818  0.00  0.00    +0.002 A 
ATOM     12  C   UNL     1       2.866  -1.533  -4.614  0.00  0.00    +0.028 A 
ATOM     13  C   UNL     1       2.139  -1.092  -3.504  0.00  0.00    +0.080 A 
ATOM     14  N   UNL     1       2.722  -0.929  -2.293  0.00  0.00    -0.214 NA
ATOM     15  C   UNL     1       2.040  -0.510  -1.256  0.00  0.00    +0.216 A 
ATOM     16  N   UNL     1       2.695  -0.362  -0.060  0.00  0.00    -0.234 N 
ATOM     17  H   UNL     1       2.210  -0.057   0.724  0.00  0.00    +0.173 HD
BRANCH   5  19
ATOM     18  C   UNL     1       0.085   1.762  -0.020  0.00  0.00    +0.027 C 
ATOM     19  C   UNL     1       0.015   0.236  -0.101  0.00  0.00    +0.125 C 
ENDBRANCH   5  19
ENDBRANCH   1  16
BRANCH   2  20
ATOM     20  C   UNL     1       6.141  -0.806   1.301  0.00  0.00    +0.081 A 
ATOM     21  C   UNL     1       6.953  -0.726   2.388  0.00  0.00    -0.020 A 
ATOM     22  C   UNL     1       8.312  -1.062   2.273  0.00  0.00    +0.032 A 
ATOM     23  C   UNL     1       9.327  -1.052   3.261  0.00  0.00    +0.050 A 
ATOM     24  N   UNL     1      10.549  -1.408   2.934  0.00  0.00    -0.236 NA
ATOM     25  C   UNL     1      10.874  -1.780   1.708  0.00  0.00    +0.134 A 
ATOM     26  N   UNL     1       9.979  -1.812   0.740  0.00  0.00    -0.225 NA
ATOM     27  C   UNL     1       8.732  -1.471   0.980  0.00  0.00    +0.113 A 
ATOM     28  S   UNL     1       7.244  -1.375   0.018  0.00  0.00    -0.064 S 
ATOM     29  C   UNL     1       9.008  -0.635   4.674  0.00  0.00    +0.066 C 
ATOM     30  C   UNL     1       6.397  -0.277   3.715  0.00  0.00    +0.046 C 
BRANCH  25  31
ATOM     31  C   UNL     1      12.298  -2.175   1.409  0.00  0.00    +0.057 C 
ATOM     32  C   UNL     1      12.676  -2.402  -0.056  0.00  0.00    +0.012 C 
ATOM     33  C   UNL     1      12.544  -3.594   0.894  0.00  0.00    +0.012 C 
ENDBRANCH  25  31
ENDBRANCH   2  20
TORSDOF 4
