REMARK  Name = ZINC43558969
REMARK  7 active torsions:
REMARK  status: ('A' for Active; 'I' for Inactive)
REMARK    1  A    between atoms: C_1  and  C_2
REMARK    2  A    between atoms: C_2  and  O_3
REMARK    3  A    between atoms: O_3  and  C_4
REMARK    4  A    between atoms: C_6  and  C_20
REMARK    5  A    between atoms: C_9  and  O_10
REMARK    6  A    between atoms: O_10  and  C_11
REMARK    7  A    between atoms: C_20  and  N_21
REMARK                            x       y       z     vdW  Elec       q    Type
REMARK                         _______ _______ _______ _____ _____    ______ ____
ROOT
ATOM      1  C   UNL     1       0.715  -1.901  -1.389  0.00  0.00    +0.163 A 
ATOM      2  C   UNL     1       0.206  -2.799  -0.464  0.00  0.00    +0.051 A 
ATOM      3  C   UNL     1       0.422  -4.154  -0.625  0.00  0.00    -0.061 A 
ATOM      4  C   UNL     1       1.146  -4.618  -1.708  0.00  0.00    +0.005 A 
ATOM      5  C   UNL     1       1.657  -3.728  -2.634  0.00  0.00    +0.050 A 
ATOM      6  C   UNL     1       1.439  -2.368  -2.481  0.00  0.00    +0.172 A 
ENDROOT
BRANCH   1   7
ATOM      7  O   UNL     1       0.503  -0.567  -1.232  0.00  0.00    -0.489 OA
BRANCH   7   9
ATOM      8  C   UNL     1      -0.383   1.364  -0.080  0.00  0.00    +0.048 C 
ATOM      9  C   UNL     1      -0.249  -0.160  -0.086  0.00  0.00    +0.226 C 
ENDBRANCH   7   9
ENDBRANCH   1   7
BRANCH   6  10
ATOM     10  O   UNL     1       1.936  -1.492  -3.395  0.00  0.00    -0.433 OA
BRANCH  10  11
ATOM     11  C   UNL     1       3.139  -0.922  -3.140  0.00  0.00    +0.238 A 
ATOM     12  C   UNL     1       3.672   0.021  -3.999  0.00  0.00    +0.099 A 
ATOM     13  C   UNL     1       4.925   0.619  -3.740  0.00  0.00    +0.085 A 
ATOM     14  C   UNL     1       5.350   1.561  -4.693  0.00  0.00    +0.036 A 
ATOM     15  C   UNL     1       4.579   1.838  -5.762  0.00  0.00    +0.048 A 
ATOM     16  S   UNL     1       3.162   0.781  -5.517  0.00  0.00    -0.090 S 
ATOM     17  N   UNL     1       5.548   0.205  -2.610  0.00  0.00    -0.235 NA
ATOM     18  C   UNL     1       5.009  -0.690  -1.824  0.00  0.00    +0.225 A 
ATOM     19  N   UNL     1       3.835  -1.252  -2.054  0.00  0.00    -0.200 NA
ENDBRANCH  10  11
ENDBRANCH   6  10
BRANCH   3  20
ATOM     20  C   UNL     1      -0.132  -5.129   0.382  0.00  0.00    -0.050 C 
BRANCH  20  21
ATOM     21  N   UNL     1      -1.480  -5.544  -0.029  0.00  0.00    +0.381 N 
ATOM     22  H   UNL     1      -1.434  -5.986  -0.935  0.00  0.00    -0.090 HD
ATOM     23  H   UNL     1      -1.851  -6.197   0.645  0.00  0.00    -0.090 HD
ATOM     24  H   UNL     1      -2.080  -4.735  -0.079  0.00  0.00    -0.090 HD
ENDBRANCH  20  21
ENDBRANCH   3  20
TORSDOF 6
