REMARK  Name = ZINC39510450
REMARK  5 active torsions:
REMARK  status: ('A' for Active; 'I' for Inactive)
REMARK    1  A    between atoms: C_4  and  O_27
REMARK    2  A    between atoms: C_5  and  C_7
REMARK    3  A    between atoms: C_13  and  C_20
REMARK    4  A    between atoms: N_18  and  O_19
REMARK    5  A    between atoms: C_25  and  O_26
REMARK                            x       y       z     vdW  Elec       q    Type
REMARK                         _______ _______ _______ _____ _____    ______ ____
ROOT
ATOM      1  C   UNL     1       1.018  -1.739   1.652  0.00  0.00    +0.024 C 
ATOM      2  C   UNL     1       0.726  -1.936   0.144  0.00  0.00    +0.010 C 
ATOM      3  C   UNL     1       0.461  -3.450   0.004  0.00  0.00    +0.026 C 
ATOM      4  C   UNL     1       0.018  -3.945   1.389  0.00  0.00    +0.054 C 
ATOM      5  C   UNL     1       0.031  -2.722   2.329  0.00  0.00    +0.033 C 
ATOM      6  C   UNL     1      -1.394  -4.522   1.310  0.00  0.00    +0.045 C 
ATOM      7  C   UNL     1      -1.819  -5.015   2.696  0.00  0.00    +0.011 C 
ATOM      8  C   UNL     1      -0.803  -6.046   3.195  0.00  0.00    +0.018 C 
ATOM      9  C   UNL     1       0.588  -5.410   3.232  0.00  0.00    +0.115 C 
ATOM     10  N   UNL     1       0.956  -4.956   1.884  0.00  0.00    -0.184 NA
ENDROOT
BRANCH   1  15
ATOM     11  C   UNL     1      -0.785   1.527   2.236  0.00  0.00    +0.001 A 
ATOM     12  C   UNL     1       0.201   2.286   2.839  0.00  0.00    +0.004 A 
ATOM     13  C   UNL     1       1.453   1.746   3.060  0.00  0.00    +0.046 A 
ATOM     14  C   UNL     1       1.721   0.440   2.676  0.00  0.00    +0.120 A 
ATOM     15  C   UNL     1       0.731  -0.320   2.071  0.00  0.00    -0.003 A 
ATOM     16  C   UNL     1      -0.520   0.225   1.852  0.00  0.00    +0.007 A 
BRANCH  14  17
ATOM     17  O   UNL     1       2.952  -0.094   2.891  0.00  0.00    -0.506 OA
ATOM     18  H   UNL     1       3.045  -0.535   3.746  0.00  0.00    +0.292 HD
ENDBRANCH  14  17
ENDBRANCH   1  15
BRANCH   6  19
ATOM     19  C   UNL     1      -2.348  -3.453   0.841  0.00  0.00    -0.001 A 
ATOM     20  C   UNL     1      -2.560  -3.260  -0.511  0.00  0.00    +0.007 A 
ATOM     21  C   UNL     1      -3.435  -2.280  -0.941  0.00  0.00    +0.001 A 
ATOM     22  C   UNL     1      -4.100  -1.491  -0.021  0.00  0.00    +0.004 A 
ATOM     23  C   UNL     1      -3.892  -1.680   1.331  0.00  0.00    +0.046 A 
ATOM     24  C   UNL     1      -3.018  -2.667   1.766  0.00  0.00    +0.120 A 
BRANCH  24  25
ATOM     25  O   UNL     1      -2.816  -2.859   3.096  0.00  0.00    -0.506 OA
ATOM     26  H   UNL     1      -2.162  -2.262   3.485  0.00  0.00    +0.292 HD
ENDBRANCH  24  25
ENDBRANCH   6  19
BRANCH  10  27
ATOM     27  O   UNL     1       2.330  -4.454   1.857  0.00  0.00    -0.312 OA
ATOM     28  H   UNL     1       2.986  -5.088   2.175  0.00  0.00    +0.237 HD
ENDBRANCH  10  27
TORSDOF 5
