REMARK  Name = ZINC62211197
REMARK  10 active torsions:
REMARK  status: ('A' for Active; 'I' for Inactive)
REMARK    1  A    between atoms: C_1  and  C_2
REMARK    2  A    between atoms: C_2  and  C_3
REMARK    3  A    between atoms: C_2  and  C_4
REMARK    4  A    between atoms: C_4  and  O_5
REMARK    5  A    between atoms: O_5  and  C_6
REMARK    6  A    between atoms: C_9  and  C_14
REMARK    7  A    between atoms: C_11  and  O_12
REMARK    8  A    between atoms: O_12  and  C_13
REMARK    9  A    between atoms: C_16  and  N_24
REMARK   10  A    between atoms: N_22  and  C_23
REMARK                            x       y       z     vdW  Elec       q    Type
REMARK                         _______ _______ _______ _____ _____    ______ ____
ROOT
ATOM      1  C   UNL     1       2.873  -0.463  -2.262  0.00  0.00    +0.162 A 
ATOM      2  C   UNL     1       2.331  -1.179  -3.317  0.00  0.00    +0.050 A 
ATOM      3  C   UNL     1       3.129  -1.546  -4.385  0.00  0.00    +0.009 A 
ATOM      4  C   UNL     1       4.467  -1.200  -4.403  0.00  0.00    -0.025 A 
ATOM      5  C   UNL     1       5.014  -0.487  -3.354  0.00  0.00    +0.054 A 
ATOM      6  C   UNL     1       4.219  -0.110  -2.283  0.00  0.00    +0.162 A 
ENDROOT
BRANCH   4   7
ATOM      7  C   UNL     1       5.332  -1.603  -5.570  0.00  0.00    +0.092 C 
ATOM      8  C   UNL     1       5.109  -0.626  -6.725  0.00  0.00    -0.049 C 
ATOM      9  C   UNL     1       3.699  -0.843  -7.287  0.00  0.00    -0.005 C 
ATOM     10  C   UNL     1       3.649  -2.221  -7.952  0.00  0.00    +0.094 C 
ATOM     11  C   UNL     1       4.222  -3.256  -7.026  0.00  0.00    +0.216 C 
ATOM     12  O   UNL     1       3.972  -4.422  -7.245  0.00  0.00    -0.276 OA
ATOM     13  N   UNL     1       4.987  -2.959  -5.980  0.00  0.00    -0.299 N 
ATOM     14  C   UNL     1       5.517  -4.072  -5.188  0.00  0.00    +0.132 C 
BRANCH   8  15
ATOM     15  N   UNL     1       5.243   0.753  -6.237  0.00  0.00    +0.381 N 
ATOM     16  H   UNL     1       6.168   0.887  -5.857  0.00  0.00    -0.090 HD
ATOM     17  H   UNL     1       5.095   1.396  -7.001  0.00  0.00    -0.090 HD
ATOM     18  H   UNL     1       4.556   0.923  -5.517  0.00  0.00    -0.090 HD
ENDBRANCH   8  15
ENDBRANCH   4   7
BRANCH   6  19
ATOM     19  O   UNL     1       4.755   0.597  -1.252  0.00  0.00    -0.491 OA
ATOM     20  C   UNL     1       6.143   0.924  -1.341  0.00  0.00    +0.277 C 
ENDBRANCH   6  19
BRANCH   1  21
ATOM     21  O   UNL     1       2.090  -0.101  -1.210  0.00  0.00    -0.488 OA
BRANCH  21  22
ATOM     22  C   UNL     1       0.718  -0.497  -1.257  0.00  0.00    +0.232 C 
BRANCH  22  24
ATOM     23  C   UNL     1      -0.019   1.526   0.010  0.00  0.00    +0.010 C 
ATOM     24  C   UNL     1       0.002  -0.004   0.002  0.00  0.00    +0.020 C 
ATOM     25  C   UNL     1      -1.433  -0.534   0.013  0.00  0.00    +0.010 C 
ENDBRANCH  22  24
ENDBRANCH  21  22
ENDBRANCH   1  21
TORSDOF 6
