REMARK  Name = ZINC10608483
REMARK  7 active torsions:
REMARK  status: ('A' for Active; 'I' for Inactive)
REMARK    1  A    between atoms: C_1  and  C_2
REMARK    2  A    between atoms: C_2  and  C_3
REMARK    3  A    between atoms: C_2  and  C_4
REMARK    4  A    between atoms: C_2  and  N_5
REMARK    5  A    between atoms: N_8  and  C_9
REMARK    6  A    between atoms: C_9  and  C_10
REMARK    7  A    between atoms: N_14  and  C_15
REMARK                            x       y       z     vdW  Elec       q    Type
REMARK                         _______ _______ _______ _____ _____    ______ ____
ROOT
ATOM      1  C   UNL     1       2.502   1.856  -0.013  0.00  0.00    +0.183 C 
ENDROOT
BRANCH   1   5
ATOM      2  N   UNL     1       4.646   1.245  -2.936  0.00  0.00    -0.295 N 
ATOM      3  C   UNL     1       4.228   1.363  -1.660  0.00  0.00    +0.300 C 
ATOM      4  O   UNL     1       4.996   1.138  -0.745  0.00  0.00    -0.253 OA
ATOM      5  N   UNL     1       2.957   1.729  -1.399  0.00  0.00    -0.292 N 
ATOM      6  H   UNL     1       4.034   1.425  -3.666  0.00  0.00    +0.151 HD
ATOM      7  H   UNL     1       2.344   1.908  -2.129  0.00  0.00    +0.151 HD
BRANCH   2   9
ATOM      8  C   UNL     1       6.295  -0.533  -2.614  0.00  0.00    +0.031 C 
ATOM      9  C   UNL     1       6.027   0.847  -3.220  0.00  0.00    +0.028 C 
ATOM     10  C   UNL     1       6.241   0.790  -4.734  0.00  0.00    +0.031 C 
ATOM     11  C   UNL     1       6.989   1.867  -2.607  0.00  0.00    +0.031 C 
ENDBRANCH   2   9
ENDBRANCH   1   5
BRANCH   1  12
ATOM     12  C   UNL     1       1.054   2.275   0.004  0.00  0.00    +0.169 A 
ATOM     13  N   UNL     1       0.594   3.502   0.015  0.00  0.00    -0.112 NA
ATOM     14  N   UNL     1      -0.693   3.445   0.027  0.00  0.00    -0.023 NA
ATOM     15  N   UNL     1      -1.066   2.213   0.018  0.00  0.00    -0.044 NA
ATOM     16  N   UNL     1      -0.018   1.461   0.010  0.00  0.00    -0.225 N 
BRANCH  16  17
ATOM     17  C   UNL     1       0.002  -0.004   0.002  0.00  0.00    +0.111 C 
ATOM     18  C   UNL     1      -0.724  -0.517  -1.243  0.00  0.00    +0.027 C 
ATOM     19  C   UNL     1      -0.703  -2.047  -1.252  0.00  0.00    +0.002 C 
ATOM     20  C   UNL     1      -1.406  -2.573   0.002  0.00  0.00    +0.000 C 
ATOM     21  C   UNL     1      -0.679  -2.060   1.247  0.00  0.00    +0.002 C 
ATOM     22  C   UNL     1      -0.700  -0.530   1.255  0.00  0.00    +0.027 C 
ENDBRANCH  16  17
ENDBRANCH   1  12
TORSDOF 4
