REMARK  Name = ZINC52839959
REMARK  7 active torsions:
REMARK  status: ('A' for Active; 'I' for Inactive)
REMARK    1  A    between atoms: C_1  and  C_2
REMARK    2  A    between atoms: C_2  and  C_3
REMARK    3  A    between atoms: C_2  and  C_4
REMARK    4  A    between atoms: C_6  and  C_11
REMARK    5  A    between atoms: C_7  and  N_10
REMARK    6  A    between atoms: N_8  and  N_9
REMARK    7  A    between atoms: C_16  and  C_17
REMARK                            x       y       z     vdW  Elec       q    Type
REMARK                         _______ _______ _______ _____ _____    ______ ____
ROOT
ATOM      1  C   UNL     1       0.731  -0.503   1.223  0.00  0.00    +0.109 A 
ATOM      2  N   UNL     1       1.753   0.077   1.784  0.00  0.00    -0.340 N 
ATOM      3  C   UNL     1       2.147  -0.646   2.853  0.00  0.00    +0.088 A 
ATOM      4  C   UNL     1       1.319  -1.730   2.951  0.00  0.00    +0.139 A 
ATOM      5  N   UNL     1       0.423  -1.632   1.922  0.00  0.00    -0.240 N 
ATOM      6  H   UNL     1       2.166   0.901   1.480  0.00  0.00    +0.167 HD
ENDROOT
BRANCH   3   7
ATOM      7  C   UNL     1       3.275  -0.324   3.757  0.00  0.00    +0.013 A 
ATOM      8  C   UNL     1       3.228   0.819   4.556  0.00  0.00    +0.010 A 
ATOM      9  C   UNL     1       4.281   1.113   5.397  0.00  0.00    +0.001 A 
ATOM     10  C   UNL     1       5.383   0.278   5.449  0.00  0.00    +0.001 A 
ATOM     11  C   UNL     1       5.435  -0.857   4.660  0.00  0.00    +0.013 A 
ATOM     12  C   UNL     1       4.386  -1.165   3.819  0.00  0.00    +0.064 A 
BRANCH  12  13
ATOM     13  C   UNL     1       4.442  -2.406   2.965  0.00  0.00    +0.418 C 
ATOM     14  F   UNL     1       5.644  -3.080   3.200  0.00  0.00    -0.166 F 
ATOM     15  F   UNL     1       3.367  -3.242   3.285  0.00  0.00    -0.166 F 
ATOM     16  F   UNL     1       4.366  -2.046   1.615  0.00  0.00    -0.166 F 
ENDBRANCH  12  13
ENDBRANCH   3   7
BRANCH   1  18
ATOM     17  C   UNL     1      -0.019   1.526   0.010  0.00  0.00    +0.015 C 
ATOM     18  C   UNL     1       0.002  -0.004   0.002  0.00  0.00    +0.049 C 
ATOM     19  C   UNL     1       0.718  -0.497  -1.257  0.00  0.00    +0.015 C 
ENDBRANCH   1  18
BRANCH   5  20
ATOM     20  N   UNL     1      -0.590  -2.505   1.644  0.00  0.00    -0.295 N 
ATOM     21  H   UNL     1      -0.278  -3.235   1.021  0.00  0.00    +0.163 HD
ATOM     22  H   UNL     1      -0.975  -2.894   2.492  0.00  0.00    +0.163 HD
ENDBRANCH   5  20
BRANCH   4  23
ATOM     23  N   UNL     1       1.374  -2.734   3.912  0.00  0.00    -0.342 N 
ATOM     24  H   UNL     1       2.053  -2.705   4.605  0.00  0.00    +0.144 HD
ATOM     25  H   UNL     1       0.735  -3.463   3.889  0.00  0.00    +0.144 HD
ENDBRANCH   4  23
TORSDOF 5
