REMARK  Name = ZINC20127160
REMARK  8 active torsions:
REMARK  status: ('A' for Active; 'I' for Inactive)
REMARK    1  A    between atoms: C_1  and  C_2
REMARK    2  A    between atoms: C_6  and  C_21
REMARK    3  A    between atoms: C_8  and  N_11
REMARK    4  A    between atoms: N_11  and  C_12
REMARK    5  A    between atoms: C_12  and  C_13
REMARK    6  A    between atoms: C_13  and  C_14
REMARK    7  A    between atoms: C_21  and  C_22
REMARK    8  A    between atoms: C_21  and  C_23
REMARK                            x       y       z     vdW  Elec       q    Type
REMARK                         _______ _______ _______ _____ _____    ______ ____
ROOT
ATOM      1  N   UNL     1      -2.107   1.071   1.277  0.00  0.00    +0.381 N 
ATOM      2  H   UNL     1      -2.739   1.738   1.882  0.00  0.00    -0.086 HD
ATOM      3  H   UNL     1      -2.492   1.034   0.247  0.00  0.00    -0.086 HD
ENDROOT
BRANCH   1   9
ATOM      4  C   UNL     1      -0.037   1.099  -2.490  0.00  0.00    +0.007 C 
ATOM      5  C   UNL     1      -0.753   1.593  -1.232  0.00  0.00    -0.016 C 
ATOM      6  C   UNL     1      -0.773   3.123  -1.223  0.00  0.00    +0.003 C 
ATOM      7  C   UNL     1      -1.490   3.616   0.036  0.00  0.00    +0.002 C 
ATOM      8  C   UNL     1      -0.750   3.109   1.275  0.00  0.00    -0.022 C 
ATOM      9  C   UNL     1      -0.729   1.579   1.267  0.00  0.00    -0.068 C 
ATOM     10  C   UNL     1      -0.013   1.086   0.008  0.00  0.00    -0.012 C 
BRANCH   8  11
ATOM     11  C   UNL     1      -1.466   3.603   2.534  0.00  0.00    -0.016 C 
ATOM     12  C   UNL     1      -0.726   3.096   3.774  0.00  0.00    +0.007 C 
ATOM     13  C   UNL     1      -1.486   5.132   2.542  0.00  0.00    +0.007 C 
ENDBRANCH   8  11
ENDBRANCH   1   9
BRANCH   1  14
ATOM     14  C   UNL     1      -2.165  -0.281   1.850  0.00  0.00    -0.073 C 
BRANCH  14  15
ATOM     15  C   UNL     1      -3.613  -0.775   1.844  0.00  0.00    +0.077 C 
BRANCH  15  16
ATOM     16  C   UNL     1      -3.673  -2.162   2.432  0.00  0.00    +0.214 C 
ATOM     17  O   UNL     1      -2.657  -2.701   2.818  0.00  0.00    -0.276 OA
ATOM     18  N   UNL     1      -4.855  -2.802   2.529  0.00  0.00    -0.302 N 
ATOM     19  C   UNL     1      -6.157  -2.265   2.108  0.00  0.00    +0.108 C 
ATOM     20  C   UNL     1      -7.220  -3.336   2.432  0.00  0.00    +0.020 C 
ATOM     21  C   UNL     1      -6.535  -4.178   3.541  0.00  0.00    +0.020 C 
ATOM     22  C   UNL     1      -5.056  -4.154   3.080  0.00  0.00    +0.108 C 
ENDBRANCH  15  16
ENDBRANCH  14  15
ENDBRANCH   1  14
TORSDOF 5
