REMARK  Name = ZINC38597140
REMARK  9 active torsions:
REMARK  status: ('A' for Active; 'I' for Inactive)
REMARK    1  A    between atoms: C_1  and  O_2
REMARK    2  A    between atoms: O_2  and  C_3
REMARK    3  A    between atoms: C_3  and  C_5
REMARK    4  A    between atoms: C_7  and  N_16
REMARK    5  A    between atoms: C_17  and  C_19
REMARK    6  A    between atoms: C_19  and  N_20
REMARK    7  A    between atoms: N_23  and  C_26
REMARK    8  A    between atoms: C_26  and  C_27
REMARK    9  A    between atoms: C_27  and  O_28
REMARK                            x       y       z     vdW  Elec       q    Type
REMARK                         _______ _______ _______ _____ _____    ______ ____
ROOT
ATOM      1  N   UNL     1       0.077  -2.514  -1.992  0.00  0.00    -0.288 N 
ATOM      2  C   UNL     1       0.153  -2.935  -3.270  0.00  0.00    +0.200 C 
ATOM      3  O   UNL     1      -0.830  -3.383  -3.820  0.00  0.00    -0.278 OA
ATOM      4  H   UNL     1       0.840  -2.080  -1.578  0.00  0.00    +0.155 HD
ENDROOT
BRANCH   1   6
ATOM      5  C   UNL     1      -2.280  -3.507  -1.694  0.00  0.00    +0.234 C 
ATOM      6  C   UNL     1      -1.071  -2.698  -1.281  0.00  0.00    +0.053 C 
ATOM      7  C   UNL     1      -1.371  -2.185  -0.031  0.00  0.00    +0.019 A 
ATOM      8  C   UNL     1      -0.645  -1.359   0.861  0.00  0.00    +0.031 A 
ATOM      9  C   UNL     1      -1.198  -1.003   2.047  0.00  0.00    +0.042 A 
ATOM     10  C   UNL     1      -2.477  -1.431   2.418  0.00  0.00    +0.022 A 
ATOM     11  C   UNL     1      -3.228  -2.223   1.614  0.00  0.00    +0.027 A 
ATOM     12  C   UNL     1      -2.718  -2.637   0.356  0.00  0.00    +0.045 A 
ATOM     13  N   UNL     1      -3.240  -3.392  -0.592  0.00  0.00    -0.367 N 
ATOM     14 CL   UNL     1      -0.297   0.009   3.133  0.00  0.00    -0.084 Cl
ATOM     15  H   UNL     1      -4.118  -3.804  -0.564  0.00  0.00    +0.161 HD
BRANCH   5  16
ATOM     16  C   UNL     1      -1.896  -4.949  -1.899  0.00  0.00    +0.335 C 
ATOM     17  O   UNL     1      -1.997  -5.737  -0.989  0.00  0.00    -0.248 OA
BRANCH  16  19
ATOM     18  C   UNL     1      -1.094  -6.740  -3.217  0.00  0.00    +0.280 C 
ATOM     19  O   UNL     1      -1.440  -5.359  -3.093  0.00  0.00    -0.466 OA
ENDBRANCH  16  19
ENDBRANCH   5  16
ENDBRANCH   1   6
BRANCH   2  20
ATOM     20  C   UNL     1       1.460  -2.849  -4.015  0.00  0.00    +0.019 C 
BRANCH  20  21
ATOM     21  N   UNL     1       1.282  -3.367  -5.378  0.00  0.00    +0.387 N 
ATOM     22  C   UNL     1       0.959  -4.798  -5.320  0.00  0.00    -0.063 C 
ATOM     23  C   UNL     1       0.755  -5.334  -6.739  0.00  0.00    +0.066 C 
ATOM     24  N   UNL     1       1.981  -5.122  -7.521  0.00  0.00    -0.304 NA
ATOM     25  C   UNL     1       2.330  -3.695  -7.568  0.00  0.00    +0.066 C 
ATOM     26  C   UNL     1       2.522  -3.173  -6.142  0.00  0.00    -0.063 C 
ATOM     27  H   UNL     1       0.528  -2.871  -5.830  0.00  0.00    -0.081 HD
BRANCH  24  28
ATOM     28  C   UNL     1       1.844  -5.674  -8.875  0.00  0.00    +0.112 C 
BRANCH  28  29
ATOM     29  C   UNL     1       3.206  -5.661  -9.572  0.00  0.00    +0.171 C 
BRANCH  29  30
ATOM     30  O   UNL     1       4.098  -6.546  -8.891  0.00  0.00    -0.394 OA
ATOM     31  H   UNL     1       4.982  -6.588  -9.279  0.00  0.00    +0.209 HD
ENDBRANCH  29  30
ENDBRANCH  28  29
ENDBRANCH  24  28
ENDBRANCH  20  21
ENDBRANCH   2  20
TORSDOF 8
