REMARK  Name = ZINC67003296
REMARK  11 active torsions:
REMARK  status: ('A' for Active; 'I' for Inactive)
REMARK    1  A    between atoms: C_1  and  C_2
REMARK    2  A    between atoms: C_5  and  C_8
REMARK    3  A    between atoms: C_8  and  C_10
REMARK    4  A    between atoms: C_8  and  N_23
REMARK    5  A    between atoms: C_10  and  N_11
REMARK    6  A    between atoms: N_14  and  C_15
REMARK    7  A    between atoms: C_15  and  C_16
REMARK    8  A    between atoms: C_16  and  C_17
REMARK    9  A    between atoms: C_17  and  N_18
REMARK   10  A    between atoms: N_23  and  C_24
REMARK   11  A    between atoms: N_23  and  C_25
REMARK                            x       y       z     vdW  Elec       q    Type
REMARK                         _______ _______ _______ _____ _____    ______ ____
ROOT
ATOM      1  N   UNL     1      -1.115  -6.359   0.374  0.00  0.00    -0.301 N 
ATOM      2  C   UNL     1      -2.197  -7.131   0.595  0.00  0.00    +0.300 C 
ATOM      3  O   UNL     1      -3.280  -6.617   0.801  0.00  0.00    -0.253 OA
ATOM      4  N   UNL     1      -2.079  -8.474   0.588  0.00  0.00    -0.299 N 
ATOM      5  H   UNL     1      -0.252  -6.769   0.210  0.00  0.00    +0.150 HD
ATOM      6  H   UNL     1      -1.216  -8.884   0.423  0.00  0.00    +0.150 HD
ENDROOT
BRANCH   1   7
ATOM      7  C   UNL     1      -1.244  -4.899   0.382  0.00  0.00    +0.095 C 
BRANCH   7   8
ATOM      8  C   UNL     1       0.090  -4.268  -0.022  0.00  0.00    -0.021 C 
BRANCH   8  13
ATOM      9  C   UNL     1       1.299  -5.664  -5.497  0.00  0.00    +0.044 C 
ATOM     10  C   UNL     1       0.984  -5.300  -4.070  0.00  0.00    -0.050 A 
ATOM     11  C   UNL     1       1.585  -5.987  -3.032  0.00  0.00    +0.003 A 
ATOM     12  C   UNL     1       1.296  -5.653  -1.722  0.00  0.00    +0.002 A 
ATOM     13  C   UNL     1       0.406  -4.631  -1.450  0.00  0.00    -0.059 A 
ATOM     14  C   UNL     1      -0.195  -3.943  -2.487  0.00  0.00    +0.002 A 
ATOM     15  C   UNL     1       0.097  -4.274  -3.797  0.00  0.00    +0.003 A 
ENDBRANCH   8  13
BRANCH   8  16
ATOM     16  N   UNL     1      -0.002  -2.807   0.103  0.00  0.00    +0.382 N 
ATOM     17  C   UNL     1      -0.292  -2.452   1.498  0.00  0.00    -0.096 C 
ATOM     18  C   UNL     1       1.273  -2.200  -0.302  0.00  0.00    -0.096 C 
ATOM     19  H   UNL     1      -0.742  -2.465  -0.492  0.00  0.00    -0.082 HD
ENDBRANCH   8  16
ENDBRANCH   7   8
ENDBRANCH   1   7
BRANCH   4  20
ATOM     20  C   UNL     1      -3.255  -9.314   0.827  0.00  0.00    +0.107 C 
BRANCH  20  21
ATOM     21  C   UNL     1      -2.850 -10.788   0.765  0.00  0.00    +0.040 C 
BRANCH  21  22
ATOM     22  C   UNL     1      -4.079 -11.665   1.016  0.00  0.00    +0.124 C 
BRANCH  22  23
ATOM     23  N   UNL     1      -3.691 -13.077   0.957  0.00  0.00    -0.338 N 
ATOM     24  C   UNL     1      -3.682 -13.870  -0.159  0.00  0.00    +0.104 A 
ATOM     25  C   UNL     1      -3.260 -15.088   0.233  0.00  0.00    +0.101 A 
ATOM     26  N   UNL     1      -3.019 -15.040   1.552  0.00  0.00    -0.352 N 
ATOM     27  C   UNL     1      -3.270 -13.836   1.991  0.00  0.00    +0.173 A 
ATOM     28  H   UNL     1      -2.704 -15.781   2.093  0.00  0.00    +0.166 HD
ENDBRANCH  22  23
ENDBRANCH  21  22
ENDBRANCH  20  21
ENDBRANCH   4  20
TORSDOF 8
