REMARK  Name = ZINC06499292
REMARK  9 active torsions:
REMARK  status: ('A' for Active; 'I' for Inactive)
REMARK    1  A    between atoms: C_1  and  C_2
REMARK    2  A    between atoms: C_2  and  C_3
REMARK    3  A    between atoms: C_3  and  C_4
REMARK    4  A    between atoms: C_7  and  C_18
REMARK    5  A    between atoms: C_13  and  N_17
REMARK    6  A    between atoms: C_14  and  C_15
REMARK    7  A    between atoms: C_18  and  C_19
REMARK    8  A    between atoms: C_18  and  C_20
REMARK    9  A    between atoms: C_18  and  C_21
REMARK                            x       y       z     vdW  Elec       q    Type
REMARK                         _______ _______ _______ _____ _____    ______ ____
ROOT
ATOM      1  C   UNL     1       1.015  -1.975   1.322  0.00  0.00    +0.071 C 
ATOM      2  C   UNL     1       1.454  -2.813   2.495  0.00  0.00    +0.045 A 
ATOM      3  C   UNL     1       0.975  -2.852   3.747  0.00  0.00    +0.049 A 
ATOM      4  N   UNL     1       1.700  -3.763   4.436  0.00  0.00    -0.277 N 
ATOM      5  H   UNL     1       1.577  -4.001   5.368  0.00  0.00    +0.189 HD
ATOM      6  N   UNL     1       2.661  -4.302   3.567  0.00  0.00    -0.135 NA
ATOM      7  C   UNL     1       2.518  -3.738   2.404  0.00  0.00    +0.244 A 
ATOM      8  O   UNL     1       3.209  -3.931   1.248  0.00  0.00    -0.422 OA
ATOM      9  C   UNL     1       2.684  -3.416   0.118  0.00  0.00    +0.200 C 
ATOM     10  C   UNL     1       1.676  -2.518   0.081  0.00  0.00    +0.094 C 
ENDROOT
BRANCH   3  11
ATOM     11  C   UNL     1      -0.165  -2.028   4.289  0.00  0.00    +0.004 C 
ATOM     12  C   UNL     1       0.390  -0.789   4.993  0.00  0.00    +0.017 C 
ATOM     13  C   UNL     1      -1.074  -1.596   3.136  0.00  0.00    +0.017 C 
ATOM     14  C   UNL     1      -0.970  -2.865   5.286  0.00  0.00    +0.017 C 
ENDBRANCH   3  11
BRANCH   9  15
ATOM     15  N   UNL     1       3.211  -3.834  -1.079  0.00  0.00    -0.328 N 
ATOM     16  H   UNL     1       3.935  -4.479  -1.091  0.00  0.00    +0.145 HD
ATOM     17  H   UNL     1       2.858  -3.486  -1.912  0.00  0.00    +0.145 HD
ENDBRANCH   9  15
BRANCH  10  18
ATOM     18  C   UNL     1       1.214  -2.061  -1.195  0.00  0.00    +0.100 C 
ATOM     19  N   UNL     1       0.847  -1.699  -2.208  0.00  0.00    -0.191 NA
ENDBRANCH  10  18
BRANCH   1  20
ATOM     20  C   UNL     1       1.439  -0.521   1.538  0.00  0.00    +0.014 C 
BRANCH  20  22
ATOM     21  C   UNL     1       1.307   1.801   0.624  0.00  0.00    +0.004 C 
ATOM     22  C   UNL     1       0.883   0.347   0.407  0.00  0.00    -0.002 C 
ENDBRANCH  20  22
ENDBRANCH   1  20
TORSDOF 5
