REMARK  Name = ZINC34485133
REMARK  6 active torsions:
REMARK  status: ('A' for Active; 'I' for Inactive)
REMARK    1  A    between atoms: C_1  and  C_2
REMARK    2  A    between atoms: C_2  and  C_3
REMARK    3  A    between atoms: C_2  and  C_4
REMARK    4  A    between atoms: C_2  and  O_5
REMARK    5  A    between atoms: O_5  and  C_6
REMARK    6  A    between atoms: N_8  and  C_9
REMARK                            x       y       z     vdW  Elec       q    Type
REMARK                         _______ _______ _______ _____ _____    ______ ____
ROOT
ATOM      1  C   UNL     1       1.952  -0.085  -1.337  0.00  0.00    +0.402 C 
ATOM      2  O   UNL     1       2.488   0.619  -0.503  0.00  0.00    -0.226 OA
ATOM      3  N   UNL     1       2.641  -0.485  -2.424  0.00  0.00    -0.262 N 
ATOM      4  H   UNL     1       2.213  -1.047  -3.089  0.00  0.00    +0.154 HD
ENDROOT
BRANCH   3   5
ATOM      5  C   UNL     1       4.035  -0.071  -2.601  0.00  0.00    +0.174 C 
ATOM      6  C   UNL     1       4.883  -1.305  -3.006  0.00  0.00    +0.121 C 
ATOM      7  S   UNL     1       6.080  -0.470  -4.133  0.00  0.00    -0.064 S 
ATOM      8  C   UNL     1       5.109   0.982  -4.503  0.00  0.00    +0.273 C 
ATOM      9  O   UNL     1       5.317   1.807  -5.372  0.00  0.00    -0.263 OA
ATOM     10  N   UNL     1       4.098   0.966  -3.615  0.00  0.00    -0.287 N 
ATOM     11  H   UNL     1       3.411   1.650  -3.652  0.00  0.00    +0.151 HD
ENDBRANCH   3   5
BRANCH   1  12
ATOM     12  O   UNL     1       0.671  -0.465  -1.174  0.00  0.00    -0.445 OA
BRANCH  12  14
ATOM     13  C   UNL     1      -0.019   1.526   0.010  0.00  0.00    +0.055 C 
ATOM     14  C   UNL     1       0.002  -0.004   0.002  0.00  0.00    +0.107 C 
ATOM     15  C   UNL     1       0.742  -0.511   1.242  0.00  0.00    +0.055 C 
ATOM     16  C   UNL     1      -1.433  -0.534   0.013  0.00  0.00    +0.055 C 
ENDBRANCH  12  14
ENDBRANCH   1  12
TORSDOF 3
