REMARK  Name = ZINC65396135
REMARK  3 active torsions:
REMARK  status: ('A' for Active; 'I' for Inactive)
REMARK    1  A    between atoms: N_4  and  C_7
REMARK    2  A    between atoms: C_7  and  C_23
REMARK    3  A    between atoms: C_13  and  C_15
REMARK                            x       y       z     vdW  Elec       q    Type
REMARK                         _______ _______ _______ _____ _____    ______ ____
ROOT
ATOM      1  C   UNL     1       2.929  -0.515  -2.288  0.00  0.00    +0.015 C 
ATOM      2  C   UNL     1       4.437  -0.328  -2.465  0.00  0.00    +0.016 C 
ATOM      3  C   UNL     1       4.930  -1.230  -3.600  0.00  0.00    +0.107 C 
ATOM      4  N   UNL     1       4.522  -2.613  -3.317  0.00  0.00    -0.301 N 
ATOM      5  C   UNL     1       3.106  -2.889  -3.043  0.00  0.00    +0.107 C 
ATOM      6  C   UNL     1       2.633  -1.969  -1.913  0.00  0.00    +0.016 C 
ATOM      7  C   UNL     1       5.431  -3.608  -3.309  0.00  0.00    +0.221 C 
ATOM      8  O   UNL     1       6.597  -3.367  -3.538  0.00  0.00    -0.275 OA
ENDROOT
BRANCH   7   9
ATOM      9  C   UNL     1       4.997  -5.022  -3.017  0.00  0.00    +0.047 C 
ATOM     10  C   UNL     1       4.394  -5.171  -1.604  0.00  0.00    -0.065 C 
ATOM     11  N   UNL     1       5.504  -5.704  -0.774  0.00  0.00    +0.380 N 
ATOM     12  C   UNL     1       6.180  -6.687  -1.658  0.00  0.00    -0.077 C 
ATOM     13  C   UNL     1       6.180  -6.026  -3.053  0.00  0.00    +0.000 C 
ATOM     14  C   UNL     1       5.779  -7.072  -4.113  0.00  0.00    +0.083 C 
ATOM     15  N   UNL     1       4.815  -6.366  -4.994  0.00  0.00    -0.315 NA
ATOM     16  C   UNL     1       3.993  -5.556  -4.059  0.00  0.00    +0.095 C 
ATOM     17  H   UNL     1       6.140  -4.963  -0.518  0.00  0.00    -0.086 HD
ATOM     18  H   UNL     1       5.295  -5.776  -5.657  0.00  0.00    +0.122 HD
ATOM     19  H   UNL     1       5.142  -6.160   0.049  0.00  0.00    -0.086 HD
ENDBRANCH   7   9
BRANCH   1  23
ATOM     20  C   UNL     1       0.815   2.534  -0.191  0.00  0.00    -0.004 C 
ATOM     21  C   UNL     1       2.319   2.689  -0.431  0.00  0.00    -0.019 C 
ATOM     22  C   UNL     1       2.746   1.766  -1.575  0.00  0.00    -0.077 C 
ATOM     23  N   UNL     1       2.447   0.373  -1.222  0.00  0.00    +0.389 N 
ATOM     24  C   UNL     1       0.998   0.201  -1.061  0.00  0.00    -0.077 C 
ATOM     25  C   UNL     1       0.504   1.063   0.103  0.00  0.00    -0.019 C 
ATOM     26  H   UNL     1       2.911   0.140  -0.357  0.00  0.00    -0.080 HD
ENDBRANCH   1  23
BRANCH   1  27
ATOM     27  C   UNL     1       2.227  -0.177  -3.578  0.00  0.00    +0.200 C 
ATOM     28  O   UNL     1       1.342  -0.895  -3.994  0.00  0.00    -0.278 OA
ATOM     29  N   UNL     1       2.583   0.923  -4.271  0.00  0.00    -0.330 N 
ATOM     30  H   UNL     1       3.338   1.457  -3.979  0.00  0.00    +0.145 HD
ATOM     31  H   UNL     1       2.083   1.182  -5.061  0.00  0.00    +0.145 HD
ENDBRANCH   1  27
TORSDOF 3
