REMARK  Name = ZINC64310499
REMARK  8 active torsions:
REMARK  status: ('A' for Active; 'I' for Inactive)
REMARK    1  A    between atoms: C_1  and  C_2
REMARK    2  A    between atoms: C_2  and  C_3
REMARK    3  A    between atoms: C_3  and  C_5
REMARK    4  A    between atoms: C_3  and  N_14
REMARK    5  A    between atoms: C_10  and  C_13
REMARK    6  A    between atoms: N_14  and  C_15
REMARK    7  A    between atoms: C_15  and  C_16
REMARK    8  A    between atoms: C_16  and  C_17
REMARK                            x       y       z     vdW  Elec       q    Type
REMARK                         _______ _______ _______ _____ _____    ______ ____
ROOT
ATOM      1  N   UNL     1      -2.065  -0.040  -1.087  0.00  0.00    +0.387 N 
ATOM      2  H   UNL     1      -1.647  -0.423  -1.922  0.00  0.00    -0.085 HD
ATOM      3  H   UNL     1      -3.029  -0.331  -1.029  0.00  0.00    -0.085 HD
ENDROOT
BRANCH   1   4
ATOM      4  C   UNL     1      -1.334  -0.524   0.092  0.00  0.00    +0.016 C 
BRANCH   4   5
ATOM      5  C   UNL     1      -2.054  -0.088   1.342  0.00  0.00    +0.204 C 
ATOM      6  O   UNL     1      -3.075   0.561   1.259  0.00  0.00    -0.277 OA
ATOM      7  N   UNL     1      -1.563  -0.421   2.552  0.00  0.00    -0.269 N 
ATOM      8  C   UNL     1      -2.229  -0.018   3.710  0.00  0.00    +0.168 A 
ATOM      9  C   UNL     1      -3.425   0.733   3.763  0.00  0.00    +0.091 A 
ATOM     10  C   UNL     1      -3.745   0.916   5.056  0.00  0.00    +0.136 A 
ATOM     11  O   UNL     1      -2.809   0.317   5.809  0.00  0.00    -0.358 OA
ATOM     12  N   UNL     1      -1.861  -0.274   4.939  0.00  0.00    -0.063 NA
ATOM     13  C   UNL     1      -4.947   1.665   5.571  0.00  0.00    +0.089 C 
ATOM     14  H   UNL     1      -0.746  -0.941   2.619  0.00  0.00    +0.156 HD
ENDBRANCH   4   5
BRANCH   4  16
ATOM     15  C   UNL     1      -0.412  -2.489  -1.145  0.00  0.00    +0.002 C 
ATOM     16  C   UNL     1      -1.258  -2.051   0.052  0.00  0.00    -0.010 C 
ENDBRANCH   4  16
ENDBRANCH   1   4
BRANCH   1  17
ATOM     17  C   UNL     1      -1.999   1.427  -1.136  0.00  0.00    -0.077 C 
BRANCH  17  18
ATOM     18  C   UNL     1      -2.648   1.924  -2.429  0.00  0.00    +0.014 C 
BRANCH  18  19
ATOM     19  C   UNL     1      -2.580   3.429  -2.479  0.00  0.00    -0.043 C 
ATOM     20  C   UNL     1      -1.640   4.180  -3.094  0.00  0.00    -0.001 A 
ATOM     21  C   UNL     1      -0.442   3.834  -3.870  0.00  0.00    +0.013 A 
ATOM     22  C   UNL     1       0.324   4.827  -4.372  0.00  0.00    +0.039 A 
ATOM     23  C   UNL     1       0.004   6.179  -4.170  0.00  0.00    +0.125 A 
ATOM     24  C   UNL     1      -1.082   6.575  -3.466  0.00  0.00    +0.064 A 
ATOM     25  C   UNL     1      -1.956   5.613  -2.895  0.00  0.00    +0.046 A 
ATOM     26  N   UNL     1      -3.051   5.742  -2.184  0.00  0.00    -0.380 N 
ATOM     27  C   UNL     1      -3.555   4.404  -1.857  0.00  0.00    +0.144 C 
ATOM     28  F   UNL     1       0.813   7.123  -4.700  0.00  0.00    -0.205 F 
ATOM     29  H   UNL     1      -3.460   6.581  -1.922  0.00  0.00    +0.160 HD
ENDBRANCH  18  19
ENDBRANCH  17  18
ENDBRANCH   1  17
TORSDOF 6
