REMARK  Name = ZINC39919352
REMARK  6 active torsions:
REMARK  status: ('A' for Active; 'I' for Inactive)
REMARK    1  A    between atoms: C_1  and  C_2
REMARK    2  A    between atoms: C_2  and  O_3
REMARK    3  A    between atoms: O_3  and  C_4
REMARK    4  A    between atoms: C_7  and  C_10
REMARK    5  A    between atoms: C_25  and  N_29
REMARK    6  A    between atoms: C_26  and  C_27
REMARK                            x       y       z     vdW  Elec       q    Type
REMARK                         _______ _______ _______ _____ _____    ______ ____
ROOT
ATOM      1  C   UNL     1      -2.001  -6.092  -0.011  0.00  0.00    +0.084 C 
ATOM      2  C   UNL     1      -2.782  -6.507  -1.262  0.00  0.00    +0.154 C 
ATOM      3  C   UNL     1      -3.253  -7.926  -0.990  0.00  0.00    +0.129 C 
ATOM      4  C   UNL     1      -2.849  -8.926  -1.861  0.00  0.00    +0.035 A 
ATOM      5  C   UNL     1      -3.262 -10.263  -1.685  0.00  0.00    +0.013 A 
ATOM      6  C   UNL     1      -2.849 -11.216  -2.565  0.00  0.00    +0.001 A 
ATOM      7  C   UNL     1      -2.024 -10.899  -3.639  0.00  0.00    +0.002 A 
ATOM      8  C   UNL     1      -1.589  -9.627  -3.861  0.00  0.00    +0.024 A 
ATOM      9  C   UNL     1      -1.974  -8.592  -2.992  0.00  0.00    +0.044 A 
ATOM     10  N   UNL     1      -1.540  -7.344  -3.205  0.00  0.00    -0.284 N 
ATOM     11  C   UNL     1      -1.871  -6.295  -2.451  0.00  0.00    +0.229 C 
ATOM     12  O   UNL     1      -1.444  -5.182  -2.700  0.00  0.00    -0.275 OA
ATOM     13  O   UNL     1      -4.021  -8.148   0.079  0.00  0.00    -0.444 OA
ATOM     14  C   UNL     1      -3.688  -7.488   1.213  0.00  0.00    +0.198 C 
ATOM     15  C   UNL     1      -2.755  -6.511   1.220  0.00  0.00    +0.095 C 
ATOM     16  H   UNL     1      -0.953  -7.188  -3.961  0.00  0.00    +0.155 HD
ENDROOT
BRANCH   1  20
ATOM     17  C   UNL     1      -1.498  -1.848   0.006  0.00  0.00    +0.121 A 
ATOM     18  C   UNL     1      -0.388  -2.679  -0.003  0.00  0.00    +0.046 A 
ATOM     19  C   UNL     1      -0.553  -4.051  -0.008  0.00  0.00    +0.008 A 
ATOM     20  C   UNL     1      -1.823  -4.596  -0.005  0.00  0.00    -0.038 A 
ATOM     21  C   UNL     1      -2.932  -3.769   0.004  0.00  0.00    +0.008 A 
ATOM     22  C   UNL     1      -2.772  -2.397   0.016  0.00  0.00    +0.046 A 
BRANCH  17  23
ATOM     23  O   UNL     1      -1.339  -0.499   0.012  0.00  0.00    -0.492 OA
BRANCH  23  25
ATOM     24  C   UNL     1      -0.019   1.526   0.010  0.00  0.00    +0.048 C 
ATOM     25  C   UNL     1       0.002  -0.004   0.002  0.00  0.00    +0.225 C 
ENDBRANCH  23  25
ENDBRANCH  17  23
ENDBRANCH   1  20
BRANCH  14  26
ATOM     26  N   UNL     1      -4.316  -7.820   2.388  0.00  0.00    -0.328 N 
ATOM     27  H   UNL     1      -4.989  -8.519   2.397  0.00  0.00    +0.145 HD
ATOM     28  H   UNL     1      -4.087  -7.356   3.208  0.00  0.00    +0.145 HD
ENDBRANCH  14  26
BRANCH  15  29
ATOM     29  C   UNL     1      -2.472  -5.847   2.457  0.00  0.00    +0.100 C 
ATOM     30  N   UNL     1      -2.247  -5.320   3.437  0.00  0.00    -0.191 NA
ENDBRANCH  15  29
TORSDOF 5
