REMARK  Name = ZINC65266426
REMARK  8 active torsions:
REMARK  status: ('A' for Active; 'I' for Inactive)
REMARK    1  A    between atoms: C_1  and  C_2
REMARK    2  A    between atoms: C_4  and  O_29
REMARK    3  A    between atoms: C_7  and  C_8
REMARK    4  A    between atoms: N_24  and  C_25
REMARK    5  A    between atoms: C_25  and  C_26
REMARK    6  A    between atoms: C_25  and  C_27
REMARK    7  A    between atoms: C_25  and  C_28
REMARK    8  A    between atoms: O_29  and  C_30
REMARK                            x       y       z     vdW  Elec       q    Type
REMARK                         _______ _______ _______ _____ _____    ______ ____
ROOT
ATOM      1  C   UNL     1      -0.255   0.302   2.539  0.00  0.00    +0.247 C 
ATOM      2  O   UNL     1      -0.555   1.480   2.566  0.00  0.00    -0.270 OA
ATOM      3  N   UNL     1       0.075  -0.336   3.679  0.00  0.00    -0.295 N 
ATOM      4  C   UNL     1       0.568  -1.719   3.775  0.00  0.00    +0.111 C 
ATOM      5  C   UNL     1       0.789  -2.025   5.274  0.00  0.00    +0.054 C 
ATOM      6  C   UNL     1      -0.098  -0.979   5.973  0.00  0.00    +0.103 C 
ATOM      7  C   UNL     1       0.008   0.240   5.037  0.00  0.00    +0.141 C 
ATOM      8  C   UNL     1       0.438  -0.652   7.341  0.00  0.00    +0.099 C 
ATOM      9  N   UNL     1      -0.376   0.120   8.155  0.00  0.00    -0.286 N 
ATOM     10  C   UNL     1      -1.757  -0.098   8.091  0.00  0.00    +0.145 A 
ATOM     11  C   UNL     1      -2.303  -0.863   7.059  0.00  0.00    +0.069 A 
ATOM     12  C   UNL     1      -3.675  -1.056   7.006  0.00  0.00    +0.028 A 
ATOM     13  C   UNL     1      -4.459  -0.479   7.998  0.00  0.00    +0.022 A 
ATOM     14  C   UNL     1      -3.853   0.259   8.994  0.00  0.00    +0.113 A 
ATOM     15  N   UNL     1      -2.544   0.429   9.016  0.00  0.00    -0.238 NA
ATOM     16  N   UNL     1      -1.475  -1.448   6.087  0.00  0.00    -0.328 N 
ATOM     17  N   UNL     1       1.596  -1.070   7.736  0.00  0.00    -0.370 N 
ATOM     18  H   UNL     1      -1.811  -2.147   5.505  0.00  0.00    +0.147 HD
ATOM     19  H   UNL     1       2.109  -1.677   7.179  0.00  0.00    +0.161 HD
ATOM     20  H   UNL     1      -0.001   0.789   8.748  0.00  0.00    +0.155 HD
ENDROOT
BRANCH   1  27
ATOM     21  C   UNL     1      -2.545   0.494   0.783  0.00  0.00    +0.044 C 
ATOM     22  C   UNL     1      -1.352  -0.344   0.400  0.00  0.00    -0.035 A 
ATOM     23  C   UNL     1      -1.344  -1.023  -0.799  0.00  0.00    +0.049 A 
ATOM     24  C   UNL     1      -0.245  -1.797  -1.153  0.00  0.00    +0.120 A 
ATOM     25  C   UNL     1       0.849  -1.888  -0.300  0.00  0.00    +0.046 A 
ATOM     26  C   UNL     1       0.848  -1.213   0.899  0.00  0.00    +0.017 A 
ATOM     27  C   UNL     1      -0.252  -0.429   1.257  0.00  0.00    +0.040 A 
BRANCH  24  28
ATOM     28  O   UNL     1      -0.240  -2.465  -2.334  0.00  0.00    -0.495 OA
ATOM     29  C   UNL     1       0.921  -3.241  -2.636  0.00  0.00    +0.277 C 
ENDBRANCH  24  28
ENDBRANCH   1  27
BRANCH  17  30
ATOM     30  C   UNL     1       2.134  -0.628   9.025  0.00  0.00    +0.031 C 
ATOM     31  C   UNL     1       1.137  -0.963  10.136  0.00  0.00    +0.033 C 
ATOM     32  C   UNL     1       3.459  -1.342   9.297  0.00  0.00    +0.033 C 
ATOM     33  C   UNL     1       2.367   0.884   8.989  0.00  0.00    +0.033 C 
ENDBRANCH  17  30
TORSDOF 3
