REMARK  Name = ZINC62228911
REMARK  8 active torsions:
REMARK  status: ('A' for Active; 'I' for Inactive)
REMARK    1  A    between atoms: C_1  and  C_2
REMARK    2  A    between atoms: C_2  and  C_3
REMARK    3  A    between atoms: C_2  and  C_4
REMARK    4  A    between atoms: C_2  and  N_5
REMARK    5  A    between atoms: N_5  and  C_6
REMARK    6  A    between atoms: C_6  and  C_7
REMARK    7  A    between atoms: C_7  and  C_13
REMARK    8  A    between atoms: C_13  and  C_14
REMARK                            x       y       z     vdW  Elec       q    Type
REMARK                         _______ _______ _______ _____ _____    ______ ____
ROOT
ATOM      1  C   UNL     1       2.784  -0.463  -2.476  0.00  0.00    -0.017 C 
ATOM      2  C   UNL     1       4.219   0.073  -2.492  0.00  0.00    +0.010 C 
ATOM      3  C   UNL     1       4.180   1.603  -2.561  0.00  0.00    +0.029 C 
ATOM      4  C   UNL     1       3.386   2.030  -3.799  0.00  0.00    +0.160 C 
ATOM      5  O   UNL     1       2.072   1.472  -3.736  0.00  0.00    -0.379 OA
ATOM      6  C   UNL     1       2.044   0.044  -3.717  0.00  0.00    +0.165 C 
ENDROOT
BRANCH   1   7
ATOM      7  C   UNL     1       2.068   0.031  -1.217  0.00  0.00    -0.072 C 
BRANCH   7   8
ATOM      8  N   UNL     1       0.690  -0.478  -1.207  0.00  0.00    +0.383 N 
ATOM      9  H   UNL     1       0.703  -1.487  -1.212  0.00  0.00    -0.085 HD
ATOM     10  H   UNL     1       0.202  -0.144  -2.024  0.00  0.00    -0.085 HD
BRANCH   8  12
ATOM     11  C   UNL     1      -0.019   1.526   0.010  0.00  0.00    -0.011 C 
ATOM     12  C   UNL     1       0.002  -0.004   0.002  0.00  0.00    -0.077 C 
ATOM     13  C   UNL     1       0.742  -0.511   1.242  0.00  0.00    -0.011 C 
ATOM     14  C   UNL     1      -1.433  -0.534   0.013  0.00  0.00    -0.011 C 
ENDBRANCH   8  12
ENDBRANCH   7   8
ENDBRANCH   1   7
BRANCH   1  15
ATOM     15  C   UNL     1       2.808  -1.993  -2.484  0.00  0.00    +0.043 C 
BRANCH  15  16
ATOM     16  C   UNL     1       3.514  -2.477  -3.724  0.00  0.00    -0.030 A 
ATOM     17  C   UNL     1       2.783  -2.806  -4.851  0.00  0.00    +0.043 A 
ATOM     18  C   UNL     1       3.432  -3.252  -5.990  0.00  0.00    +0.124 A 
ATOM     19  C   UNL     1       4.812  -3.367  -6.000  0.00  0.00    +0.039 A 
ATOM     20  C   UNL     1       5.540  -3.038  -4.873  0.00  0.00    +0.018 A 
ATOM     21  C   UNL     1       4.892  -2.587  -3.737  0.00  0.00    +0.021 A 
ATOM     22 BR   UNL     1       5.891  -2.129  -2.198  0.00  0.00    -0.050 Br
ATOM     23  F   UNL     1       2.719  -3.574  -7.091  0.00  0.00    -0.205 F 
ENDBRANCH  15  16
ENDBRANCH   1  15
TORSDOF 5
