REMARK  Name = ZINC65500709
REMARK  8 active torsions:
REMARK  status: ('A' for Active; 'I' for Inactive)
REMARK    1  A    between atoms: C_1  and  C_2
REMARK    2  A    between atoms: C_2  and  C_4
REMARK    3  A    between atoms: C_2  and  N_11
REMARK    4  A    between atoms: N_11  and  C_12
REMARK    5  A    between atoms: C_12  and  C_13
REMARK    6  A    between atoms: C_13  and  N_14
REMARK    7  A    between atoms: C_17  and  C_21
REMARK    8  A    between atoms: C_17  and  C_22
REMARK                            x       y       z     vdW  Elec       q    Type
REMARK                         _______ _______ _______ _____ _____    ______ ____
ROOT
ATOM      1  N   UNL     1       0.713  -0.491   1.192  0.00  0.00    +0.384 N 
ATOM      2  H   UNL     1       0.798  -1.495   1.145  0.00  0.00    -0.085 HD
ATOM      3  H   UNL     1       1.632  -0.076   1.228  0.00  0.00    -0.085 HD
ENDROOT
BRANCH   1   5
ATOM      4  C   UNL     1      -0.019   1.526   0.010  0.00  0.00    -0.009 C 
ATOM      5  C   UNL     1       0.002  -0.004   0.002  0.00  0.00    -0.044 C 
BRANCH   5   6
ATOM      6  C   UNL     1       0.707  -0.490  -1.238  0.00  0.00    -0.062 A 
ATOM      7  C   UNL     1       2.089  -0.511  -1.284  0.00  0.00    +0.003 A 
ATOM      8  C   UNL     1       2.736  -0.956  -2.421  0.00  0.00    +0.020 A 
ATOM      9  C   UNL     1       2.002  -1.382  -3.513  0.00  0.00    +0.041 A 
ATOM     10  C   UNL     1       0.619  -1.361  -3.466  0.00  0.00    +0.020 A 
ATOM     11  C   UNL     1      -0.027  -0.920  -2.327  0.00  0.00    +0.003 A 
ATOM     12 CL   UNL     1       2.814  -1.941  -4.941  0.00  0.00    -0.084 Cl
ENDBRANCH   5   6
ENDBRANCH   1   5
BRANCH   1  13
ATOM     13  C   UNL     1      -0.040  -0.119   2.398  0.00  0.00    -0.062 C 
BRANCH  13  14
ATOM     14  C   UNL     1       0.700  -0.626   3.637  0.00  0.00    +0.099 C 
BRANCH  14  15
ATOM     15  N   UNL     1      -0.050  -0.255   4.840  0.00  0.00    -0.226 N 
ATOM     16  C   UNL     1       0.122   0.899   5.514  0.00  0.00    +0.246 C 
ATOM     17  O   UNL     1       0.898   1.792   5.250  0.00  0.00    -0.273 OA
ATOM     18  C   UNL     1      -0.856   0.849   6.670  0.00  0.00    +0.107 C 
ATOM     19  N   UNL     1      -1.530  -0.450   6.497  0.00  0.00    -0.285 N 
ATOM     20  C   UNL     1      -0.995  -1.018   5.401  0.00  0.00    +0.309 C 
ATOM     21  O   UNL     1      -1.331  -2.103   4.970  0.00  0.00    -0.252 OA
ATOM     22  C   UNL     1      -1.865   1.995   6.573  0.00  0.00    +0.041 C 
ATOM     23  C   UNL     1      -0.113   0.895   8.007  0.00  0.00    +0.041 C 
ATOM     24  H   UNL     1      -2.225  -0.822   7.062  0.00  0.00    +0.151 HD
ENDBRANCH  14  15
ENDBRANCH  13  14
ENDBRANCH   1  13
TORSDOF 5
