REMARK  Name = ZINC55477191
REMARK  6 active torsions:
REMARK  status: ('A' for Active; 'I' for Inactive)
REMARK    1  A    between atoms: C_1  and  C_2
REMARK    2  A    between atoms: C_2  and  C_3
REMARK    3  A    between atoms: C_2  and  N_18
REMARK    4  A    between atoms: N_5  and  C_6
REMARK    5  A    between atoms: N_13  and  C_15
REMARK    6  A    between atoms: C_19  and  C_21
REMARK                            x       y       z     vdW  Elec       q    Type
REMARK                         _______ _______ _______ _____ _____    ______ ____
ROOT
ATOM      1  C   UNL     1       0.731  -0.503   1.223  0.00  0.00    +0.233 C 
ATOM      2  O   UNL     1       1.725  -1.187   1.099  0.00  0.00    -0.274 OA
ATOM      3  N   UNL     1       0.278  -0.191   2.453  0.00  0.00    -0.311 N 
ATOM      4  H   UNL     1      -0.517   0.356   2.553  0.00  0.00    +0.149 HD
ENDROOT
BRANCH   3   5
ATOM      5  C   UNL     1       0.985  -0.675   3.637  0.00  0.00    +0.076 C 
ATOM      6  C   UNL     1       0.488  -2.072   4.019  0.00  0.00    -0.007 C 
ATOM      7  C   UNL     1       1.333  -2.599   5.176  0.00  0.00    +0.003 C 
ATOM      8  C   UNL     1       1.273  -1.680   6.389  0.00  0.00    +0.001 C 
ATOM      9  C   UNL     1       1.527  -0.222   6.034  0.00  0.00    +0.003 C 
ATOM     10  C   UNL     1       0.718   0.245   4.831  0.00  0.00    -0.007 C 
ATOM     11  C   UNL     1      -0.773   0.278   5.134  0.00  0.00    -0.073 C 
ATOM     12  N   UNL     1      -1.334  -1.046   5.385  0.00  0.00    +0.382 N 
ATOM     13  C   UNL     1      -0.990  -2.034   4.369  0.00  0.00    -0.073 C 
ATOM     14  H   UNL     1      -1.064  -1.371   6.300  0.00  0.00    -0.081 HD
BRANCH  12  15
ATOM     15  C   UNL     1      -2.797  -0.918   5.413  0.00  0.00    -0.069 C 
ATOM     16  C   UNL     1      -3.498  -1.125   6.757  0.00  0.00    -0.017 C 
ATOM     17  C   UNL     1      -3.612  -2.189   5.663  0.00  0.00    -0.017 C 
ENDBRANCH  12  15
ENDBRANCH   3   5
BRANCH   1  19
ATOM     18  C   UNL     1      -0.019   1.526   0.010  0.00  0.00    +0.038 C 
ATOM     19  C   UNL     1       0.002  -0.004   0.002  0.00  0.00    +0.156 C 
BRANCH  19  20
ATOM     20  N   UNL     1       0.688  -0.476  -1.203  0.00  0.00    -0.304 N 
ATOM     21  C   UNL     1       0.006  -0.608  -2.358  0.00  0.00    +0.217 C 
ATOM     22  O   UNL     1      -1.175  -0.336  -2.400  0.00  0.00    -0.275 OA
ATOM     23  H   UNL     1       1.632  -0.695  -1.170  0.00  0.00    +0.149 HD
BRANCH  21  24
ATOM     24  C   UNL     1       0.712  -1.094  -3.598  0.00  0.00    +0.075 C 
ATOM     25  C   UNL     1       1.816  -0.096  -4.003  0.00  0.00    +0.013 C 
ATOM     26  C   UNL     1       1.777  -0.095  -5.552  0.00  0.00    +0.001 C 
ATOM     27  C   UNL     1       0.262  -0.197  -5.856  0.00  0.00    +0.001 C 
ATOM     28  C   UNL     1      -0.277  -1.158  -4.776  0.00  0.00    +0.013 C 
ENDBRANCH  21  24
ENDBRANCH  19  20
ENDBRANCH   1  19
TORSDOF 5
