REMARK  Name = ZINC42896076
REMARK  9 active torsions:
REMARK  status: ('A' for Active; 'I' for Inactive)
REMARK    1  A    between atoms: C_1  and  C_2
REMARK    2  A    between atoms: C_6  and  O_8
REMARK    3  A    between atoms: O_8  and  C_9
REMARK    4  A    between atoms: C_9  and  C_10
REMARK    5  A    between atoms: C_10  and  N_11
REMARK    6  A    between atoms: N_11  and  C_12
REMARK    7  A    between atoms: C_12  and  C_14
REMARK    8  A    between atoms: C_12  and  C_15
REMARK    9  A    between atoms: C_20  and  O_21
REMARK                            x       y       z     vdW  Elec       q    Type
REMARK                         _______ _______ _______ _____ _____    ______ ____
ROOT
ATOM      1  N   UNL     1      -1.174  -4.464   4.368  0.00  0.00    +0.386 N 
ATOM      2  H   UNL     1      -1.270  -3.461   4.427  0.00  0.00    -0.085 HD
ATOM      3  H   UNL     1      -1.950  -4.846   3.849  0.00  0.00    -0.085 HD
ENDROOT
BRANCH   1   4
ATOM      4  C   UNL     1      -1.160  -5.035   5.721  0.00  0.00    -0.040 C 
ATOM      5  C   UNL     1      -1.140  -6.562   5.631  0.00  0.00    -0.009 C 
BRANCH   4   6
ATOM      6  C   UNL     1      -2.393  -4.592   6.466  0.00  0.00    -0.020 A 
ATOM      7  C   UNL     1      -3.533  -4.241   5.769  0.00  0.00    +0.005 A 
ATOM      8  C   UNL     1      -4.665  -3.834   6.451  0.00  0.00    +0.000 A 
ATOM      9  C   UNL     1      -4.659  -3.777   7.833  0.00  0.00    +0.004 A 
ATOM     10  C   UNL     1      -3.521  -4.127   8.534  0.00  0.00    +0.045 A 
ATOM     11  C   UNL     1      -2.386  -4.541   7.852  0.00  0.00    +0.118 A 
BRANCH  11  12
ATOM     12  O   UNL     1      -1.268  -4.891   8.540  0.00  0.00    -0.507 OA
ATOM     13  H   UNL     1      -0.663  -4.156   8.708  0.00  0.00    +0.292 HD
ENDBRANCH  11  12
ENDBRANCH   4   6
ENDBRANCH   1   4
BRANCH   1  14
ATOM     14  C   UNL     1       0.083  -4.796   3.683  0.00  0.00    -0.040 C 
BRANCH  14  15
ATOM     15  C   UNL     1       0.069  -4.202   2.274  0.00  0.00    +0.210 C 
BRANCH  15  16
ATOM     16  O   UNL     1       0.050  -2.776   2.358  0.00  0.00    -0.494 OA
BRANCH  16  22
ATOM     17  C   UNL     1      -0.018   1.503   0.010  0.00  0.00    +0.044 C 
ATOM     18  C   UNL     1       0.002  -0.004   0.002  0.00  0.00    -0.047 A 
ATOM     19  C   UNL     1       0.006  -0.688  -1.200  0.00  0.00    +0.003 A 
ATOM     20  C   UNL     1       0.024  -2.071  -1.211  0.00  0.00    +0.004 A 
ATOM     21  C   UNL     1       0.039  -2.772  -0.020  0.00  0.00    +0.045 A 
ATOM     22  C   UNL     1       0.035  -2.088   1.186  0.00  0.00    +0.121 A 
ATOM     23  C   UNL     1       0.023  -0.700   1.195  0.00  0.00    +0.049 A 
ENDBRANCH  16  22
ENDBRANCH  15  16
ENDBRANCH  14  15
ENDBRANCH   1  14
TORSDOF 7
