REMARK  Name = ZINC20208523
REMARK  10 active torsions:
REMARK  status: ('A' for Active; 'I' for Inactive)
REMARK    1  A    between atoms: C_1  and  C_2
REMARK    2  A    between atoms: C_2  and  O_3
REMARK    3  A    between atoms: O_3  and  C_4
REMARK    4  A    between atoms: C_6  and  C_19
REMARK    5  A    between atoms: C_9  and  O_10
REMARK    6  A    between atoms: O_10  and  C_11
REMARK    7  A    between atoms: C_11  and  C_13
REMARK    8  A    between atoms: C_29  and  S_31
REMARK    9  A    between atoms: S_31  and  C_34
REMARK   10  A    between atoms: C_34  and  C_35
REMARK                            x       y       z     vdW  Elec       q    Type
REMARK                         _______ _______ _______ _____ _____    ______ ____
ROOT
ATOM      1  C   UNL     1       1.163  -2.010   1.411  0.00  0.00    +0.163 A 
ATOM      2  C   UNL     1       0.367  -2.767   0.576  0.00  0.00    +0.057 A 
ATOM      3  C   UNL     1       0.622  -4.137   0.423  0.00  0.00    -0.021 A 
ATOM      4  C   UNL     1       1.684  -4.729   1.120  0.00  0.00    +0.012 A 
ATOM      5  C   UNL     1       2.472  -3.966   1.951  0.00  0.00    +0.051 A 
ATOM      6  C   UNL     1       2.222  -2.607   2.097  0.00  0.00    +0.173 A 
ENDROOT
BRANCH   3   7
ATOM      7  C   UNL     1      -0.219  -4.947  -0.462  0.00  0.00    +0.024 C 
ATOM      8  C   UNL     1      -0.509  -6.251  -0.132  0.00  0.00    +0.081 C 
ATOM      9  C   UNL     1      -0.151  -6.823   1.196  0.00  0.00    +0.153 C 
ATOM     10  N   UNL     1      -0.140  -6.124   2.300  0.00  0.00    -0.283 NA
ATOM     11  N   UNL     1       0.176  -8.195   1.145  0.00  0.00    -0.150 N 
ATOM     12  C   UNL     1      -0.323  -8.930   0.091  0.00  0.00    +0.182 C 
ATOM     13  N   UNL     1      -0.998  -8.488  -0.941  0.00  0.00    -0.152 NA
ATOM     14  C   UNL     1      -1.202  -7.161  -1.078  0.00  0.00    +0.273 C 
ATOM     15  O   UNL     1      -1.930  -6.722  -1.954  0.00  0.00    -0.268 OA
ATOM     16  S   UNL     1       0.207 -10.572   0.498  0.00  0.00    -0.015 S 
ATOM     17  C   UNL     1       1.133 -10.161   1.972  0.00  0.00    +0.235 C 
ATOM     18  N   UNL     1       0.945  -8.876   2.066  0.00  0.00    -0.145 NA
ATOM     19  H   UNL     1       0.170  -6.526   3.126  0.00  0.00    +0.188 HD
BRANCH  17  20
ATOM     20  S   UNL     1       2.060 -11.223   3.028  0.00  0.00    +0.022 S 
ATOM     21  O   UNL     1       2.547 -12.249   2.173  0.00  0.00    -0.167 OA
ATOM     22  O   UNL     1       2.961 -10.361   3.709  0.00  0.00    -0.167 OA
BRANCH  20  23
ATOM     23  C   UNL     1       0.845 -11.902   4.190  0.00  0.00    +0.171 C 
ATOM     24  C   UNL     1       1.546 -12.850   5.166  0.00  0.00    +0.028 C 
ENDBRANCH  20  23
ENDBRANCH  17  20
ENDBRANCH   3   7
BRANCH   1  25
ATOM     25  O   UNL     1       0.919  -0.681   1.562  0.00  0.00    -0.489 OA
BRANCH  25  27
ATOM     26  C   UNL     1      -0.297   1.361   1.125  0.00  0.00    +0.048 C 
ATOM     27  C   UNL     1      -0.180  -0.136   0.830  0.00  0.00    +0.226 C 
ENDBRANCH  25  27
ENDBRANCH   1  25
BRANCH   6  28
ATOM     28  O   UNL     1       3.007  -1.858   2.914  0.00  0.00    -0.419 OA
BRANCH  28  29
ATOM     29  C   UNL     1       2.598  -1.669   4.184  0.00  0.00    +0.345 C 
ATOM     30  O   UNL     1       1.606  -2.237   4.594  0.00  0.00    -0.245 OA
BRANCH  29  31
ATOM     31  C   UNL     1       3.357  -0.770   5.078  0.00  0.00    +0.059 A 
ATOM     32  C   UNL     1       4.495  -0.111   4.608  0.00  0.00    +0.015 A 
ATOM     33  C   UNL     1       5.199   0.727   5.448  0.00  0.00    +0.001 A 
ATOM     34  C   UNL     1       4.781   0.914   6.753  0.00  0.00    +0.000 A 
ATOM     35  C   UNL     1       3.655   0.264   7.225  0.00  0.00    +0.001 A 
ATOM     36  C   UNL     1       2.937  -0.572   6.394  0.00  0.00    +0.015 A 
ENDBRANCH  29  31
ENDBRANCH  28  29
ENDBRANCH   6  28
TORSDOF 8
