REMARK  Name = ZINC09440762
REMARK  5 active torsions:
REMARK  status: ('A' for Active; 'I' for Inactive)
REMARK    1  A    between atoms: C_3  and  O_26
REMARK    2  A    between atoms: C_4  and  C_8
REMARK    3  A    between atoms: C_8  and  C_10
REMARK    4  A    between atoms: C_12  and  C_17
REMARK    5  A    between atoms: N_19  and  C_20
REMARK                            x       y       z     vdW  Elec       q    Type
REMARK                         _______ _______ _______ _____ _____    ______ ____
ROOT
ATOM      1  C   UNL     1      -1.319   3.592   0.139  0.00  0.00    +0.058 A 
ATOM      2  C   UNL     1      -2.552   4.274   0.255  0.00  0.00    +0.033 A 
ATOM      3  C   UNL     1      -2.539   5.655   0.366  0.00  0.00    +0.097 A 
ATOM      4  C   UNL     1      -1.239   6.345   0.358  0.00  0.00    +0.204 A 
ATOM      5  N   UNL     1      -1.184   7.647   0.461  0.00  0.00    -0.369 N 
ATOM      6  O   UNL     1      -0.103   5.624   0.244  0.00  0.00    -0.446 OA
ATOM      7  C   UNL     1      -0.133   4.293   0.143  0.00  0.00    +0.209 A 
ATOM      8  H   UNL     1      -0.210   8.159   0.454  0.00  0.00    +0.159 HD
ATOM      9  H   UNL     1      -2.112   8.231   0.553  0.00  0.00    +0.159 HD
ENDROOT
BRANCH   3  10
ATOM     10  C   UNL     1      -3.793   6.413   0.490  0.00  0.00    +0.249 C 
ATOM     11  O   UNL     1      -3.765   7.625   0.587  0.00  0.00    -0.270 OA
ATOM     12  N   UNL     1      -4.975   5.764   0.496  0.00  0.00    -0.308 N 
ATOM     13  H   UNL     1      -5.001   4.668   0.408  0.00  0.00    +0.149 HD
BRANCH  12  14
ATOM     14  C   UNL     1      -6.224   6.519   0.619  0.00  0.00    +0.073 C 
ATOM     15  C   UNL     1      -6.523   6.773   2.098  0.00  0.00    +0.022 C 
ATOM     16  C   UNL     1      -7.828   7.561   2.226  0.00  0.00    +0.002 C 
ATOM     17  C   UNL     1      -8.973   6.758   1.606  0.00  0.00    +0.000 C 
ATOM     18  C   UNL     1      -8.674   6.504   0.127  0.00  0.00    +0.002 C 
ATOM     19  C   UNL     1      -7.369   5.715  -0.002  0.00  0.00    +0.022 C 
ENDBRANCH  12  14
ENDBRANCH   3  10
BRANCH   1  20
ATOM     20  C   UNL     1      -1.302   2.123   0.020  0.00  0.00    +0.200 C 
ATOM     21  O   UNL     1      -2.347   1.508  -0.079  0.00  0.00    -0.286 OA
BRANCH  20  25
ATOM     22  C   UNL     1       2.393   0.024   0.022  0.00  0.00    +0.019 A 
ATOM     23  C   UNL     1       1.891   0.523   1.208  0.00  0.00    +0.047 A 
ATOM     24  C   UNL     1       0.687   1.211   1.218  0.00  0.00    +0.128 A 
ATOM     25  C   UNL     1      -0.017   1.397   0.020  0.00  0.00    +0.065 A 
ATOM     26  C   UNL     1       0.502   0.887  -1.173  0.00  0.00    +0.030 A 
ATOM     27  C   UNL     1       1.700   0.205  -1.165  0.00  0.00    +0.019 A 
ATOM     28 BR   UNL     1       2.401  -0.486  -2.779  0.00  0.00    -0.050 Br
BRANCH  24  29
ATOM     29  O   UNL     1       0.194   1.702   2.382  0.00  0.00    -0.506 OA
ATOM     30  H   UNL     1      -0.761   2.248   2.388  0.00  0.00    +0.292 HD
ENDBRANCH  24  29
ENDBRANCH  20  25
ENDBRANCH   1  20
TORSDOF 5
