REMARK  Name = ZINC15205486
REMARK  6 active torsions:
REMARK  status: ('A' for Active; 'I' for Inactive)
REMARK    1  A    between atoms: C_1  and  C_2
REMARK    2  A    between atoms: C_4  and  O_28
REMARK    3  A    between atoms: C_6  and  O_27
REMARK    4  A    between atoms: C_8  and  O_26
REMARK    5  A    between atoms: C_10  and  O_13
REMARK    6  A    between atoms: O_13  and  C_14
REMARK                            x       y       z     vdW  Elec       q    Type
REMARK                         _______ _______ _______ _____ _____    ______ ____
ROOT
ATOM      1  C   UNL     1      -1.495   3.373  -2.538  0.00  0.00    +0.041 C 
ATOM      2  C   UNL     1      -0.760   2.983  -1.254  0.00  0.00    +0.150 C 
ATOM      3  C   UNL     1      -1.507   3.554  -0.045  0.00  0.00    +0.174 C 
ATOM      4  C   UNL     1      -0.799   3.110   1.239  0.00  0.00    +0.180 C 
ATOM      5  C   UNL     1      -0.730   1.580   1.267  0.00  0.00    +0.214 C 
ATOM      6  C   UNL     1      -0.013   1.086   0.008  0.00  0.00    +0.339 C 
ATOM      7  O   UNL     1      -0.704   1.559  -1.149  0.00  0.00    -0.334 OA
ENDROOT
BRANCH   5   8
ATOM      8  O   UNL     1      -2.053   1.041   1.306  0.00  0.00    -0.383 OA
ATOM      9  H   UNL     1      -2.083   0.074   1.321  0.00  0.00    +0.210 HD
ENDBRANCH   5   8
BRANCH   4  10
ATOM     10  O   UNL     1      -1.530   3.576   2.375  0.00  0.00    -0.386 OA
ATOM     11  H   UNL     1      -1.140   3.325   3.223  0.00  0.00    +0.210 HD
ENDBRANCH   4  10
BRANCH   3  12
ATOM     12  O   UNL     1      -2.852   3.070  -0.041  0.00  0.00    -0.387 OA
ATOM     13  H   UNL     1      -3.360   3.314  -0.827  0.00  0.00    +0.210 HD
ENDBRANCH   3  12
BRANCH   6  14
ATOM     14  O   UNL     1       1.328   1.581  -0.002  0.00  0.00    -0.459 OA
BRANCH  14  15
ATOM     15  C   UNL     1       2.139   1.147  -1.006  0.00  0.00    +0.150 A 
ATOM     16  C   UNL     1       1.808   0.293  -1.990  0.00  0.00    +0.130 A 
ATOM     17  N   UNL     1       2.888   0.096  -2.819  0.00  0.00    -0.358 N 
ATOM     18  H   UNL     1       2.892  -0.477  -3.602  0.00  0.00    +0.165 HD
ATOM     19  C   UNL     1       3.962   0.830  -2.369  0.00  0.00    +0.052 A 
ATOM     20  C   UNL     1       3.543   1.519  -1.216  0.00  0.00    +0.061 A 
ATOM     21  C   UNL     1       4.436   2.351  -0.538  0.00  0.00    +0.068 A 
ATOM     22  C   UNL     1       5.726   2.491  -1.004  0.00  0.00    +0.037 A 
ATOM     23  C   UNL     1       6.138   1.810  -2.142  0.00  0.00    +0.019 A 
ATOM     24  C   UNL     1       5.268   0.986  -2.822  0.00  0.00    +0.027 A 
ATOM     25 BR   UNL     1       6.939   3.617  -0.090  0.00  0.00    -0.049 Br
ATOM     26 CL   UNL     1       3.925   3.204   0.885  0.00  0.00    -0.082 Cl
ENDBRANCH  14  15
ENDBRANCH   6  14
TORSDOF 5
