REMARK  Name = ZINC42947452
REMARK  7 active torsions:
REMARK  status: ('A' for Active; 'I' for Inactive)
REMARK    1  A    between atoms: C_1  and  C_2
REMARK    2  A    between atoms: C_2  and  N_3
REMARK    3  A    between atoms: N_6  and  C_11
REMARK    4  A    between atoms: C_11  and  C_13
REMARK    5  A    between atoms: C_11  and  C_20
REMARK    6  A    between atoms: C_20  and  C_22
REMARK    7  A    between atoms: C_20  and  N_23
REMARK                            x       y       z     vdW  Elec       q    Type
REMARK                         _______ _______ _______ _____ _____    ______ ____
ROOT
ATOM      1  C   UNL     1      -5.596  -1.654   0.053  0.00  0.00    +0.092 C 
ENDROOT
BRANCH   1   5
ATOM      2  N   UNL     1      -1.739   0.077  -0.527  0.00  0.00    -0.293 N 
ATOM      3  C   UNL     1      -2.178  -1.057  -1.341  0.00  0.00    +0.127 C 
ATOM      4  C   UNL     1      -3.152  -1.933  -0.557  0.00  0.00    +0.128 C 
ATOM      5  N   UNL     1      -4.232  -1.122   0.006  0.00  0.00    -0.287 N 
ATOM      6  C   UNL     1      -3.974   0.112   0.483  0.00  0.00    +0.302 C 
ATOM      7  O   UNL     1      -4.841   0.746   1.049  0.00  0.00    -0.265 OA
ATOM      8  C   UNL     1      -2.604   0.687   0.309  0.00  0.00    +0.302 C 
ATOM      9  O   UNL     1      -2.277   1.690   0.908  0.00  0.00    -0.265 OA
BRANCH   2  11
ATOM     10  C   UNL     1       0.505  -0.197   0.406  0.00  0.00    +0.024 C 
ATOM     11  C   UNL     1      -0.355   0.548  -0.617  0.00  0.00    +0.105 C 
ENDBRANCH   2  11
ENDBRANCH   1   5
BRANCH   1  12
ATOM     12  C   UNL     1      -6.477  -0.858  -0.875  0.00  0.00    -0.029 A 
ATOM     13  C   UNL     1      -6.047  -0.567  -2.156  0.00  0.00    +0.007 A 
ATOM     14  C   UNL     1      -6.855   0.163  -3.007  0.00  0.00    +0.020 A 
ATOM     15  C   UNL     1      -8.094   0.603  -2.577  0.00  0.00    +0.041 A 
ATOM     16  C   UNL     1      -8.524   0.312  -1.294  0.00  0.00    +0.020 A 
ATOM     17  C   UNL     1      -7.718  -0.423  -0.446  0.00  0.00    +0.007 A 
ATOM     18 CL   UNL     1      -9.109   1.521  -3.645  0.00  0.00    -0.084 Cl
ENDBRANCH   1  12
BRANCH   1  19
ATOM     19  C   UNL     1      -5.587  -3.120  -0.385  0.00  0.00    -0.053 C 
ATOM     20  C   UNL     1      -4.810  -3.953   0.636  0.00  0.00    -0.012 C 
BRANCH  19  21
ATOM     21  N   UNL     1      -6.968  -3.614  -0.470  0.00  0.00    +0.381 N 
ATOM     22  H   UNL     1      -7.481  -3.064  -1.143  0.00  0.00    -0.090 HD
ATOM     23  H   UNL     1      -6.963  -4.580  -0.758  0.00  0.00    -0.090 HD
ATOM     24  H   UNL     1      -7.410  -3.535   0.434  0.00  0.00    -0.090 HD
ENDBRANCH  19  21
ENDBRANCH   1  19
TORSDOF 5
