REMARK  Name = ZINC45845275
REMARK  5 active torsions:
REMARK  status: ('A' for Active; 'I' for Inactive)
REMARK    1  A    between atoms: C_4  and  N_19
REMARK    2  A    between atoms: C_6  and  C_7
REMARK    3  A    between atoms: C_7  and  N_8
REMARK    4  A    between atoms: C_14  and  C_17
REMARK    5  A    between atoms: C_17  and  O_18
REMARK                            x       y       z     vdW  Elec       q    Type
REMARK                         _______ _______ _______ _____ _____    ______ ____
ROOT
ATOM      1  C   UNL     1      -1.036  -1.064   0.068  0.00  0.00    +0.141 C 
ENDROOT
BRANCH   1   2
ATOM      2  N   UNL     1      -1.252  -1.438  -1.332  0.00  0.00    -0.295 N 
ATOM      3  C   UNL     1      -2.235  -2.301  -1.656  0.00  0.00    +0.302 C 
ATOM      4  O   UNL     1      -3.003  -2.695  -0.800  0.00  0.00    -0.253 OA
ATOM      5  N   UNL     1      -2.367  -2.726  -2.928  0.00  0.00    -0.286 N 
ATOM      6  C   UNL     1      -1.376  -2.357  -3.947  0.00  0.00    +0.109 C 
ATOM      7  C   UNL     1      -2.104  -1.721  -5.135  0.00  0.00    +0.025 C 
ATOM      8  C   UNL     1      -3.192  -2.676  -5.633  0.00  0.00    +0.017 C 
ATOM      9  C   UNL     1      -4.210  -2.919  -4.516  0.00  0.00    +0.025 C 
ATOM     10  C   UNL     1      -3.502  -3.573  -3.320  0.00  0.00    +0.109 C 
ATOM     11  H   UNL     1      -0.687  -1.064  -2.027  0.00  0.00    +0.151 HD
BRANCH   8  12
ATOM     12  C   UNL     1      -3.898  -2.059  -6.841  0.00  0.00    +0.159 C 
BRANCH  12  13
ATOM     13  O   UNL     1      -4.833  -2.998  -7.377  0.00  0.00    -0.395 OA
ATOM     14  H   UNL     1      -5.319  -2.673  -8.148  0.00  0.00    +0.209 HD
ENDBRANCH  12  13
ENDBRANCH   8  12
ENDBRANCH   1   2
BRANCH   1  20
ATOM     15  C   UNL     1      -0.102   1.274   0.073  0.00  0.00    +0.023 A 
ATOM     16  C   UNL     1       0.973   2.136   0.160  0.00  0.00    +0.084 A 
ATOM     17  N   UNL     1       2.199   1.674   0.320  0.00  0.00    -0.350 N 
ATOM     18  C   UNL     1       2.446   0.376   0.405  0.00  0.00    +0.099 A 
ATOM     19  C   UNL     1       1.411  -0.549   0.325  0.00  0.00    +0.047 A 
ATOM     20  C   UNL     1       0.115  -0.095   0.157  0.00  0.00    -0.026 A 
ATOM     21  H   UNL     1       2.936   2.301   0.378  0.00  0.00    +0.166 HD
BRANCH  18  22
ATOM     22  N   UNL     1       3.753  -0.066   0.573  0.00  0.00    -0.312 N 
ATOM     23  C   UNL     1       4.049  -1.492   0.783  0.00  0.00    +0.134 C 
ATOM     24  C   UNL     1       5.143  -1.909  -0.207  0.00  0.00    +0.178 C 
ATOM     25  O   UNL     1       6.248  -1.008  -0.094  0.00  0.00    -0.377 OA
ATOM     26  C   UNL     1       5.935   0.345  -0.431  0.00  0.00    +0.178 C 
ATOM     27  C   UNL     1       4.882   0.877   0.542  0.00  0.00    +0.134 C 
ENDBRANCH  18  22
ENDBRANCH   1  20
TORSDOF 5
