REMARK  Name = ZINC31469599
REMARK  8 active torsions:
REMARK  status: ('A' for Active; 'I' for Inactive)
REMARK    1  A    between atoms: C_1  and  C_2
REMARK    2  A    between atoms: C_8  and  N_10
REMARK    3  A    between atoms: N_10  and  C_11
REMARK    4  A    between atoms: N_10  and  C_21
REMARK    5  A    between atoms: C_11  and  C_12
REMARK    6  A    between atoms: N_17  and  C_18
REMARK    7  A    between atoms: C_21  and  C_22
REMARK    8  A    between atoms: N_27  and  C_28
REMARK                            x       y       z     vdW  Elec       q    Type
REMARK                         _______ _______ _______ _____ _____    ______ ____
ROOT
ATOM      1  N   UNL     1      -1.429   3.502   2.307  0.00  0.00    +0.393 N 
ATOM      2  H   UNL     1      -0.833   2.896   3.006  0.00  0.00    -0.080 HD
ENDROOT
BRANCH   1   9
ATOM      3  C   UNL     1       0.427   1.338   1.784  0.00  0.00    +0.006 C 
ATOM      4  C   UNL     1      -0.598   1.806   0.748  0.00  0.00    -0.028 C 
ATOM      5  C   UNL     1      -0.037   1.589  -0.658  0.00  0.00    +0.002 C 
ATOM      6  C   UNL     1      -1.061   2.057  -1.694  0.00  0.00    +0.000 C 
ATOM      7  C   UNL     1      -1.353   3.544  -1.486  0.00  0.00    -0.002 C 
ATOM      8  C   UNL     1      -1.914   3.762  -0.079  0.00  0.00    -0.015 C 
ATOM      9  C   UNL     1      -0.890   3.294   0.956  0.00  0.00    -0.064 C 
ENDBRANCH   1   9
BRANCH   1  10
ATOM     10  C   UNL     1      -1.304   4.909   2.712  0.00  0.00    +0.020 C 
BRANCH  10  11
ATOM     11  C   UNL     1       0.153   5.266   2.848  0.00  0.00    +0.204 C 
ATOM     12  O   UNL     1       1.005   4.431   2.629  0.00  0.00    -0.277 OA
ATOM     13  N   UNL     1       0.511   6.513   3.212  0.00  0.00    -0.242 N 
ATOM     14  C   UNL     1       1.815   6.832   3.334  0.00  0.00    +0.306 C 
ATOM     15  O   UNL     1       2.668   5.995   3.115  0.00  0.00    -0.252 OA
ATOM     16  N   UNL     1       2.172   8.080   3.699  0.00  0.00    -0.296 N 
ATOM     17  H   UNL     1      -0.262   7.271   3.410  0.00  0.00    +0.159 HD
ATOM     18  H   UNL     1       1.399   8.838   3.897  0.00  0.00    +0.151 HD
BRANCH  16  19
ATOM     19  C   UNL     1       3.589   8.427   3.831  0.00  0.00    +0.075 C 
ATOM     20  C   UNL     1       4.004   9.250   5.052  0.00  0.00    +0.024 C 
ATOM     21  C   UNL     1       3.975   9.898   3.665  0.00  0.00    +0.024 C 
ENDBRANCH  16  19
ENDBRANCH  10  11
ENDBRANCH   1  10
BRANCH   1  22
ATOM     22  C   UNL     1      -2.824   3.051   2.393  0.00  0.00    +0.020 C 
BRANCH  22  23
ATOM     23  C   UNL     1      -2.857   1.558   2.594  0.00  0.00    +0.204 C 
ATOM     24  O   UNL     1      -1.829   0.952   2.807  0.00  0.00    -0.277 OA
ATOM     25  N   UNL     1      -4.030   0.897   2.537  0.00  0.00    -0.242 N 
ATOM     26  C   UNL     1      -4.060  -0.439   2.717  0.00  0.00    +0.306 C 
ATOM     27  O   UNL     1      -3.029  -1.046   2.931  0.00  0.00    -0.252 OA
ATOM     28  N   UNL     1      -5.233  -1.100   2.660  0.00  0.00    -0.296 N 
ATOM     29  H   UNL     1      -4.963   1.447   2.344  0.00  0.00    +0.159 HD
ATOM     30  H   UNL     1      -6.166  -0.550   2.467  0.00  0.00    +0.151 HD
BRANCH  28  31
ATOM     31  C   UNL     1      -5.266  -2.552   2.856  0.00  0.00    +0.075 C 
ATOM     32  C   UNL     1      -6.138  -3.373   1.904  0.00  0.00    +0.024 C 
ATOM     33  C   UNL     1      -6.573  -3.168   3.357  0.00  0.00    +0.024 C 
ENDBRANCH  28  31
ENDBRANCH  22  23
ENDBRANCH   1  22
TORSDOF 7
