REMARK  Name = ZINC64716291
REMARK  7 active torsions:
REMARK  status: ('A' for Active; 'I' for Inactive)
REMARK    1  A    between atoms: C_1  and  C_2
REMARK    2  A    between atoms: C_2  and  C_3
REMARK    3  A    between atoms: C_2  and  C_4
REMARK    4  A    between atoms: C_2  and  N_5
REMARK    5  A    between atoms: C_9  and  C_11
REMARK    6  A    between atoms: C_11  and  N_12
REMARK    7  A    between atoms: C_15  and  C_18
REMARK                            x       y       z     vdW  Elec       q    Type
REMARK                         _______ _______ _______ _____ _____    ______ ____
ROOT
ATOM      1  N   UNL     1       5.970  -0.200  -4.010  0.00  0.00    +0.385 N 
ATOM      2  C   UNL     1       6.710  -0.775  -2.881  0.00  0.00    -0.078 C 
ATOM      3  C   UNL     1       8.122  -0.187  -2.839  0.00  0.00    -0.011 C 
ATOM      4  C   UNL     1       8.846  -0.518  -4.148  0.00  0.00    +0.014 C 
ATOM      5  C   UNL     1       8.026   0.023  -5.324  0.00  0.00    -0.011 C 
ATOM      6  C   UNL     1       6.618  -0.574  -5.273  0.00  0.00    -0.078 C 
ATOM      7  H   UNL     1       5.957   0.805  -3.924  0.00  0.00    -0.081 HD
ENDROOT
BRANCH   4   8
ATOM      8  C   UNL     1      10.209   0.125  -4.147  0.00  0.00    -0.039 C 
ATOM      9  C   UNL     1      11.403  -0.501  -4.247  0.00  0.00    -0.001 A 
ATOM     10  C   UNL     1      11.777  -1.915  -4.383  0.00  0.00    +0.010 A 
ATOM     11  C   UNL     1      13.086  -2.242  -4.462  0.00  0.00    +0.001 A 
ATOM     12  C   UNL     1      14.094  -1.268  -4.418  0.00  0.00    +0.002 A 
ATOM     13  C   UNL     1      13.829   0.050  -4.295  0.00  0.00    +0.026 A 
ATOM     14  C   UNL     1      12.486   0.507  -4.204  0.00  0.00    +0.043 A 
ATOM     15  N   UNL     1      11.980   1.711  -4.081  0.00  0.00    -0.380 N 
ATOM     16  C   UNL     1      10.518   1.602  -4.039  0.00  0.00    +0.145 C 
ATOM     17  H   UNL     1      12.488   2.536  -4.030  0.00  0.00    +0.160 HD
ENDBRANCH   4   8
BRANCH   1  18
ATOM     18  C   UNL     1       4.591  -0.709  -3.999  0.00  0.00    +0.019 C 
BRANCH  18  23
ATOM     19  N   UNL     1       0.688  -0.476  -1.203  0.00  0.00    -0.294 N 
ATOM     20  C   UNL     1       1.972  -0.132  -1.427  0.00  0.00    +0.306 C 
ATOM     21  O   UNL     1       2.560   0.570  -0.629  0.00  0.00    -0.252 OA
ATOM     22  N   UNL     1       2.602  -0.567  -2.536  0.00  0.00    -0.242 N 
ATOM     23  C   UNL     1       3.886  -0.223  -2.760  0.00  0.00    +0.204 C 
ATOM     24  O   UNL     1       4.473   0.478  -1.963  0.00  0.00    -0.277 OA
ATOM     25  H   UNL     1       0.218  -1.037  -1.840  0.00  0.00    +0.151 HD
ATOM     26  H   UNL     1       2.132  -1.127  -3.173  0.00  0.00    +0.159 HD
BRANCH  19  28
ATOM     27  C   UNL     1      -0.019   1.526   0.010  0.00  0.00    +0.031 C 
ATOM     28  C   UNL     1       0.002  -0.004   0.002  0.00  0.00    +0.028 C 
ATOM     29  C   UNL     1       0.742  -0.511   1.242  0.00  0.00    +0.031 C 
ATOM     30  C   UNL     1      -1.433  -0.534   0.013  0.00  0.00    +0.031 C 
ENDBRANCH  19  28
ENDBRANCH  18  23
ENDBRANCH   1  18
TORSDOF 4
