REMARK  Name = ZINC52712316
REMARK  10 active torsions:
REMARK  status: ('A' for Active; 'I' for Inactive)
REMARK    1  A    between atoms: C_1  and  C_2
REMARK    2  A    between atoms: C_2  and  O_3
REMARK    3  A    between atoms: O_3  and  C_4
REMARK    4  A    between atoms: C_11  and  C_13
REMARK    5  A    between atoms: C_13  and  C_15
REMARK    6  A    between atoms: C_13  and  N_16
REMARK    7  A    between atoms: N_16  and  C_17
REMARK    8  A    between atoms: C_17  and  C_19
REMARK    9  A    between atoms: C_17  and  C_20
REMARK   10  A    between atoms: N_25  and  C_26
REMARK                            x       y       z     vdW  Elec       q    Type
REMARK                         _______ _______ _______ _____ _____    ______ ____
ROOT
ATOM      1  C   UNL     1       3.376  -2.480   5.647  0.00  0.00    -0.006 C 
ATOM      2  C   UNL     1       4.783  -2.053   5.225  0.00  0.00    -0.006 C 
ENDROOT
BRANCH   1  10
ATOM      3  C   UNL     1       0.649  -2.418   1.458  0.00  0.00    +0.163 A 
ATOM      4  C   UNL     1       0.139  -3.390   0.617  0.00  0.00    +0.049 A 
ATOM      5  C   UNL     1       0.352  -4.735   0.879  0.00  0.00    +0.004 A 
ATOM      6  C   UNL     1       1.076  -5.121   1.985  0.00  0.00    +0.012 A 
ATOM      7  C   UNL     1       1.598  -4.153   2.843  0.00  0.00    +0.024 A 
ATOM      8  C   UNL     1       1.389  -2.790   2.579  0.00  0.00    +0.176 A 
ATOM      9  O   UNL     1       2.004  -2.094   3.557  0.00  0.00    -0.458 OA
ATOM     10  C   UNL     1       2.600  -2.921   4.433  0.00  0.00    +0.092 A 
ATOM     11  C   UNL     1       2.393  -4.197   4.075  0.00  0.00    +0.051 A 
BRANCH   3  12
ATOM     12  O   UNL     1       0.433  -1.103   1.191  0.00  0.00    -0.489 OA
BRANCH  12  14
ATOM     13  C   UNL     1      -0.471   0.722  -0.110  0.00  0.00    +0.048 C 
ATOM     14  C   UNL     1      -0.335  -0.796   0.025  0.00  0.00    +0.226 C 
ENDBRANCH  12  14
ENDBRANCH   3  12
ENDBRANCH   1  10
BRANCH   1  15
ATOM     15  N   UNL     1       2.689  -1.346   6.281  0.00  0.00    +0.393 N 
ATOM     16  H   UNL     1       3.254  -0.993   7.039  0.00  0.00    -0.084 HD
ATOM     17  H   UNL     1       2.546  -0.616   5.599  0.00  0.00    -0.084 HD
BRANCH  15  18
ATOM     18  C   UNL     1       1.390  -1.791   6.804  0.00  0.00    +0.014 C 
ATOM     19  C   UNL     1       1.613  -2.787   7.943  0.00  0.00    -0.004 C 
BRANCH  18  20
ATOM     20  C   UNL     1       0.623  -0.601   7.320  0.00  0.00    +0.206 C 
ATOM     21  O   UNL     1       1.110   0.508   7.258  0.00  0.00    -0.277 OA
ATOM     22  N   UNL     1      -0.605  -0.769   7.850  0.00  0.00    -0.242 N 
ATOM     23  C   UNL     1      -1.291   0.295   8.312  0.00  0.00    +0.306 C 
ATOM     24  O   UNL     1      -0.803   1.406   8.250  0.00  0.00    -0.252 OA
ATOM     25  N   UNL     1      -2.519   0.127   8.842  0.00  0.00    -0.302 N 
ATOM     26  C   UNL     1      -3.264   1.284   9.344  0.00  0.00    +0.129 C 
ATOM     27  H   UNL     1      -0.994  -1.656   7.899  0.00  0.00    +0.159 HD
ATOM     28  H   UNL     1      -2.908  -0.760   8.891  0.00  0.00    +0.150 HD
ENDBRANCH  18  20
ENDBRANCH  15  18
ENDBRANCH   1  15
TORSDOF 6
