REMARK  Name = ZINC02125042
REMARK  9 active torsions:
REMARK  status: ('A' for Active; 'I' for Inactive)
REMARK    1  A    between atoms: C_1  and  C_2
REMARK    2  A    between atoms: C_12  and  C_13
REMARK    3  A    between atoms: C_13  and  C_14
REMARK    4  A    between atoms: N_16  and  CA_17
REMARK    5  A    between atoms: CA_17  and  CB_19
REMARK    6  A    between atoms: CA_17  and  C_27
REMARK    7  A    between atoms: CB_19  and  CG_20
REMARK    8  A    between atoms: CZ_23  and  OH_26
REMARK    9  A    between atoms: C_31  and  C_32
REMARK                            x       y       z     vdW  Elec       q    Type
REMARK                         _______ _______ _______ _____ _____    ______ ____
ROOT
ATOM      1  C   UNK A   0       0.694   3.623  -1.175  0.00  0.00    +0.045 C 
ATOM      2  C   UNK A   0      -0.406   2.779  -1.765  0.00  0.00    -0.029 A 
ATOM      3  C   UNK A   0      -1.141   3.224  -2.953  0.00  0.00    +0.022 A 
ATOM      4  C   UNK A   0      -0.840   4.441  -3.564  0.00  0.00    +0.024 A 
ATOM      5  C   UNK A   0      -1.554   4.833  -4.686  0.00  0.00    +0.029 A 
ATOM      6  C   UNK A   0      -2.575   4.013  -5.206  0.00  0.00    +0.139 A 
ATOM      7  C   UNK A   0      -2.869   2.804  -4.593  0.00  0.00    +0.093 A 
ATOM      8  C   UNK A   0      -2.163   2.402  -3.473  0.00  0.00    +0.143 A 
ATOM      9  O   UNK A   0      -2.445   1.225  -2.872  0.00  0.00    -0.422 OA
ATOM     10  C   UNK A   0      -1.771   0.810  -1.788  0.00  0.00    +0.341 A 
ATOM     11  O   UNK A   0      -2.059  -0.261  -1.285  0.00  0.00    -0.245 OA
ATOM     12  C   UNK A   0      -0.742   1.585  -1.213  0.00  0.00    +0.049 A 
ATOM     13  O   UNK A   0      -3.086   4.643  -6.284  0.00  0.00    -0.462 OA
ATOM     14  C   UNK A   0      -2.468   5.816  -6.501  0.00  0.00    +0.204 A 
ATOM     15  C   UNK A   0      -1.512   6.016  -5.567  0.00  0.00    +0.028 A 
ENDROOT
BRANCH  15  16
ATOM     16  C   UNK A   0      -0.606   7.184  -5.451  0.00  0.00    -0.014 A 
ATOM     17  C   UNK A   0      -0.470   7.845  -4.231  0.00  0.00    +0.011 A 
ATOM     18  C   UNK A   0       0.378   8.929  -4.127  0.00  0.00    +0.039 A 
ATOM     19  C   UNK A   0       1.086   9.366  -5.235  0.00  0.00    +0.123 A 
ATOM     20  C   UNK A   0       0.950   8.715  -6.450  0.00  0.00    +0.039 A 
ATOM     21  C   UNK A   0       0.108   7.628  -6.563  0.00  0.00    +0.011 A 
ATOM     22  F   UNK A   0       1.912  10.430  -5.130  0.00  0.00    -0.205 F 
ENDBRANCH  15  16
BRANCH  12  23
ATOM     23  C   UNK A   0      -0.013   1.086   0.008  0.00  0.00    +0.138 C 
BRANCH  23  24
ATOM     24  C   UNK A   0      -0.718   1.572   1.248  0.00  0.00    +0.218 C 
ATOM     25  O   UNK A   0      -1.714   2.256   1.150  0.00  0.00    -0.275 OA
ATOM     26  N   TYR A   1      -0.242   1.246   2.466  0.00  0.00    -0.302 N 
ATOM     27  H   TYR A   1       0.555   0.699   2.544  0.00  0.00    +0.150 HD
BRANCH  26  28
ATOM     28  CA  TYR A   1      -0.927   1.718   3.671  0.00  0.00    +0.191 C 
BRANCH  28  29
ATOM     29  C   TYR A   1      -0.445   3.105   4.013  0.00  0.00    +0.376 C 
ATOM     30  O   TYR A   1       0.386   3.643   3.320  0.00  0.00    -0.244 OA
ATOM     31  OXT TYR A   1      -0.939   3.742   5.086  0.00  0.00    -0.244 OA
ENDBRANCH  28  29
BRANCH  28  32
ATOM     32  CB  TYR A   1      -0.624   0.772   4.834  0.00  0.00    +0.069 C 
BRANCH  32  33
ATOM     33  CG  TYR A   1      -1.214  -0.584   4.546  0.00  0.00    -0.045 A 
ATOM     34  CD2 TYR A   1      -2.503  -0.877   4.953  0.00  0.00    +0.007 A 
ATOM     35  CE2 TYR A   1      -3.048  -2.117   4.684  0.00  0.00    +0.045 A 
ATOM     36  CZ  TYR A   1      -2.298  -3.074   4.015  0.00  0.00    +0.117 A 
ATOM     37  CE1 TYR A   1      -1.004  -2.779   3.612  0.00  0.00    +0.045 A 
ATOM     38  CD1 TYR A   1      -0.465  -1.536   3.879  0.00  0.00    +0.007 A 
BRANCH  36  39
ATOM     39  OH  TYR A   1      -2.831  -4.296   3.755  0.00  0.00    -0.507 OA
ATOM     40  HH  TYR A   1      -2.677  -4.949   4.451  0.00  0.00    +0.292 HD
ENDBRANCH  36  39
ENDBRANCH  32  33
ENDBRANCH  28  32
ENDBRANCH  26  28
ENDBRANCH  23  24
ENDBRANCH  12  23
TORSDOF 8
