REMARK  Name = ZINC51517619
REMARK  6 active torsions:
REMARK  status: ('A' for Active; 'I' for Inactive)
REMARK    1  A    between atoms: C_1  and  C_2
REMARK    2  A    between atoms: C_2  and  N_3
REMARK    3  A    between atoms: N_3  and  C_4
REMARK    4  A    between atoms: C_4  and  C_5
REMARK    5  A    between atoms: C_9  and  N_11
REMARK    6  A    between atoms: C_14  and  C_16
REMARK                            x       y       z     vdW  Elec       q    Type
REMARK                         _______ _______ _______ _____ _____    ______ ____
ROOT
ATOM      1  C   UNL     1       1.415  -2.433  -2.455  0.00  0.00    +0.045 A 
ATOM      2  C   UNL     1       0.689  -2.658  -3.609  0.00  0.00    +0.060 A 
ATOM      3  C   UNL     1       1.345  -3.106  -4.748  0.00  0.00    +0.025 A 
ATOM      4  C   UNL     1       2.713  -3.311  -4.683  0.00  0.00    +0.049 A 
ATOM      5  C   UNL     1       3.378  -3.064  -3.489  0.00  0.00    +0.154 A 
ATOM      6  N   UNL     1       2.718  -2.632  -2.426  0.00  0.00    -0.233 NA
ATOM      7 CL   UNL     1      -1.026  -2.386  -3.635  0.00  0.00    -0.082 Cl
ENDROOT
BRANCH   5   8
ATOM      8  N   UNL     1       4.759  -3.267  -3.411  0.00  0.00    -0.221 N 
ATOM      9  C   UNL     1       5.536  -3.072  -2.314  0.00  0.00    +0.117 A 
ATOM     10  C   UNL     1       6.809  -3.380  -2.654  0.00  0.00    +0.054 A 
ATOM     11  C   UNL     1       6.814  -3.775  -3.997  0.00  0.00    +0.166 A 
ATOM     12  N   UNL     1       5.588  -3.713  -4.449  0.00  0.00    -0.161 NA
BRANCH  11  13
ATOM     13  C   UNL     1       8.024  -4.204  -4.785  0.00  0.00    +0.436 C 
ATOM     14  F   UNL     1       8.194  -5.587  -4.662  0.00  0.00    -0.164 F 
ATOM     15  F   UNL     1       7.844  -3.874  -6.133  0.00  0.00    -0.164 F 
ATOM     16  F   UNL     1       9.158  -3.549  -4.292  0.00  0.00    -0.164 F 
ENDBRANCH  11  13
ENDBRANCH   5   8
BRANCH   1  17
ATOM     17  C   UNL     1       0.710  -1.947  -1.215  0.00  0.00    -0.025 C 
BRANCH  17  18
ATOM     18  N   UNL     1       0.690  -0.478  -1.207  0.00  0.00    +0.383 N 
ATOM     19  H   UNL     1       0.202  -0.144  -2.024  0.00  0.00    -0.085 HD
ATOM     20  H   UNL     1       1.636  -0.129  -1.214  0.00  0.00    -0.085 HD
BRANCH  18  22
ATOM     21  C   UNL     1      -0.019   1.526   0.010  0.00  0.00    -0.017 C 
ATOM     22  C   UNL     1       0.002  -0.004   0.002  0.00  0.00    -0.086 C 
ENDBRANCH  18  22
ENDBRANCH  17  18
ENDBRANCH   1  17
TORSDOF 5
