REMARK  Name = ZINC65535578
REMARK  4 active torsions:
REMARK  status: ('A' for Active; 'I' for Inactive)
REMARK    1  A    between atoms: C_1  and  C_2
REMARK    2  A    between atoms: C_7  and  N_8
REMARK    3  A    between atoms: N_14  and  C_21
REMARK    4  A    between atoms: C_16  and  C_18
REMARK                            x       y       z     vdW  Elec       q    Type
REMARK                         _______ _______ _______ _____ _____    ______ ____
ROOT
ATOM      1  C   UNL     1      -0.018   1.503   0.010  0.00  0.00    +0.049 C 
ATOM      2  C   UNL     1       0.002  -0.004   0.002  0.00  0.00    +0.005 A 
ATOM      3  C   UNL     1       0.006  -0.704  -1.189  0.00  0.00    +0.092 A 
ATOM      4  N   UNL     1       0.025  -2.028  -1.162  0.00  0.00    -0.334 N 
ATOM      5  C   UNL     1       0.039  -2.686  -0.012  0.00  0.00    +0.197 A 
ATOM      6  N   UNL     1       0.035  -2.053   1.151  0.00  0.00    -0.201 NA
ATOM      7  C   UNL     1       0.023  -0.725   1.198  0.00  0.00    +0.124 A 
ATOM      8  N   UNL     1       0.058  -4.070  -0.027  0.00  0.00    -0.300 N 
ATOM      9  C   UNL     1       0.070  -4.906  -1.233  0.00  0.00    +0.110 C 
ATOM     10  C   UNL     1       0.555  -6.301  -0.799  0.00  0.00    +0.006 C 
ATOM     11  C   UNL     1      -0.265  -7.375  -1.529  0.00  0.00    -0.072 C 
ATOM     12  N   UNL     1      -1.398  -7.744  -0.666  0.00  0.00    +0.383 N 
ATOM     13  C   UNL     1      -1.346  -6.945   0.569  0.00  0.00    -0.058 C 
ATOM     14  C   UNL     1       0.106  -6.392   0.686  0.00  0.00    +0.076 C 
ATOM     15  C   UNL     1       0.075  -4.931   1.160  0.00  0.00    +0.124 C 
ATOM     16  H   UNL     1      -1.341  -8.725  -0.436  0.00  0.00    -0.081 HD
ATOM     17  H   UNL     1       0.028  -2.523  -1.996  0.00  0.00    +0.168 HD
ENDROOT
BRANCH  12  18
ATOM     18  C   UNL     1      -2.659  -7.477  -1.371  0.00  0.00    -0.069 C 
ATOM     19  C   UNL     1      -3.855  -7.893  -0.489  0.00  0.00    -0.015 C 
ATOM     20  C   UNL     1      -4.881  -8.477  -1.492  0.00  0.00    -0.002 C 
ATOM     21  C   UNL     1      -3.981  -9.232  -2.501  0.00  0.00    -0.002 C 
ATOM     22  C   UNL     1      -2.739  -8.328  -2.650  0.00  0.00    -0.015 C 
ENDBRANCH  12  18
BRANCH   7  23
ATOM     23  N   UNL     1       0.025  -0.065   2.416  0.00  0.00    -0.343 N 
ATOM     24  H   UNL     1       0.012   0.905   2.442  0.00  0.00    +0.144 HD
ATOM     25  H   UNL     1       0.040  -0.572   3.243  0.00  0.00    +0.144 HD
ENDBRANCH   7  23
BRANCH  14  26
ATOM     26  C   UNL     1       1.006  -7.267   1.521  0.00  0.00    +0.362 C 
ATOM     27  O   UNL     1       1.150  -7.035   2.709  0.00  0.00    -0.246 OA
ATOM     28  O   UNL     1       1.589  -8.207   1.008  0.00  0.00    -0.246 OA
ENDBRANCH  14  26
TORSDOF 3
