REMARK  Name = ZINC12296484
REMARK  9 active torsions:
REMARK  status: ('A' for Active; 'I' for Inactive)
REMARK    1  A    between atoms: C_1  and  C_2
REMARK    2  A    between atoms: N_6  and  O_7
REMARK    3  A    between atoms: O_7  and  C_8
REMARK    4  A    between atoms: C_8  and  C_9
REMARK    5  A    between atoms: N_11  and  C_12
REMARK    6  A    between atoms: C_12  and  C_13
REMARK    7  A    between atoms: C_25  and  C_34
REMARK    8  A    between atoms: C_30  and  C_31
REMARK    9  A    between atoms: C_30  and  O_33
REMARK                            x       y       z     vdW  Elec       q    Type
REMARK                         _______ _______ _______ _____ _____    ______ ____
ROOT
ATOM      1  C   UNL     1       3.476   3.583  -1.926  0.00  0.00    +0.016 C 
ATOM      2  C   UNL     1       3.522   2.200  -1.273  0.00  0.00    -0.007 C 
ATOM      3  C   UNL     1       4.017   2.333   0.169  0.00  0.00    +0.017 C 
ATOM      4  C   UNL     1       5.426   2.935   0.157  0.00  0.00    +0.059 C 
ATOM      5  C   UNL     1       6.323   2.061  -0.685  0.00  0.00    +0.080 C 
ATOM      6  N   UNL     1       7.596   2.019  -0.448  0.00  0.00    -0.089 NA
ATOM      7  C   UNL     1       5.750   1.258  -1.772  0.00  0.00    +0.026 C 
ATOM      8  C   UNL     1       4.455   1.310  -2.050  0.00  0.00    -0.062 C 
ATOM      9  C   UNL     1       3.871   0.463  -3.153  0.00  0.00    +0.031 C 
ATOM     10  C   UNL     1       2.836  -0.475  -2.566  0.00  0.00    +0.008 C 
ATOM     11  C   UNL     1       2.191   0.068  -1.293  0.00  0.00    -0.003 C 
ATOM     12  C   UNL     1       2.116   1.585  -1.277  0.00  0.00    +0.002 C 
ATOM     13  C   UNL     1       1.405   2.058  -0.000  0.00  0.00    +0.005 C 
ATOM     14  C   UNL     1      -0.018   1.508   0.010  0.00  0.00    +0.011 C 
ATOM     15  C   UNL     1       0.002  -0.004   0.002  0.00  0.00    +0.011 C 
ATOM     16  C   UNL     1       0.803  -0.576  -1.177  0.00  0.00    +0.002 C 
ATOM     17  C   UNL     1       1.042  -2.044  -0.711  0.00  0.00    +0.008 C 
ATOM     18  C   UNL     1       1.327  -1.909   0.801  0.00  0.00    +0.049 C 
ATOM     19  C   UNL     1       0.662  -0.593   1.255  0.00  0.00    +0.132 C 
ATOM     20  C   UNL     1      -1.434  -0.523  -0.096  0.00  0.00    +0.015 C 
ENDROOT
BRANCH  19  21
ATOM     21  C   UNL     1      -0.354  -0.867   2.284  0.00  0.00    -0.070 C 
ATOM     22  C   UNL     1      -1.165  -1.085   3.104  0.00  0.00    +0.007 C 
ENDBRANCH  19  21
BRANCH  19  23
ATOM     23  O   UNL     1       1.648   0.308   1.763  0.00  0.00    -0.376 OA
ATOM     24  H   UNL     1       2.101  -0.011   2.556  0.00  0.00    +0.211 HD
ENDBRANCH  19  23
BRANCH   6  25
ATOM     25  O   UNL     1       8.147   2.794   0.601  0.00  0.00    -0.384 OA
BRANCH  25  26
ATOM     26  C   UNL     1       9.561   2.650   0.748  0.00  0.00    +0.358 C 
BRANCH  26  27
ATOM     27  C   UNL     1      10.037   3.515   1.887  0.00  0.00    +0.254 C 
ATOM     28  O   UNL     1       9.244   4.187   2.511  0.00  0.00    -0.272 OA
ATOM     29  N   UNL     1      11.345   3.540   2.212  0.00  0.00    -0.302 N 
ATOM     30  H   UNL     1      11.980   3.002   1.713  0.00  0.00    +0.149 HD
BRANCH  29  31
ATOM     31  C   UNL     1      11.808   4.380   3.319  0.00  0.00    +0.229 C 
BRANCH  31  32
ATOM     32  C   UNL     1      13.300   4.229   3.475  0.00  0.00    +0.373 C 
ATOM     33  O   UNL     1      13.913   3.495   2.737  0.00  0.00    -0.245 OA
ATOM     34  O   UNL     1      13.947   4.910   4.434  0.00  0.00    -0.245 OA
ENDBRANCH  31  32
ENDBRANCH  29  31
ENDBRANCH  26  27
ENDBRANCH  25  26
ENDBRANCH   6  25
TORSDOF 7
