REMARK  Name = ZINC39691161
REMARK  6 active torsions:
REMARK  status: ('A' for Active; 'I' for Inactive)
REMARK    1  A    between atoms: C_1  and  C_2
REMARK    2  A    between atoms: C_7  and  C_8
REMARK    3  A    between atoms: C_8  and  C_9
REMARK    4  A    between atoms: C_9  and  N_10
REMARK    5  A    between atoms: C_11  and  C_13
REMARK    6  A    between atoms: C_24  and  C_26
REMARK                            x       y       z     vdW  Elec       q    Type
REMARK                         _______ _______ _______ _____ _____    ______ ____
ROOT
ATOM      1  C   UNL     1      -2.909   2.131   5.505  0.00  0.00    +0.100 C 
ATOM      2  C   UNL     1      -1.931   3.325   5.572  0.00  0.00    +0.121 C 
ATOM      3  N   UNL     1      -2.792   4.523   5.429  0.00  0.00    -0.296 N 
ATOM      4  C   UNL     1      -4.005   4.201   6.218  0.00  0.00    +0.115 C 
ATOM      5  C   UNL     1      -4.269   2.709   5.933  0.00  0.00    -0.004 C 
ATOM      6  C   UNL     1      -5.285   2.560   4.805  0.00  0.00    -0.010 C 
ATOM      7  C   UNL     1      -6.643   3.090   5.274  0.00  0.00    -0.082 C 
ATOM      8  N   UNL     1      -7.081   2.339   6.457  0.00  0.00    +0.379 N 
ATOM      9  C   UNL     1      -6.146   2.562   7.566  0.00  0.00    -0.082 C 
ATOM     10  C   UNL     1      -4.767   2.010   7.194  0.00  0.00    -0.010 C 
ATOM     11  C   UNL     1      -2.531   5.650   4.738  0.00  0.00    +0.248 C 
ATOM     12  O   UNL     1      -3.301   6.589   4.793  0.00  0.00    -0.270 OA
ATOM     13  H   UNL     1      -8.002   2.648   6.728  0.00  0.00    -0.086 HD
ATOM     14  H   UNL     1      -7.111   1.355   6.237  0.00  0.00    -0.086 HD
ENDROOT
BRANCH  11  15
ATOM     15  C   UNL     1      -1.310   5.744   3.912  0.00  0.00    +0.057 A 
ATOM     16  C   UNL     1      -0.128   5.131   4.335  0.00  0.00    +0.014 A 
ATOM     17  C   UNL     1       1.009   5.223   3.560  0.00  0.00    +0.002 A 
ATOM     18  C   UNL     1       0.982   5.919   2.364  0.00  0.00    +0.021 A 
ATOM     19  C   UNL     1      -0.184   6.529   1.937  0.00  0.00    +0.060 A 
ATOM     20  C   UNL     1      -1.333   6.441   2.701  0.00  0.00    +0.071 A 
ATOM     21 CL   UNL     1      -2.798   7.199   2.162  0.00  0.00    -0.081 Cl
ATOM     22 CL   UNL     1      -0.207   7.401   0.436  0.00  0.00    -0.082 Cl
ENDBRANCH  11  15
BRANCH   1  24
ATOM     23  N   UNL     1      -3.299   0.300   3.888  0.00  0.00    -0.315 N 
ATOM     24  C   UNL     1      -2.986   1.594   4.099  0.00  0.00    +0.218 C 
ATOM     25  O   UNL     1      -2.767   2.326   3.158  0.00  0.00    -0.275 OA
ATOM     26  H   UNL     1      -3.475  -0.285   4.641  0.00  0.00    +0.149 HD
BRANCH  23  27
ATOM     27  C   UNL     1      -3.374  -0.221   2.521  0.00  0.00    +0.109 C 
BRANCH  27  28
ATOM     28  C   UNL     1      -3.744  -1.705   2.561  0.00  0.00    +0.054 C 
BRANCH  28  35
ATOM     29  C   UNL     1      -1.349  -2.623   1.232  0.00  0.00    +0.044 C 
ATOM     30  C   UNL     1      -2.675  -2.681   0.519  0.00  0.00    -0.047 A 
ATOM     31  C   UNL     1      -2.747  -3.179  -0.769  0.00  0.00    +0.003 A 
ATOM     32  C   UNL     1      -3.964  -3.232  -1.423  0.00  0.00    +0.000 A 
ATOM     33  C   UNL     1      -5.109  -2.788  -0.788  0.00  0.00    +0.000 A 
ATOM     34  C   UNL     1      -5.038  -2.291   0.499  0.00  0.00    +0.004 A 
ATOM     35  C   UNL     1      -3.821  -2.242   1.155  0.00  0.00    -0.043 A 
ENDBRANCH  28  35
ENDBRANCH  27  28
ENDBRANCH  23  27
ENDBRANCH   1  24
TORSDOF 5
