REMARK  Name = ZINC09332633
REMARK  7 active torsions:
REMARK  status: ('A' for Active; 'I' for Inactive)
REMARK    1  A    between atoms: C_1  and  N_53
REMARK    2  A    between atoms: C_14  and  C_16
REMARK    3  A    between atoms: C_17  and  O_32
REMARK    4  A    between atoms: C_19  and  O_31
REMARK    5  A    between atoms: N_20  and  C_23
REMARK    6  A    between atoms: C_28  and  O_29
REMARK    7  A    between atoms: O_29  and  C_30
REMARK                            x       y       z     vdW  Elec       q    Type
REMARK                         _______ _______ _______ _____ _____    ______ ____
ROOT
ATOM      1  C   UNL     1       5.371   3.177  -1.171  0.00  0.00    +0.071 A 
ATOM      2  C   UNL     1       5.934   3.496   0.052  0.00  0.00    +0.224 A 
ATOM      3  N   UNL     1       5.322   3.123   1.182  0.00  0.00    -0.161 NA
ATOM      4  C   UNL     1       4.188   2.460   1.155  0.00  0.00    +0.306 A 
ATOM      5  N   UNL     1       3.595   2.117  -0.020  0.00  0.00    -0.227 N 
ATOM      6  C   UNL     1       4.165   2.466  -1.192  0.00  0.00    +0.267 A 
ATOM      7  O   UNL     1       3.639   2.167  -2.252  0.00  0.00    -0.267 OA
ENDROOT
BRANCH   1  21
ATOM      8  C   UNL     1       4.705   5.600  -2.646  0.00  0.00    -0.095 C 
ATOM      9  C   UNL     1       5.637   4.582  -4.636  0.00  0.00    -0.073 C 
ATOM     10  C   UNL     1       5.665   3.263  -5.421  0.00  0.00    +0.019 C 
ATOM     11  C   UNL     1       6.308   2.215  -4.549  0.00  0.00    -0.022 A 
ATOM     12  C   UNL     1       6.845   0.923  -4.913  0.00  0.00    +0.003 A 
ATOM     13  C   UNL     1       6.941   0.243  -6.131  0.00  0.00    +0.010 A 
ATOM     14  C   UNL     1       7.527  -0.998  -6.105  0.00  0.00    +0.001 A 
ATOM     15  C   UNL     1       8.004  -1.562  -4.933  0.00  0.00    +0.002 A 
ATOM     16  C   UNL     1       7.922  -0.912  -3.714  0.00  0.00    +0.026 A 
ATOM     17  C   UNL     1       7.332   0.350  -3.710  0.00  0.00    +0.047 A 
ATOM     18  N   UNL     1       7.095   1.246  -2.707  0.00  0.00    -0.359 N 
ATOM     19  H   UNL     1       7.327   1.114  -1.774  0.00  0.00    +0.166 HD
ATOM     20  C   UNL     1       6.482   2.359  -3.215  0.00  0.00    +0.011 A 
ATOM     21  C   UNL     1       6.043   3.588  -2.456  0.00  0.00    +0.021 C 
ATOM     22  N   UNL     1       5.066   4.323  -3.295  0.00  0.00    +0.387 N 
ATOM     23  H   UNL     1       4.220   3.751  -3.398  0.00  0.00    -0.081 HD
ENDBRANCH   1  21
BRANCH   5  24
ATOM     24  C   UNL     1       2.388   1.404  -0.013  0.00  0.00    +0.096 A 
ATOM     25  C   UNL     1       2.398   0.017  -0.021  0.00  0.00    +0.030 A 
ATOM     26  C   UNL     1       1.207  -0.683  -0.014  0.00  0.00    +0.002 A 
ATOM     27  C   UNL     1       0.002  -0.004   0.002  0.00  0.00    +0.004 A 
ATOM     28  C   UNL     1      -0.017   1.378   0.010  0.00  0.00    +0.048 A 
ATOM     29  C   UNL     1       1.174   2.087   0.002  0.00  0.00    +0.144 A 
BRANCH  29  30
ATOM     30  O   UNL     1       1.157   3.447   0.009  0.00  0.00    -0.493 OA
ATOM     31  C   UNL     1      -0.124   4.080   0.024  0.00  0.00    +0.277 C 
ENDBRANCH  29  30
ENDBRANCH   5  24
BRANCH   4  32
ATOM     32  O   UNL     1       3.602   2.107   2.318  0.00  0.00    -0.479 OA
ATOM     33  H   UNL     1       4.088   2.390   3.105  0.00  0.00    +0.295 HD
ENDBRANCH   4  32
BRANCH   2  34
ATOM     34  O   UNL     1       7.099   4.183   0.106  0.00  0.00    -0.492 OA
ATOM     35  H   UNL     1       7.411   4.357   1.004  0.00  0.00    +0.294 HD
ENDBRANCH   2  34
TORSDOF 5
