REMARK  Name = ZINC44360130
REMARK  12 active torsions:
REMARK  status: ('A' for Active; 'I' for Inactive)
REMARK    1  A    between atoms: C_1  and  C_2
REMARK    2  A    between atoms: C_2  and  O_3
REMARK    3  A    between atoms: O_3  and  C_4
REMARK    4  A    between atoms: C_4  and  C_6
REMARK    5  A    between atoms: C_6  and  C_8
REMARK    6  A    between atoms: C_6  and  N_30
REMARK    7  A    between atoms: C_8  and  C_9
REMARK    8  A    between atoms: C_12  and  O_16
REMARK    9  A    between atoms: C_13  and  O_15
REMARK   10  A    between atoms: O_16  and  C_17
REMARK   11  A    between atoms: C_20  and  C_26
REMARK   12  A    between atoms: C_22  and  N_23
REMARK                            x       y       z     vdW  Elec       q    Type
REMARK                         _______ _______ _______ _____ _____    ______ ____
ROOT
ATOM      1  C   UNL     1      -4.851  -2.924   1.433  0.00  0.00    -0.045 A 
ATOM      2  C   UNL     1      -5.874  -2.006   1.286  0.00  0.00    +0.007 A 
ATOM      3  C   UNL     1      -7.190  -2.429   1.277  0.00  0.00    +0.050 A 
ATOM      4  C   UNL     1      -7.486  -3.776   1.416  0.00  0.00    +0.170 A 
ATOM      5  C   UNL     1      -6.456  -4.699   1.564  0.00  0.00    +0.159 A 
ATOM      6  C   UNL     1      -5.138  -4.269   1.566  0.00  0.00    +0.052 A 
ENDROOT
BRANCH   5   7
ATOM      7  O   UNL     1      -6.741  -6.022   1.700  0.00  0.00    -0.503 OA
ATOM      8  H   UNL     1      -6.786  -6.503   0.863  0.00  0.00    +0.292 HD
ENDBRANCH   5   7
BRANCH   1   9
ATOM      9  C   UNL     1      -3.418  -2.457   1.441  0.00  0.00    +0.030 C 
BRANCH   9  10
ATOM     10  C   UNL     1      -2.874  -2.454   0.011  0.00  0.00    +0.040 C 
BRANCH  10  11
ATOM     11  N   UNL     1      -2.832  -3.830  -0.500  0.00  0.00    +0.387 N 
ATOM     12  H   UNL     1      -3.762  -4.220  -0.495  0.00  0.00    -0.089 HD
ATOM     13  H   UNL     1      -2.473  -3.828  -1.443  0.00  0.00    -0.089 HD
ATOM     14  H   UNL     1      -2.230  -4.388   0.087  0.00  0.00    -0.089 HD
ENDBRANCH  10  11
BRANCH  10  15
ATOM     15  C   UNL     1      -1.484  -1.872   0.003  0.00  0.00    +0.293 C 
ATOM     16  O   UNL     1      -0.523  -2.603  -0.032  0.00  0.00    -0.253 OA
BRANCH  15  17
ATOM     17  O   UNL     1      -1.314  -0.541   0.035  0.00  0.00    -0.466 OA
BRANCH  17  19
ATOM     18  C   UNL     1       0.025   1.471   0.065  0.00  0.00    +0.048 C 
ATOM     19  C   UNL     1       0.032  -0.059   0.025  0.00  0.00    +0.228 C 
ENDBRANCH  17  19
ENDBRANCH  15  17
ENDBRANCH  10  15
ENDBRANCH   9  10
ENDBRANCH   1   9
BRANCH   4  20
ATOM     20  O   UNL     1      -8.780  -4.193   1.408  0.00  0.00    -0.450 OA
BRANCH  20  21
ATOM     21  C   UNL     1      -9.379  -4.435   2.603  0.00  0.00    +0.159 A 
ATOM     22  C   UNL     1      -8.714  -4.145   3.786  0.00  0.00    +0.049 A 
ATOM     23  C   UNL     1      -9.326  -4.391   4.999  0.00  0.00    +0.016 A 
ATOM     24  C   UNL     1     -10.600  -4.928   5.036  0.00  0.00    +0.057 A 
ATOM     25  C   UNL     1     -11.265  -5.219   3.860  0.00  0.00    +0.048 A 
ATOM     26  C   UNL     1     -10.660  -4.968   2.643  0.00  0.00    +0.169 A 
BRANCH  24  27
ATOM     27  C   UNL     1     -11.265  -5.196   6.362  0.00  0.00    +0.417 C 
ATOM     28  F   UNL     1     -10.403  -4.824   7.399  0.00  0.00    -0.166 F 
ATOM     29  F   UNL     1     -12.448  -4.455   6.449  0.00  0.00    -0.166 F 
ATOM     30  F   UNL     1     -11.560  -6.560   6.468  0.00  0.00    -0.166 F 
ENDBRANCH  24  27
BRANCH  26  31
ATOM     31  N   UNL     1     -11.374  -5.275   1.383  0.00  0.00    +0.060 N 
ATOM     32  O   UNL     1     -12.490  -5.739   1.419  0.00  0.00    -0.126 OA
ATOM     33  O   UNL     1     -10.842  -5.060   0.319  0.00  0.00    -0.126 OA
ENDBRANCH  26  31
ENDBRANCH  20  21
ENDBRANCH   4  20
TORSDOF 11
