REMARK  Name = ZINC21035068
REMARK  6 active torsions:
REMARK  status: ('A' for Active; 'I' for Inactive)
REMARK    1  A    between atoms: C_1  and  C_2
REMARK    2  A    between atoms: C_4  and  C_14
REMARK    3  A    between atoms: C_4  and  N_18
REMARK    4  A    between atoms: N_7  and  C_8
REMARK    5  A    between atoms: C_8  and  C_9
REMARK    6  A    between atoms: C_19  and  C_21
REMARK                            x       y       z     vdW  Elec       q    Type
REMARK                         _______ _______ _______ _____ _____    ______ ____
ROOT
ATOM      1  C   UNL     1       4.053   9.191   1.623  0.00  0.00    +0.083 C 
ATOM      2  C   UNL     1       2.766   8.537   1.191  0.00  0.00    +0.099 C 
ATOM      3  N   UNL     1       2.646   7.859   0.100  0.00  0.00    -0.230 NA
ATOM      4  C   UNL     1       1.255   7.382   0.028  0.00  0.00    +0.302 C 
ATOM      5  C   UNL     1       0.618   7.928   1.291  0.00  0.00    +0.276 C 
ATOM      6  O   UNL     1      -0.529   7.788   1.661  0.00  0.00    -0.270 OA
ATOM      7  N   UNL     1       1.607   8.602   1.915  0.00  0.00    -0.249 N 
ENDROOT
BRANCH   4   8
ATOM      8  C   UNL     1       0.558   7.945  -1.212  0.00  0.00    +0.440 C 
ATOM      9  F   UNL     1      -0.782   7.542  -1.216  0.00  0.00    -0.166 F 
ATOM     10  F   UNL     1       0.625   9.342  -1.192  0.00  0.00    -0.166 F 
ATOM     11  F   UNL     1       1.193   7.464  -2.363  0.00  0.00    -0.166 F 
ENDBRANCH   4   8
BRANCH   4  12
ATOM     12  N   UNL     1       1.213   5.918   0.021  0.00  0.00    -0.273 N 
ATOM     13  C   UNL     1       0.027   5.278   0.029  0.00  0.00    +0.248 C 
ATOM     14  O   UNL     1      -1.008   5.916   0.043  0.00  0.00    -0.270 OA
ATOM     15  H   UNL     1       2.149   5.341   0.009  0.00  0.00    +0.152 HD
BRANCH  13  16
ATOM     16  C   UNL     1      -0.015   3.800   0.022  0.00  0.00    +0.055 A 
ATOM     17  C   UNL     1      -1.241   3.123   0.030  0.00  0.00    +0.016 A 
ATOM     18  C   UNL     1      -1.226   1.740   0.017  0.00  0.00    +0.020 A 
ATOM     19  C   UNL     1      -0.013   1.076   0.008  0.00  0.00    +0.111 A 
ATOM     20  N   UNL     1       1.127   1.740   0.001  0.00  0.00    -0.263 NA
ATOM     21  C   UNL     1       1.165   3.057   0.007  0.00  0.00    +0.123 A 
ENDBRANCH  13  16
ENDBRANCH   4  12
BRANCH   7  22
ATOM     22  C   UNL     1       1.460   9.308   3.190  0.00  0.00    +0.189 C 
BRANCH  22  23
ATOM     23  C   UNL     1       1.777   8.367   4.324  0.00  0.00    +0.122 A 
ATOM     24  C   UNL     1       2.991   8.175   4.871  0.00  0.00    +0.046 A 
ATOM     25  C   UNL     1       2.832   7.214   5.896  0.00  0.00    +0.041 A 
ATOM     26  C   UNL     1       1.530   6.876   5.913  0.00  0.00    +0.195 A 
ATOM     27  O   UNL     1       0.895   7.581   4.963  0.00  0.00    -0.466 OA
ENDBRANCH  22  23
ENDBRANCH   7  22
TORSDOF 5
