REMARK  Name = ZINC19766880
REMARK  6 active torsions:
REMARK  status: ('A' for Active; 'I' for Inactive)
REMARK    1  A    between atoms: C_1  and  C_2
REMARK    2  A    between atoms: C_2  and  C_3
REMARK    3  A    between atoms: N_9  and  C_10
REMARK    4  A    between atoms: N_15  and  C_18
REMARK    5  A    between atoms: C_21  and  O_25
REMARK    6  A    between atoms: C_23  and  C_24
REMARK                            x       y       z     vdW  Elec       q    Type
REMARK                         _______ _______ _______ _____ _____    ______ ____
ROOT
ATOM      1  C   UNL     1       0.912   3.499  -0.066  0.00  0.00    +0.029 C 
ATOM      2  C   UNL     1       1.729   2.193  -0.133  0.00  0.00    +0.091 C 
ATOM      3  C   UNL     1       0.672   1.111  -0.108  0.00  0.00    +0.225 C 
ATOM      4  O   UNL     1       0.887  -0.082  -0.145  0.00  0.00    -0.275 OA
ATOM      5  N   UNL     1      -0.538   1.679  -0.044  0.00  0.00    -0.212 N 
ATOM      6  C   UNL     1      -0.522   3.017  -0.009  0.00  0.00    +0.213 C 
ATOM      7  O   UNL     1      -1.500   3.730   0.052  0.00  0.00    -0.277 OA
ENDROOT
BRANCH   1  13
ATOM      8  C   UNL     1       0.537   5.645  -1.121  0.00  0.00    -0.068 C 
ATOM      9  C   UNL     1       0.914   6.511  -2.325  0.00  0.00    -0.015 C 
ATOM     10  C   UNL     1       0.409   5.842  -3.607  0.00  0.00    -0.003 C 
ATOM     11  C   UNL     1       1.011   4.438  -3.711  0.00  0.00    -0.019 C 
ATOM     12  C   UNL     1       0.631   3.632  -2.466  0.00  0.00    -0.077 C 
ATOM     13  N   UNL     1       1.137   4.313  -1.268  0.00  0.00    +0.390 N 
ATOM     14  H   UNL     1       2.222   4.445  -1.390  0.00  0.00    -0.080 HD
BRANCH   8  16
ATOM     15  C   UNL     1       0.384   7.661   0.347  0.00  0.00    +0.002 C 
ATOM     16  C   UNL     1       1.057   6.300   0.161  0.00  0.00    -0.019 C 
ENDBRANCH   8  16
ENDBRANCH   1  13
BRANCH   5  17
ATOM     17  C   UNL     1      -1.727   0.933  -0.011  0.00  0.00    +0.047 A 
ATOM     18  C   UNL     1      -2.265   0.536   1.205  0.00  0.00    +0.028 A 
ATOM     19  C   UNL     1      -3.434  -0.197   1.237  0.00  0.00    +0.047 A 
ATOM     20  C   UNL     1      -4.071  -0.538   0.052  0.00  0.00    +0.117 A 
ATOM     21  C   UNL     1      -3.534  -0.142  -1.164  0.00  0.00    +0.050 A 
ATOM     22  C   UNL     1      -2.368   0.597  -1.196  0.00  0.00    -0.025 A 
ATOM     23  C   UNL     1      -1.788   1.033  -2.517  0.00  0.00    +0.046 C 
BRANCH  20  24
ATOM     24  O   UNL     1      -5.222  -1.261   0.084  0.00  0.00    -0.507 OA
ATOM     25  H   UNL     1      -5.728  -1.531  -0.855  0.00  0.00    +0.292 HD
ENDBRANCH  20  24
ENDBRANCH   5  17
TORSDOF 4
