REMARK  Name = ZINC15670688
REMARK  8 active torsions:
REMARK  status: ('A' for Active; 'I' for Inactive)
REMARK    1  A    between atoms: C_1  and  N_2
REMARK    2  A    between atoms: C_5  and  C_12
REMARK    3  A    between atoms: C_6  and  O_11
REMARK    4  A    between atoms: C_21  and  C_24
REMARK    5  A    between atoms: C_27  and  O_32
REMARK    6  A    between atoms: C_29  and  O_30
REMARK    7  A    between atoms: O_30  and  C_31
REMARK    8  A    between atoms: O_32  and  C_33
REMARK                            x       y       z     vdW  Elec       q    Type
REMARK                         _______ _______ _______ _____ _____    ______ ____
ROOT
ATOM      1  C   UNL     1       0.396   6.288  -0.159  0.00  0.00    +0.061 C 
ATOM      2  N   UNL     1      -0.168   5.256   0.254  0.00  0.00    -0.250 NA
ATOM      3  C   UNL     1      -0.010   3.946   0.449  0.00  0.00    +0.078 A 
ATOM      4  C   UNL     1      -1.185   3.257   0.825  0.00  0.00    +0.029 A 
ATOM      5  C   UNL     1      -1.190   1.901   1.028  0.00  0.00    +0.002 A 
ATOM      6  C   UNL     1      -0.018   1.178   0.878  0.00  0.00    +0.001 A 
ATOM      7  C   UNL     1       1.140   1.829   0.524  0.00  0.00    +0.017 A 
ATOM      8  C   UNL     1       1.168   3.212   0.308  0.00  0.00    +0.034 A 
ATOM      9  S   UNL     1       2.714   3.911  -0.117  0.00  0.00    -0.115 S 
ATOM     10  C   UNL     1       2.416   5.290  -1.214  0.00  0.00    +0.091 C 
ATOM     11  C   UNL     1       1.824   6.487  -0.526  0.00  0.00    +0.075 C 
ENDROOT
BRANCH   1  16
ATOM     12  C   UNL     1      -1.814  10.316   1.775  0.00  0.00    +0.157 C 
ATOM     13  N   UNL     1      -1.531   9.419   0.652  0.00  0.00    -0.263 N 
ATOM     14  C   UNL     1      -0.737   8.345   0.839  0.00  0.00    +0.269 A 
ATOM     15  O   UNL     1      -0.253   8.113   1.932  0.00  0.00    -0.267 OA
ATOM     16  C   UNL     1      -0.464   7.464  -0.302  0.00  0.00    +0.120 A 
ATOM     17  C   UNL     1      -1.053   7.779  -1.529  0.00  0.00    +0.208 A 
ATOM     18  N   UNL     1      -1.848   8.886  -1.617  0.00  0.00    -0.278 N 
ATOM     19  H   UNL     1      -2.260   9.109  -2.467  0.00  0.00    +0.173 HD
ATOM     20  C   UNL     1      -2.071   9.672  -0.552  0.00  0.00    +0.332 A 
ATOM     21  O   UNL     1      -2.787  10.646  -0.681  0.00  0.00    -0.246 OA
BRANCH  17  22
ATOM     22  O   UNL     1      -0.841   7.002  -2.608  0.00  0.00    -0.493 OA
ATOM     23  H   UNL     1      -1.274   7.267  -3.432  0.00  0.00    +0.294 HD
ENDBRANCH  17  22
ENDBRANCH   1  16
BRANCH  10  24
ATOM     24  C   UNL     1       3.723   5.697  -1.844  0.00  0.00    +0.008 A 
ATOM     25  C   UNL     1       4.914   5.425  -1.200  0.00  0.00    +0.012 A 
ATOM     26  C   UNL     1       6.114   5.791  -1.778  0.00  0.00    +0.046 A 
ATOM     27  C   UNL     1       6.126   6.444  -3.002  0.00  0.00    +0.124 A 
ATOM     28  C   UNL     1       4.931   6.723  -3.648  0.00  0.00    +0.091 A 
ATOM     29  C   UNL     1       3.728   6.349  -3.069  0.00  0.00    +0.128 A 
BRANCH  29  30
ATOM     30  O   UNL     1       2.556   6.621  -3.700  0.00  0.00    -0.495 OA
ATOM     31  C   UNL     1       2.637   7.295  -4.958  0.00  0.00    +0.277 C 
ENDBRANCH  29  30
BRANCH  27  32
ATOM     32  O   UNL     1       7.306   6.809  -3.568  0.00  0.00    -0.495 OA
ATOM     33  C   UNL     1       8.497   6.489  -2.846  0.00  0.00    +0.277 C 
ENDBRANCH  27  32
ENDBRANCH  10  24
TORSDOF 5
