REMARK  Name = ZINC37916568
REMARK  4 active torsions:
REMARK  status: ('A' for Active; 'I' for Inactive)
REMARK    1  A    between atoms: C_1  and  C_2
REMARK    2  A    between atoms: C_2  and  C_4
REMARK    3  A    between atoms: C_2  and  N_10
REMARK    4  A    between atoms: C_14  and  C_17
REMARK                            x       y       z     vdW  Elec       q    Type
REMARK                         _______ _______ _______ _____ _____    ______ ____
ROOT
ATOM      1  N   UNL     1       0.713  -0.491   1.192  0.00  0.00    +0.385 N 
ATOM      2  C   UNL     1       2.087   0.025   1.185  0.00  0.00    -0.078 C 
ATOM      3  C   UNL     1       2.806  -0.412   2.463  0.00  0.00    -0.018 C 
ATOM      4  C   UNL     1       2.834  -1.941   2.528  0.00  0.00    -0.002 C 
ATOM      5  C   UNL     1       1.399  -2.472   2.460  0.00  0.00    -0.042 C 
ATOM      6  C   UNL     1       0.732  -1.958   1.183  0.00  0.00    -0.076 C 
ATOM      7  H   UNL     1       0.238  -0.167   2.022  0.00  0.00    -0.081 HD
ENDROOT
BRANCH   5   8
ATOM      8  C   UNL     1       1.420  -4.002   2.448  0.00  0.00    -0.071 C 
ATOM      9  C   UNL     1      -0.024  -4.546   2.423  0.00  0.00    -0.017 C 
ATOM     10  C   UNL     1       0.055  -5.787   3.351  0.00  0.00    -0.021 C 
ATOM     11  C   UNL     1       1.066  -5.312   4.424  0.00  0.00    -0.082 C 
ATOM     12  N   UNL     1       2.059  -4.505   3.678  0.00  0.00    +0.381 N 
ATOM     13  H   UNL     1       2.854  -5.078   3.437  0.00  0.00    -0.086 HD
ATOM     14  H   UNL     1       2.362  -3.727   4.245  0.00  0.00    -0.086 HD
ENDBRANCH   5   8
BRANCH   1  16
ATOM     15  C   UNL     1      -0.019   1.526   0.010  0.00  0.00    -0.008 C 
ATOM     16  C   UNL     1       0.002  -0.004   0.002  0.00  0.00    -0.034 C 
BRANCH  16  17
ATOM     17  C   UNL     1      -1.412  -0.526   0.013  0.00  0.00    -0.023 A 
ATOM     18  C   UNL     1      -2.157  -0.992  -1.019  0.00  0.00    +0.011 A 
ATOM     19  C   UNL     1      -3.447  -1.424  -0.772  0.00  0.00    +0.028 A 
ATOM     20  C   UNL     1      -3.928  -1.369   0.495  0.00  0.00    +0.078 A 
ATOM     21  S   UNL     1      -2.536  -0.697   1.389  0.00  0.00    -0.083 S 
ATOM     22 CL   UNL     1      -5.489  -1.836   1.093  0.00  0.00    -0.076 Cl
ENDBRANCH  16  17
ENDBRANCH   1  16
TORSDOF 3
