REMARK  Name = ZINC62711584
REMARK  7 active torsions:
REMARK  status: ('A' for Active; 'I' for Inactive)
REMARK    1  A    between atoms: C_1  and  C_2
REMARK    2  A    between atoms: C_3  and  C_17
REMARK    3  A    between atoms: C_11  and  N_12
REMARK    4  A    between atoms: N_12  and  C_13
REMARK    5  A    between atoms: N_12  and  C_14
REMARK    6  A    between atoms: C_17  and  N_18
REMARK    7  A    between atoms: N_18  and  C_19
REMARK                            x       y       z     vdW  Elec       q    Type
REMARK                         _______ _______ _______ _____ _____    ______ ____
ROOT
ATOM      1  C   UNL     1      -0.018   1.503   0.010  0.00  0.00    +0.047 C 
ATOM      2  C   UNL     1       0.002  -0.004   0.002  0.00  0.00    -0.008 A 
ATOM      3  C   UNL     1       0.006  -0.695  -1.202  0.00  0.00    +0.035 A 
ATOM      4  N   UNL     1       0.023  -2.006  -1.248  0.00  0.00    -0.357 N 
ATOM      5  C   UNL     1       0.038  -2.749  -0.135  0.00  0.00    +0.050 A 
ATOM      6  C   UNL     1       0.056  -4.152  -0.202  0.00  0.00    +0.047 A 
ATOM      7  C   UNL     1       0.071  -4.884   0.947  0.00  0.00    +0.061 A 
ATOM      8  C   UNL     1       0.069  -4.262   2.195  0.00  0.00    +0.060 A 
ATOM      9  C   UNL     1       0.051  -2.902   2.297  0.00  0.00    +0.033 A 
ATOM     10  C   UNL     1       0.036  -2.121   1.133  0.00  0.00    +0.021 A 
ATOM     11  C   UNL     1       0.023  -0.707   1.196  0.00  0.00    +0.043 A 
ATOM     12 CL   UNL     1       0.089  -5.229   3.636  0.00  0.00    -0.082 Cl
ATOM     13 CL   UNL     1       0.093  -6.618   0.856  0.00  0.00    -0.082 Cl
ATOM     14  H   UNL     1       0.025  -2.449  -2.112  0.00  0.00    +0.166 HD
ENDROOT
BRANCH  11  15
ATOM     15  N   UNL     1       0.026  -0.045   2.415  0.00  0.00    -0.335 N 
ATOM     16  C   UNL     1      -1.242   0.287   3.071  0.00  0.00    +0.129 C 
ATOM     17  C   UNL     1       1.296   0.321   3.047  0.00  0.00    +0.129 C 
ENDBRANCH  11  15
BRANCH   3  18
ATOM     18  C   UNL     1      -0.011   0.083  -2.493  0.00  0.00    +0.134 C 
BRANCH  18  19
ATOM     19  N   UNL     1       1.345   0.560  -2.794  0.00  0.00    -0.314 NA
ATOM     20  C   UNL     1       1.368   1.325  -4.048  0.00  0.00    +0.101 C 
ATOM     21  H   UNL     1       1.714   1.107  -2.031  0.00  0.00    +0.122 HD
ENDBRANCH  18  19
ENDBRANCH   3  18
TORSDOF 3
