REMARK  Name = ZINC59151733
REMARK  12 active torsions:
REMARK  status: ('A' for Active; 'I' for Inactive)
REMARK    1  A    between atoms: C_1  and  C_2
REMARK    2  A    between atoms: C_5  and  S_8
REMARK    3  A    between atoms: S_8  and  O_11
REMARK    4  A    between atoms: O_11  and  C_12
REMARK    5  A    between atoms: C_17  and  C_18
REMARK    6  A    between atoms: N_19  and  N_20
REMARK    7  A    between atoms: C_21  and  C_23
REMARK    8  A    between atoms: C_23  and  C_25
REMARK    9  A    between atoms: C_23  and  N_29
REMARK   10  A    between atoms: C_25  and  C_26
REMARK   11  A    between atoms: C_26  and  C_27
REMARK   12  A    between atoms: C_26  and  C_28
REMARK                            x       y       z     vdW  Elec       q    Type
REMARK                         _______ _______ _______ _____ _____    ______ ____
ROOT
ATOM      1  C   UNL     1       3.363  -6.237   1.927  0.00  0.00    +0.165 A 
ATOM      2  C   UNL     1       4.292  -5.309   2.369  0.00  0.00    +0.049 A 
ATOM      3  C   UNL     1       4.869  -5.447   3.617  0.00  0.00    +0.004 A 
ATOM      4  C   UNL     1       4.526  -6.510   4.434  0.00  0.00    +0.001 A 
ATOM      5  C   UNL     1       3.603  -7.443   4.011  0.00  0.00    +0.013 A 
ATOM      6  C   UNL     1       3.007  -7.312   2.754  0.00  0.00    +0.039 A 
ENDROOT
BRANCH   6   7
ATOM      7  C   UNL     1       2.015  -8.302   2.297  0.00  0.00    +0.142 C 
ATOM      8  N   UNL     1       1.468  -8.180   1.126  0.00  0.00    -0.188 NA
BRANCH   8   9
ATOM      9  N   UNL     1       0.526  -9.121   0.692  0.00  0.00    -0.208 N 
ATOM     10  C   UNL     1      -0.042  -8.994  -0.524  0.00  0.00    +0.218 C 
ATOM     11  O   UNL     1       0.263  -8.065  -1.242  0.00  0.00    -0.276 OA
ATOM     12  H   UNL     1       0.282  -9.863   1.266  0.00  0.00    +0.177 HD
BRANCH  10  13
ATOM     13  C   UNL     1      -1.056 -10.006  -0.991  0.00  0.00    +0.015 C 
BRANCH  13  14
ATOM     14  N   UNL     1      -1.166  -9.950  -2.455  0.00  0.00    +0.386 N 
ATOM     15  H   UNL     1      -1.559  -9.061  -2.728  0.00  0.00    -0.089 HD
ATOM     16  H   UNL     1      -0.250 -10.053  -2.865  0.00  0.00    -0.089 HD
ATOM     17  H   UNL     1      -1.764 -10.696  -2.776  0.00  0.00    -0.089 HD
ENDBRANCH  13  14
BRANCH  13  18
ATOM     18  C   UNL     1      -2.417  -9.691  -0.365  0.00  0.00    -0.004 C 
BRANCH  18  19
ATOM     19  C   UNL     1      -3.414 -10.793  -0.732  0.00  0.00    -0.018 C 
ATOM     20  C   UNL     1      -2.980 -12.109  -0.085  0.00  0.00    +0.007 C 
ATOM     21  C   UNL     1      -4.806 -10.409  -0.225  0.00  0.00    +0.007 C 
ENDBRANCH  18  19
ENDBRANCH  13  18
ENDBRANCH  10  13
ENDBRANCH   8   9
ENDBRANCH   6   7
BRANCH   1  22
ATOM     22  O   UNL     1       2.795  -6.103   0.701  0.00  0.00    -0.342 OA
BRANCH  22  23
ATOM     23  S   UNL     1       1.516  -5.277   0.698  0.00  0.00    +0.151 S 
ATOM     24  O   UNL     1       0.806  -5.624   1.879  0.00  0.00    -0.131 OA
ATOM     25  O   UNL     1       0.950  -5.410  -0.598  0.00  0.00    -0.131 OA
BRANCH  23  30
ATOM     26  C   UNL     1       3.125   0.508   1.290  0.00  0.00    +0.044 C 
ATOM     27  C   UNL     1       2.723  -0.937   1.142  0.00  0.00    -0.050 A 
ATOM     28  C   UNL     1       2.609  -1.498  -0.116  0.00  0.00    +0.005 A 
ATOM     29  C   UNL     1       2.240  -2.823  -0.252  0.00  0.00    +0.031 A 
ATOM     30  C   UNL     1       1.987  -3.588   0.871  0.00  0.00    +0.128 A 
ATOM     31  C   UNL     1       2.102  -3.028   2.130  0.00  0.00    +0.031 A 
ATOM     32  C   UNL     1       2.474  -1.704   2.265  0.00  0.00    +0.005 A 
ENDBRANCH  23  30
ENDBRANCH  22  23
ENDBRANCH   1  22
TORSDOF 9
