REMARK  Name = ZINC01106735
REMARK  3 active torsions:
REMARK  status: ('A' for Active; 'I' for Inactive)
REMARK    1  A    between atoms: C_1  and  C_2
REMARK    2  A    between atoms: C_7  and  N_8
REMARK    3  A    between atoms: C_12  and  C_13
REMARK                            x       y       z     vdW  Elec       q    Type
REMARK                         _______ _______ _______ _____ _____    ______ ____
ROOT
ATOM      1  N   UNL     1       1.090  -2.083  -0.013  0.00  0.00    -0.190 N 
ATOM      2  C   UNL     1       1.341  -2.761   1.125  0.00  0.00    +0.263 C 
ATOM      3  O   UNL     1       1.779  -2.193   2.108  0.00  0.00    -0.269 OA
ATOM      4  C   UNL     1       1.069  -4.209   1.147  0.00  0.00    +0.100 C 
ATOM      5  C   UNL     1       1.302  -4.972   2.284  0.00  0.00    +0.028 C 
ATOM      6  C   UNL     1       0.539  -4.811  -0.088  0.00  0.00    +0.257 C 
ATOM      7  O   UNL     1       0.289  -6.001  -0.146  0.00  0.00    -0.270 OA
ATOM      8  N   UNL     1       0.337  -4.008  -1.153  0.00  0.00    -0.235 N 
ATOM      9  C   UNL     1       0.602  -2.695  -1.101  0.00  0.00    +0.320 C 
ATOM     10  O   UNL     1       0.393  -2.026  -2.094  0.00  0.00    -0.251 OA
ATOM     11  H   UNL     1      -0.012  -4.389  -1.974  0.00  0.00    +0.159 HD
ENDROOT
BRANCH   5  12
ATOM     12  C   UNL     1       1.217  -6.378   2.218  0.00  0.00    +0.001 A 
ATOM     13  C   UNL     1       1.751  -7.199   1.240  0.00  0.00    +0.091 A 
ATOM     14  N   UNL     1       1.462  -8.482   1.522  0.00  0.00    -0.360 N 
ATOM     15  H   UNL     1       1.731  -9.240   0.979  0.00  0.00    +0.165 HD
ATOM     16  C   UNL     1       0.729  -8.574   2.689  0.00  0.00    +0.047 A 
ATOM     17  C   UNL     1       0.545  -7.273   3.182  0.00  0.00    +0.007 A 
ATOM     18  C   UNL     1      -0.171  -7.065   4.356  0.00  0.00    +0.010 A 
ATOM     19  C   UNL     1      -0.691  -8.144   5.039  0.00  0.00    +0.001 A 
ATOM     20  C   UNL     1      -0.506  -9.431   4.557  0.00  0.00    +0.002 A 
ATOM     21  C   UNL     1       0.197  -9.650   3.392  0.00  0.00    +0.026 A 
ENDBRANCH   5  12
BRANCH   1  28
ATOM     22  C   UNL     1      -1.008  -0.308   0.728  0.00  0.00    +0.046 C 
ATOM     23  C   UNL     1       0.345   0.196   0.295  0.00  0.00    -0.028 A 
ATOM     24  C   UNL     1       0.594   1.553   0.249  0.00  0.00    +0.020 A 
ATOM     25  C   UNL     1       1.836   2.017  -0.148  0.00  0.00    +0.018 A 
ATOM     26  C   UNL     1       2.831   1.122  -0.501  0.00  0.00    +0.017 A 
ATOM     27  C   UNL     1       2.586  -0.237  -0.457  0.00  0.00    +0.025 A 
ATOM     28  C   UNL     1       1.341  -0.704  -0.058  0.00  0.00    +0.049 A 
ATOM     29 BR   UNL     1       2.174   3.876  -0.209  0.00  0.00    -0.050 Br
ENDBRANCH   1  28
TORSDOF 2
