REMARK  Name = ZINC51088753
REMARK  4 active torsions:
REMARK  status: ('A' for Active; 'I' for Inactive)
REMARK    1  A    between atoms: C_3  and  N_20
REMARK    2  A    between atoms: C_6  and  C_7
REMARK    3  A    between atoms: N_9  and  C_10
REMARK    4  A    between atoms: N_20  and  N_21
REMARK                            x       y       z     vdW  Elec       q    Type
REMARK                         _______ _______ _______ _____ _____    ______ ____
ROOT
ATOM      1  C   UNL     1      -1.267  -0.763   0.011  0.00  0.00    +0.265 C 
ATOM      2  O   UNL     1      -2.329  -0.171   0.024  0.00  0.00    -0.268 OA
ATOM      3  N   UNL     1      -1.246  -2.110   0.003  0.00  0.00    -0.304 N 
ATOM      4  H   UNL     1      -0.399  -2.583  -0.008  0.00  0.00    +0.150 HD
ENDROOT
BRANCH   3   5
ATOM      5  C   UNL     1      -2.504  -2.862   0.012  0.00  0.00    +0.036 C 
ATOM      6  C   UNL     1      -3.324  -2.498  -1.228  0.00  0.00    +0.029 C 
ATOM      7  C   UNL     1      -4.637  -3.283  -1.219  0.00  0.00    -0.008 C 
ATOM      8  C   UNL     1      -4.335  -4.783  -1.230  0.00  0.00    +0.007 C 
ATOM      9  C   UNL     1      -3.514  -5.147   0.009  0.00  0.00    -0.008 C 
ATOM     10  C   UNL     1      -2.201  -4.362   0.001  0.00  0.00    +0.029 C 
ATOM     11  C   UNL     1      -4.310  -4.796   1.268  0.00  0.00    +0.007 C 
ATOM     12  C   UNL     1      -4.612  -3.297   1.280  0.00  0.00    -0.008 C 
ATOM     13  C   UNL     1      -5.433  -2.933   0.040  0.00  0.00    +0.007 C 
ATOM     14  C   UNL     1      -3.299  -2.512   1.271  0.00  0.00    +0.029 C 
ENDBRANCH   3   5
BRANCH   1  20
ATOM     15  C   UNL     1      -0.017   1.396   0.010  0.00  0.00    +0.038 A 
ATOM     16  C   UNL     1       1.196   2.062   0.002  0.00  0.00    +0.049 A 
ATOM     17  C   UNL     1       2.363   1.298  -0.013  0.00  0.00    +0.155 A 
ATOM     18  N   UNL     1       2.287  -0.029  -0.020  0.00  0.00    -0.132 NA
ATOM     19  N   UNL     1       1.163  -0.648  -0.013  0.00  0.00    -0.143 NA
ATOM     20  C   UNL     1       0.002  -0.004   0.002  0.00  0.00    +0.148 A 
BRANCH  17  21
ATOM     21  N   UNL     1       3.600   1.922  -0.022  0.00  0.00    -0.266 N 
ATOM     22  H   UNL     1       3.655   2.890  -0.018  0.00  0.00    +0.167 HD
BRANCH  21  23
ATOM     23  N   UNL     1       4.742   1.173  -0.037  0.00  0.00    -0.255 NA
ATOM     24  H   UNL     1       5.561   1.763  -0.042  0.00  0.00    +0.140 HD
ATOM     25  H   UNL     1       4.764   0.531   0.741  0.00  0.00    +0.140 HD
ENDBRANCH  21  23
ENDBRANCH  17  21
ENDBRANCH   1  20
TORSDOF 4
