REMARK  Name = ZINC20465483
REMARK  10 active torsions:
REMARK  status: ('A' for Active; 'I' for Inactive)
REMARK    1  A    between atoms: C_3  and  C_8
REMARK    2  A    between atoms: C_8  and  N_9
REMARK    3  A    between atoms: N_9  and  C_10
REMARK    4  A    between atoms: C_10  and  C_11
REMARK    5  A    between atoms: C_13  and  N_23
REMARK    6  A    between atoms: C_15  and  O_22
REMARK    7  A    between atoms: C_17  and  C_20
REMARK    8  A    between atoms: C_20  and  O_21
REMARK    9  A    between atoms: N_26  and  C_29
REMARK   10  A    between atoms: C_33  and  C_35
REMARK                            x       y       z     vdW  Elec       q    Type
REMARK                         _______ _______ _______ _____ _____    ______ ____
ROOT
ATOM      1  C   UNL     1      -1.586  -1.488  -1.323  0.00  0.00    +0.122 C 
ATOM      2  C   UNL     1      -1.389  -0.453  -0.193  0.00  0.00    +0.115 C 
ATOM      3  C   UNL     1       0.068   0.028  -0.374  0.00  0.00    +0.165 C 
ATOM      4  C   UNL     1       0.579  -0.774  -1.592  0.00  0.00    +0.174 C 
ATOM      5  O   UNL     1      -0.613  -1.128  -2.327  0.00  0.00    -0.369 OA
ENDROOT
BRANCH   2   6
ATOM      6  N   UNL     1      -2.325   0.668  -0.353  0.00  0.00    -0.292 NA
ATOM      7  C   UNL     1      -2.130   1.335  -1.648  0.00  0.00    +0.104 C 
ATOM      8  C   UNL     1      -3.174   2.444  -1.809  0.00  0.00    +0.120 C 
ATOM      9  N   UNL     1      -3.043   3.401  -0.701  0.00  0.00    -0.327 N 
ATOM     10  C   UNL     1      -3.238   2.733   0.593  0.00  0.00    +0.120 C 
ATOM     11  C   UNL     1      -2.195   1.625   0.755  0.00  0.00    +0.104 C 
BRANCH   9  12
ATOM     12  C   UNL     1      -3.933   4.466  -0.854  0.00  0.00    +0.030 A 
ATOM     13  C   UNL     1      -4.845   4.761   0.152  0.00  0.00    +0.023 A 
ATOM     14  C   UNL     1      -5.720   5.819   0.000  0.00  0.00    +0.002 A 
ATOM     15  C   UNL     1      -5.696   6.577  -1.156  0.00  0.00    +0.012 A 
ATOM     16  C   UNL     1      -4.793   6.284  -2.161  0.00  0.00    +0.057 A 
ATOM     17  C   UNL     1      -3.912   5.231  -2.013  0.00  0.00    +0.035 A 
BRANCH  16  18
ATOM     18  C   UNL     1      -4.771   7.113  -3.419  0.00  0.00    +0.417 C 
ATOM     19  F   UNL     1      -5.644   6.557  -4.360  0.00  0.00    -0.166 F 
ATOM     20  F   UNL     1      -5.176   8.419  -3.123  0.00  0.00    -0.166 F 
ATOM     21  F   UNL     1      -3.473   7.134  -3.941  0.00  0.00    -0.166 F 
ENDBRANCH  16  18
ENDBRANCH   9  12
ENDBRANCH   2   6
BRANCH   3  22
ATOM     22  O   UNL     1       0.102   1.430  -0.647  0.00  0.00    -0.388 OA
ATOM     23  H   UNL     1       1.066   1.936  -0.803  0.00  0.00    +0.210 HD
ENDBRANCH   3  22
BRANCH   1  24
ATOM     24  C   UNL     1      -3.002  -1.390  -1.894  0.00  0.00    -0.049 C 
BRANCH  24  25
ATOM     25  N   UNL     1      -3.100  -2.215  -3.106  0.00  0.00    +0.383 N 
ATOM     26  H   UNL     1      -2.867  -3.258  -2.842  0.00  0.00    -0.085 HD
ATOM     27  H   UNL     1      -2.367  -1.851  -3.841  0.00  0.00    -0.085 HD
BRANCH  25  28
ATOM     28  C   UNL     1      -4.449  -2.145  -3.683  0.00  0.00    -0.047 C 
BRANCH  28  31
ATOM     29  C   UNL     1      -4.929  -5.120  -5.958  0.00  0.00    +0.002 A 
ATOM     30  C   UNL     1      -4.872  -4.333  -4.823  0.00  0.00    +0.002 A 
ATOM     31  C   UNL     1      -4.510  -3.003  -4.921  0.00  0.00    -0.063 A 
ATOM     32  C   UNL     1      -4.210  -2.457  -6.155  0.00  0.00    +0.021 A 
ATOM     33  C   UNL     1      -4.262  -3.245  -7.291  0.00  0.00    +0.041 A 
ATOM     34  C   UNL     1      -4.625  -4.577  -7.192  0.00  0.00    +0.020 A 
ATOM     35 CL   UNL     1      -3.880  -2.562  -8.840  0.00  0.00    -0.084 Cl
ENDBRANCH  28  31
ENDBRANCH  25  28
ENDBRANCH  24  25
ENDBRANCH   1  24
BRANCH   4  36
ATOM     36  C   UNL     1       1.500   0.094  -2.452  0.00  0.00    +0.190 C 
BRANCH  36  37
ATOM     37  O   UNL     1       2.053  -0.697  -3.506  0.00  0.00    -0.392 OA
ATOM     38  H   UNL     1       2.744  -0.242  -4.231  0.00  0.00    +0.210 HD
ENDBRANCH  36  37
ENDBRANCH   4  36
TORSDOF 10
