REMARK  Name = ZINC46384846
REMARK  5 active torsions:
REMARK  status: ('A' for Active; 'I' for Inactive)
REMARK    1  A    between atoms: C_1  and  O_2
REMARK    2  A    between atoms: O_2  and  C_3
REMARK    3  A    between atoms: C_3  and  C_5
REMARK    4  A    between atoms: C_9  and  S_11
REMARK    5  A    between atoms: S_11  and  N_14
REMARK                            x       y       z     vdW  Elec       q    Type
REMARK                         _______ _______ _______ _____ _____    ______ ____
ROOT
ATOM      1  C   UNL     1       0.680  -2.087   1.091  0.00  0.00    +0.061 A 
ATOM      2  C   UNL     1       0.101  -2.853   0.076  0.00  0.00    +0.016 A 
ATOM      3  C   UNL     1       0.160  -4.229   0.137  0.00  0.00    +0.018 A 
ATOM      4  C   UNL     1       0.792  -4.853   1.200  0.00  0.00    +0.044 A 
ATOM      5  C   UNL     1       1.367  -4.099   2.209  0.00  0.00    +0.120 A 
ATOM      6  C   UNL     1       1.320  -2.722   2.158  0.00  0.00    +0.044 A 
ATOM      7 BR   UNL     1       0.868  -6.741   1.274  0.00  0.00    -0.048 Br
ENDROOT
BRANCH   5   8
ATOM      8  S   UNL     1       2.168  -4.901   3.558  0.00  0.00    +0.057 S 
ATOM      9  O   UNL     1       3.043  -5.869   2.994  0.00  0.00    -0.153 OA
ATOM     10  O   UNL     1       2.626  -3.875   4.427  0.00  0.00    -0.153 OA
BRANCH   8  11
ATOM     11  N   UNL     1       1.006  -5.741   4.388  0.00  0.00    -0.203 NA
ATOM     12  H   UNL     1       0.084  -5.718   4.088  0.00  0.00    +0.144 HD
ATOM     13  H   UNL     1       1.248  -6.255   5.174  0.00  0.00    +0.144 HD
ENDBRANCH   8  11
ENDBRANCH   5   8
BRANCH   1  14
ATOM     14  C   UNL     1       0.620  -0.613   1.032  0.00  0.00    +0.339 C 
ATOM     15  O   UNL     1       1.129   0.051   1.913  0.00  0.00    -0.245 OA
BRANCH  14  17
ATOM     16  C   UNL     1      -0.017   1.425   0.010  0.00  0.00    +0.280 C 
ATOM     17  O   UNL     1       0.002  -0.004   0.002  0.00  0.00    -0.464 OA
ENDBRANCH  14  17
ENDBRANCH   1  14
TORSDOF 4
