REMARK  Name = ZINC14755207
REMARK  8 active torsions:
REMARK  status: ('A' for Active; 'I' for Inactive)
REMARK    1  A    between atoms: C_1  and  C_2
REMARK    2  A    between atoms: C_2  and  C_3
REMARK    3  A    between atoms: C_2  and  N_55
REMARK    4  A    between atoms: C_4  and  N_55
REMARK    5  A    between atoms: C_10  and  C_20
REMARK    6  A    between atoms: N_12  and  C_13
REMARK    7  A    between atoms: C_13  and  C_14
REMARK    8  A    between atoms: N_22  and  C_23
REMARK                            x       y       z     vdW  Elec       q    Type
REMARK                         _______ _______ _______ _____ _____    ______ ____
ROOT
ATOM      1  C   UNL     1       1.530   2.015   0.001  0.00  0.00    -0.067 C 
ATOM      2  C   UNL     1       2.444   1.365  -1.042  0.00  0.00    -0.009 C 
ATOM      3  C   UNL     1       2.734  -0.087  -0.640  0.00  0.00    +0.054 C 
ATOM      4  C   UNL     1       1.423  -0.763  -0.330  0.00  0.00    +0.043 A 
ATOM      5  C   UNL     1       0.267  -0.097  -0.091  0.00  0.00    +0.004 A 
ATOM      6  C   UNL     1      -0.705  -1.084   0.146  0.00  0.00    +0.150 A 
ATOM      7  N   UNL     1      -0.093  -2.251   0.040  0.00  0.00    -0.166 NA
ATOM      8  N   UNL     1       1.153  -2.076  -0.237  0.00  0.00    -0.267 N 
ATOM      9  C   UNL     1       0.127   1.400  -0.094  0.00  0.00    +0.023 C 
ENDROOT
BRANCH   6  10
ATOM     10  C   UNL     1      -2.132  -0.861   0.452  0.00  0.00    +0.264 C 
ATOM     11  O   UNL     1      -2.570   0.272   0.520  0.00  0.00    -0.268 OA
ATOM     12  N   UNL     1      -2.950  -1.912   0.657  0.00  0.00    -0.313 N 
ATOM     13  C   UNL     1      -4.366  -1.691   0.961  0.00  0.00    +0.128 C 
ATOM     14  H   UNL     1      -2.601  -2.816   0.603  0.00  0.00    +0.149 HD
ENDBRANCH   6  10
BRANCH   1  15
ATOM     15  N   UNL     1       1.450   3.464  -0.261  0.00  0.00    +0.383 N 
ATOM     16  H   UNL     1       2.349   3.791  -0.635  0.00  0.00    -0.085 HD
ATOM     17  H   UNL     1       0.708   3.644  -0.948  0.00  0.00    -0.085 HD
BRANCH  15  19
ATOM     18  C   UNL     1       2.450   4.492   1.731  0.00  0.00    -0.014 C 
ATOM     19  C   UNL     1       1.148   4.194   0.984  0.00  0.00    -0.078 C 
ATOM     20  C   UNL     1       0.446   5.509   0.638  0.00  0.00    -0.014 C 
ENDBRANCH  15  19
ENDBRANCH   1  15
BRANCH   8  21
ATOM     21  C   UNL     1       2.131  -3.150  -0.424  0.00  0.00    +0.147 C 
BRANCH  21  22
ATOM     22  C   UNL     1       2.780  -3.488   0.920  0.00  0.00    +0.010 C 
ATOM     23  C   UNL     1       3.588  -2.286   1.412  0.00  0.00    +0.005 C 
ATOM     24  C   UNL     1       4.238  -2.623   2.756  0.00  0.00    +0.000 C 
ATOM     25  C   UNL     1       5.167  -3.827   2.585  0.00  0.00    +0.000 C 
ATOM     26  C   UNL     1       4.359  -5.029   2.093  0.00  0.00    +0.000 C 
ATOM     27  C   UNL     1       3.709  -4.691   0.749  0.00  0.00    +0.005 C 
ENDBRANCH  21  22
ENDBRANCH   8  21
TORSDOF 5
