REMARK  Name = ZINC35491235
REMARK  13 active torsions:
REMARK  status: ('A' for Active; 'I' for Inactive)
REMARK    1  A    between atoms: C_1  and  C_2
REMARK    2  A    between atoms: C_2  and  C_3
REMARK    3  A    between atoms: C_3  and  C_5
REMARK    4  A    between atoms: C_3  and  C_6
REMARK    5  A    between atoms: C_6  and  C_8
REMARK    6  A    between atoms: C_6  and  N_22
REMARK    7  A    between atoms: C_10  and  C_13
REMARK    8  A    between atoms: C_23  and  C_25
REMARK    9  A    between atoms: C_25  and  C_26
REMARK   10  A    between atoms: C_26  and  C_27
REMARK   11  A    between atoms: C_27  and  C_28
REMARK   12  A    between atoms: C_28  and  C_29
REMARK   13  A    between atoms: C_29  and  N_30
REMARK                            x       y       z     vdW  Elec       q    Type
REMARK                         _______ _______ _______ _____ _____    ______ ____
ROOT
ATOM      1  C   UNL     1       2.154   0.141   1.263  0.00  0.00    +0.164 C 
ENDROOT
BRANCH   1   2
ATOM      2  C   UNL     1       2.124   1.647   1.266  0.00  0.00    +0.248 A 
ATOM      3  N   UNL     1       2.444   2.417   0.266  0.00  0.00    -0.190 NA
ATOM      4  C   UNL     1       2.303   3.709   0.615  0.00  0.00    +0.202 A 
ATOM      5  N   UNL     1       1.887   3.764   1.856  0.00  0.00    -0.056 NA
ATOM      6  O   UNL     1       1.759   2.421   2.297  0.00  0.00    -0.336 OA
BRANCH   4   7
ATOM      7  C   UNL     1       2.573   4.876  -0.260  0.00  0.00    +0.026 A 
ATOM      8  C   UNL     1       3.009   4.681  -1.570  0.00  0.00    +0.015 A 
ATOM      9  C   UNL     1       3.260   5.767  -2.382  0.00  0.00    +0.050 A 
ATOM     10  C   UNL     1       3.080   7.056  -1.900  0.00  0.00    +0.166 A 
ATOM     11  C   UNL     1       2.645   7.256  -0.591  0.00  0.00    +0.167 A 
ATOM     12  C   UNL     1       2.387   6.170   0.225  0.00  0.00    +0.061 A 
ATOM     13  O   UNL     1       2.550   8.599  -0.364  0.00  0.00    -0.453 OA
ATOM     14  C   UNL     1       3.320   9.221  -1.410  0.00  0.00    +0.466 C 
ATOM     15  O   UNL     1       3.257   8.273  -2.492  0.00  0.00    -0.453 OA
ENDBRANCH   4   7
ENDBRANCH   1   2
BRANCH   1  16
ATOM     16  N   UNL     1       2.797  -0.338   2.489  0.00  0.00    -0.304 N 
ATOM     17  C   UNL     1       3.389  -1.548   2.511  0.00  0.00    +0.214 C 
ATOM     18  O   UNL     1       3.390  -2.241   1.516  0.00  0.00    -0.276 OA
ATOM     19  H   UNL     1       2.797   0.216   3.285  0.00  0.00    +0.149 HD
BRANCH  17  20
ATOM     20  C   UNL     1       4.051  -2.041   3.773  0.00  0.00    +0.096 C 
BRANCH  20  21
ATOM     21  C   UNL     1       4.641  -3.431   3.530  0.00  0.00    +0.009 C 
BRANCH  21  22
ATOM     22  C   UNL     1       5.312  -3.931   4.811  0.00  0.00    -0.001 C 
BRANCH  22  23
ATOM     23  C   UNL     1       5.902  -5.322   4.568  0.00  0.00    -0.020 C 
BRANCH  23  24
ATOM     24  C   UNL     1       6.574  -5.822   5.848  0.00  0.00    -0.086 C 
BRANCH  24  25
ATOM     25  N   UNL     1       7.140  -7.157   5.615  0.00  0.00    +0.378 N 
ATOM     26  H   UNL     1       7.583  -7.486   6.460  0.00  0.00    -0.090 HD
ATOM     27  H   UNL     1       6.403  -7.793   5.351  0.00  0.00    -0.090 HD
ATOM     28  H   UNL     1       7.823  -7.107   4.875  0.00  0.00    -0.090 HD
ENDBRANCH  24  25
ENDBRANCH  23  24
ENDBRANCH  22  23
ENDBRANCH  21  22
ENDBRANCH  20  21
ENDBRANCH  17  20
ENDBRANCH   1  16
BRANCH   1  29
ATOM     29  C   UNL     1       0.724  -0.398   1.193  0.00  0.00    +0.015 C 
ATOM     30  C   UNL     1       0.756  -1.926   1.140  0.00  0.00    +0.010 C 
BRANCH  29  32
ATOM     31  C   UNL     1      -1.434  -0.280  -0.060  0.00  0.00    +0.004 C 
ATOM     32  C   UNL     1       0.037   0.142  -0.063  0.00  0.00    +0.002 C 
ENDBRANCH  29  32
ENDBRANCH   1  29
TORSDOF 11
