REMARK  Name = ZINC63768780
REMARK  10 active torsions:
REMARK  status: ('A' for Active; 'I' for Inactive)
REMARK    1  A    between atoms: C_1  and  C_2
REMARK    2  A    between atoms: C_2  and  C_3
REMARK    3  A    between atoms: C_3  and  C_4
REMARK    4  A    between atoms: C_3  and  N_16
REMARK    5  A    between atoms: C_4  and  N_5
REMARK    6  A    between atoms: C_6  and  C_8
REMARK    7  A    between atoms: C_8  and  C_9
REMARK    8  A    between atoms: C_8  and  C_10
REMARK    9  A    between atoms: C_8  and  N_11
REMARK   10  A    between atoms: N_14  and  C_15
REMARK                            x       y       z     vdW  Elec       q    Type
REMARK                         _______ _______ _______ _____ _____    ______ ____
ROOT
ATOM      1  C   UNL     1       0.646  -2.044  -1.254  0.00  0.00    +0.089 C 
ENDROOT
BRANCH   1   2
ATOM      2  N   UNL     1       1.227  -2.582  -2.487  0.00  0.00    -0.315 N 
ATOM      3  C   UNL     1       1.268  -3.914  -2.688  0.00  0.00    +0.236 C 
ATOM      4  O   UNL     1       0.825  -4.668  -1.848  0.00  0.00    -0.273 OA
ATOM      5  H   UNL     1       1.581  -1.979  -3.159  0.00  0.00    +0.149 HD
BRANCH   3   6
ATOM      6  C   UNL     1       1.865  -4.466  -3.957  0.00  0.00    +0.106 C 
ATOM      7  C   UNL     1       3.381  -4.592  -3.795  0.00  0.00    +0.041 C 
ATOM      8  C   UNL     1       1.267  -5.845  -4.244  0.00  0.00    +0.041 C 
BRANCH   6   9
ATOM      9  N   UNL     1       1.566  -3.563  -5.071  0.00  0.00    -0.286 N 
ATOM     10  C   UNL     1       2.003  -3.856  -6.312  0.00  0.00    +0.300 C 
ATOM     11  O   UNL     1       2.646  -4.870  -6.506  0.00  0.00    -0.253 OA
ATOM     12  N   UNL     1       1.729  -3.025  -7.337  0.00  0.00    -0.302 N 
ATOM     13  C   UNL     1       2.204  -3.344  -8.685  0.00  0.00    +0.129 C 
ATOM     14  H   UNL     1       1.054  -2.755  -4.916  0.00  0.00    +0.151 HD
ATOM     15  H   UNL     1       1.216  -2.217  -7.181  0.00  0.00    +0.150 HD
ENDBRANCH   6   9
ENDBRANCH   3   6
ENDBRANCH   1   2
BRANCH   1  16
ATOM     16  C   UNL     1       0.588  -0.518  -1.341  0.00  0.00    -0.051 C 
BRANCH  16  17
ATOM     17  N   UNL     1      -0.498  -0.120  -2.247  0.00  0.00    +0.385 N 
ATOM     18  C   UNL     1      -1.751  -0.768  -1.827  0.00  0.00    -0.073 C 
ATOM     19  C   UNL     1      -2.912  -0.114  -2.577  0.00  0.00    +0.017 C 
ATOM     20  C   UNL     1      -2.616  -0.088  -4.054  0.00  0.00    -0.048 A 
ATOM     21  C   UNL     1      -3.660   0.139  -4.938  0.00  0.00    +0.004 A 
ATOM     22  C   UNL     1      -3.426   0.173  -6.298  0.00  0.00    +0.000 A 
ATOM     23  C   UNL     1      -2.145  -0.021  -6.781  0.00  0.00    +0.000 A 
ATOM     24  C   UNL     1      -1.106  -0.248  -5.902  0.00  0.00    +0.002 A 
ATOM     25  C   UNL     1      -1.339  -0.284  -4.535  0.00  0.00    -0.061 A 
ATOM     26  C   UNL     1      -0.177  -0.543  -3.613  0.00  0.00    -0.042 C 
ATOM     27  H   UNL     1      -0.610   0.882  -2.221  0.00  0.00    -0.081 HD
ENDBRANCH  16  17
BRANCH  16  29
ATOM     28  C   UNL     1       0.348   1.591  -0.022  0.00  0.00    +0.002 C 
ATOM     29  C   UNL     1       0.329   0.062   0.051  0.00  0.00    -0.017 C 
ENDBRANCH  16  29
ENDBRANCH   1  16
TORSDOF 6
