REMARK  Name = ZINC49442758
REMARK  11 active torsions:
REMARK  status: ('A' for Active; 'I' for Inactive)
REMARK    1  A    between atoms: C_1  and  C_2
REMARK    2  A    between atoms: C_2  and  C_3
REMARK    3  A    between atoms: C_2  and  C_4
REMARK    4  A    between atoms: C_4  and  N_5
REMARK    5  A    between atoms: N_5  and  C_6
REMARK    6  A    between atoms: N_5  and  C_7
REMARK    7  A    between atoms: C_7  and  C_8
REMARK    8  A    between atoms: C_8  and  C_10
REMARK    9  A    between atoms: C_11  and  N_20
REMARK   10  A    between atoms: N_12  and  C_19
REMARK   11  A    between atoms: N_15  and  C_18
REMARK                            x       y       z     vdW  Elec       q    Type
REMARK                         _______ _______ _______ _____ _____    ______ ____
ROOT
ATOM      1  C   UNL     1      -3.956  -4.753   0.111  0.00  0.00    +0.118 A 
ATOM      2  C   UNL     1      -3.964  -6.155   0.009  0.00  0.00    +0.116 A 
ATOM      3  N   UNL     1      -5.151  -6.819   0.134  0.00  0.00    -0.284 N 
ATOM      4  C   UNL     1      -6.300  -6.161   0.351  0.00  0.00    +0.333 A 
ATOM      5  O   UNL     1      -7.330  -6.798   0.455  0.00  0.00    -0.246 OA
ATOM      6  N   UNL     1      -6.354  -4.823   0.457  0.00  0.00    -0.263 N 
ATOM      7  C   UNL     1      -5.236  -4.075   0.354  0.00  0.00    +0.269 A 
ATOM      8  O   UNL     1      -5.287  -2.863   0.456  0.00  0.00    -0.267 OA
ATOM      9  C   UNL     1      -7.643  -4.168   0.694  0.00  0.00    +0.157 C 
ATOM     10  C   UNL     1      -5.170  -8.281   0.029  0.00  0.00    +0.155 C 
ENDROOT
BRANCH   2  11
ATOM     11  N   UNL     1      -2.809  -6.839  -0.211  0.00  0.00    -0.344 N 
ATOM     12  H   UNL     1      -1.961  -6.368  -0.222  0.00  0.00    +0.144 HD
ATOM     13  H   UNL     1      -2.833  -7.798  -0.358  0.00  0.00    +0.144 HD
ENDBRANCH   2  11
BRANCH   1  14
ATOM     14  C   UNL     1      -2.756  -4.021  -0.011  0.00  0.00    +0.155 C 
ATOM     15  O   UNL     1      -1.694  -4.605  -0.101  0.00  0.00    -0.294 OA
BRANCH  14  16
ATOM     16  C   UNL     1      -2.790  -2.515  -0.029  0.00  0.00    +0.002 C 
BRANCH  16  17
ATOM     17  N   UNL     1      -1.423  -1.995  -0.164  0.00  0.00    +0.383 N 
ATOM     18  C   UNL     1      -0.876  -2.387  -1.469  0.00  0.00    -0.096 C 
ATOM     19  H   UNL     1      -0.845  -2.375   0.571  0.00  0.00    -0.082 HD
BRANCH  17  20
ATOM     20  C   UNL     1      -1.444  -0.530  -0.061  0.00  0.00    -0.076 C 
BRANCH  20  22
ATOM     21  C   UNL     1      -0.034   1.533  -0.096  0.00  0.00    +0.005 C 
ATOM     22  C   UNL     1      -0.009   0.003  -0.076  0.00  0.00    -0.034 C 
ATOM     23  C   UNL     1       0.727  -0.480   1.175  0.00  0.00    +0.005 C 
ENDBRANCH  20  22
ENDBRANCH  17  20
ENDBRANCH  16  17
ENDBRANCH  14  16
ENDBRANCH   1  14
TORSDOF 6
