REMARK  Name = ZINC28048692
REMARK  10 active torsions:
REMARK  status: ('A' for Active; 'I' for Inactive)
REMARK    1  A    between atoms: C_1  and  C_2
REMARK    2  A    between atoms: C_2  and  N_3
REMARK    3  A    between atoms: C_12  and  O_13
REMARK    4  A    between atoms: C_14  and  N_15
REMARK    5  A    between atoms: N_18  and  C_19
REMARK    6  A    between atoms: C_19  and  C_20
REMARK    7  A    between atoms: C_23  and  C_26
REMARK    8  A    between atoms: C_26  and  O_28
REMARK    9  A    between atoms: O_28  and  C_29
REMARK   10  A    between atoms: C_29  and  C_30
REMARK                            x       y       z     vdW  Elec       q    Type
REMARK                         _______ _______ _______ _____ _____    ______ ____
ROOT
ATOM      1  N   UNL     1      -2.886   0.300  -1.200  0.00  0.00    -0.262 N 
ATOM      2  C   UNL     1      -1.546   0.438  -1.208  0.00  0.00    +0.304 C 
ATOM      3  O   UNL     1      -1.038   1.466  -0.803  0.00  0.00    -0.253 OA
ATOM      4  N   UNL     1      -0.768  -0.563  -1.667  0.00  0.00    -0.299 N 
ATOM      5  H   UNL     1      -3.353  -0.573  -1.681  0.00  0.00    +0.157 HD
ATOM      6  H   UNL     1      -1.228  -1.494  -2.029  0.00  0.00    +0.150 HD
ENDROOT
BRANCH   1  17
ATOM      7  N   UNL     1      -4.667  -0.403   0.852  0.00  0.00    -0.383 N 
ATOM      8  C   UNL     1      -4.563   0.910   0.436  0.00  0.00    +0.075 A 
ATOM      9  C   UNL     1      -5.378   1.970   1.052  0.00  0.00    +0.042 A 
ATOM     10  C   UNL     1      -6.280   1.678   2.077  0.00  0.00    +0.013 A 
ATOM     11  C   UNL     1      -7.029   2.691   2.633  0.00  0.00    +0.001 A 
ATOM     12  C   UNL     1      -6.889   3.995   2.180  0.00  0.00    +0.004 A 
ATOM     13  C   UNL     1      -6.000   4.296   1.170  0.00  0.00    +0.047 A 
ATOM     14  C   UNL     1      -5.236   3.289   0.594  0.00  0.00    +0.141 A 
ATOM     15  O   UNL     1      -4.363   3.570  -0.398  0.00  0.00    -0.424 OA
ATOM     16  C   UNL     1      -3.607   2.619  -0.968  0.00  0.00    +0.309 A 
ATOM     17  C   UNL     1      -3.689   1.272  -0.575  0.00  0.00    +0.140 A 
ATOM     18  H   UNL     1      -5.325  -1.101   0.312  0.00  0.00    +0.160 HD
BRANCH   7  20
ATOM     19  C   UNL     1      -3.900  -2.131   2.409  0.00  0.00    +0.026 C 
ATOM     20  C   UNL     1      -3.820  -0.652   2.026  0.00  0.00    +0.109 C 
ENDBRANCH   7  20
BRANCH  16  21
ATOM     21  O   UNL     1      -2.832   2.932  -1.856  0.00  0.00    -0.479 OA
ATOM     22  H   UNL     1      -2.204   2.165  -2.333  0.00  0.00    +0.295 HD
ENDBRANCH  16  21
ENDBRANCH   1  17
BRANCH   4  23
ATOM     23  C   UNL     1       0.689  -0.410  -1.682  0.00  0.00    +0.109 C 
BRANCH  23  24
ATOM     24  C   UNL     1       1.328  -1.678  -2.252  0.00  0.00    +0.006 C 
ATOM     25  C   UNL     1       1.054  -2.854  -1.312  0.00  0.00    +0.006 C 
ATOM     26  C   UNL     1       1.694  -4.122  -1.881  0.00  0.00    +0.015 C 
ATOM     27  C   UNL     1       3.204  -3.916  -2.014  0.00  0.00    +0.098 C 
ATOM     28  C   UNL     1       3.478  -2.740  -2.954  0.00  0.00    +0.015 C 
ATOM     29  C   UNL     1       2.839  -1.472  -2.384  0.00  0.00    +0.006 C 
BRANCH  27  30
ATOM     30  C   UNL     1       3.834  -5.165  -2.574  0.00  0.00    +0.310 C 
ATOM     31  O   UNL     1       4.440  -5.119  -3.619  0.00  0.00    -0.251 OA
BRANCH  30  32
ATOM     32  O   UNL     1       3.722  -6.328  -1.914  0.00  0.00    -0.465 OA
BRANCH  32  33
ATOM     33  C   UNL     1       4.354  -7.490  -2.513  0.00  0.00    +0.229 C 
ATOM     34  C   UNL     1       4.121  -8.713  -1.623  0.00  0.00    +0.048 C 
ENDBRANCH  32  33
ENDBRANCH  30  32
ENDBRANCH  27  30
ENDBRANCH  23  24
ENDBRANCH   4  23
TORSDOF 8
