REMARK  Name = ZINC58174756
REMARK  12 active torsions:
REMARK  status: ('A' for Active; 'I' for Inactive)
REMARK    1  A    between atoms: C_1  and  C_2
REMARK    2  A    between atoms: C_2  and  C_3
REMARK    3  A    between atoms: C_3  and  C_4
REMARK    4  A    between atoms: C_4  and  N_5
REMARK    5  A    between atoms: C_10  and  C_12
REMARK    6  A    between atoms: C_12  and  N_13
REMARK    7  A    between atoms: C_14  and  C_16
REMARK    8  A    between atoms: C_18  and  O_28
REMARK    9  A    between atoms: C_19  and  O_23
REMARK   10  A    between atoms: O_23  and  C_24
REMARK   11  A    between atoms: C_24  and  C_25
REMARK   12  A    between atoms: O_28  and  C_29
REMARK                            x       y       z     vdW  Elec       q    Type
REMARK                         _______ _______ _______ _____ _____    ______ ____
ROOT
ATOM      1  N   UNL     1      -0.448  -3.886  -1.189  0.00  0.00    -0.313 N 
ATOM      2  C   UNL     1       0.460  -4.008  -2.177  0.00  0.00    +0.244 C 
ATOM      3  O   UNL     1       0.147  -4.529  -3.230  0.00  0.00    -0.270 OA
ATOM      4  H   UNL     1      -0.199  -3.470  -0.349  0.00  0.00    +0.149 HD
ENDROOT
BRANCH   2   5
ATOM      5  C   UNL     1       1.836  -3.509  -1.981  0.00  0.00    +0.042 A 
ATOM      6  C   UNL     1       2.777  -3.629  -3.006  0.00  0.00    +0.062 A 
ATOM      7  C   UNL     1       4.063  -3.161  -2.818  0.00  0.00    +0.164 A 
ATOM      8  C   UNL     1       4.420  -2.570  -1.607  0.00  0.00    +0.181 A 
ATOM      9  C   UNL     1       3.484  -2.450  -0.587  0.00  0.00    +0.087 A 
ATOM     10  C   UNL     1       2.197  -2.910  -0.772  0.00  0.00    +0.037 A 
ATOM     11 CL   UNL     1       3.934  -1.714   0.919  0.00  0.00    -0.080 Cl
BRANCH   7  12
ATOM     12  O   UNL     1       4.982  -3.277  -3.814  0.00  0.00    -0.491 OA
ATOM     13  C   UNL     1       4.548  -3.894  -5.028  0.00  0.00    +0.277 C 
ENDBRANCH   7  12
BRANCH   8  14
ATOM     14  O   UNL     1       5.684  -2.111  -1.423  0.00  0.00    -0.478 OA
BRANCH  14  15
ATOM     15  C   UNL     1       5.941  -0.753  -1.789  0.00  0.00    +0.324 C 
BRANCH  15  16
ATOM     16  C   UNL     1       7.386  -0.424  -1.517  0.00  0.00    +0.248 C 
ATOM     17  O   UNL     1       8.124  -1.269  -1.055  0.00  0.00    -0.272 OA
ATOM     18  N   UNL     1       7.859   0.809  -1.786  0.00  0.00    -0.327 N 
ATOM     19  H   UNL     1       7.269   1.485  -2.155  0.00  0.00    +0.145 HD
ATOM     20  H   UNL     1       8.789   1.021  -1.611  0.00  0.00    +0.145 HD
ENDBRANCH  15  16
ENDBRANCH  14  15
ENDBRANCH   8  14
ENDBRANCH   2   5
BRANCH   1  21
ATOM     21  C   UNL     1      -1.813  -4.381  -1.384  0.00  0.00    +0.089 C 
BRANCH  21  27
ATOM     22  N   UNL     1      -2.021  -4.517   1.051  0.00  0.00    +0.383 N 
ATOM     23  C   UNL     1      -2.870  -4.238   2.215  0.00  0.00    -0.078 C 
ATOM     24  C   UNL     1      -3.022  -2.725   2.390  0.00  0.00    -0.019 C 
ATOM     25  C   UNL     1      -3.666  -2.134   1.133  0.00  0.00    -0.003 C 
ATOM     26  C   UNL     1      -2.811  -2.495  -0.085  0.00  0.00    -0.014 C 
ATOM     27  C   UNL     1      -2.667  -4.016  -0.168  0.00  0.00    -0.051 C 
ATOM     28  H   UNL     1      -1.129  -4.060   1.170  0.00  0.00    -0.081 HD
BRANCH  22  29
ATOM     29  C   UNL     1      -1.814  -5.966   0.933  0.00  0.00    -0.078 C 
BRANCH  29  30
ATOM     30  C   UNL     1      -1.016  -6.467   2.138  0.00  0.00    -0.019 C 
BRANCH  30  32
ATOM     31  C   UNL     1      -0.002  -8.478   3.221  0.00  0.00    +0.004 C 
ATOM     32  C   UNL     1      -0.800  -7.977   2.016  0.00  0.00    -0.005 C 
ENDBRANCH  30  32
ENDBRANCH  29  30
ENDBRANCH  22  29
ENDBRANCH  21  27
ENDBRANCH   1  21
TORSDOF 10
