REMARK  Name = ZINC41684328
REMARK  11 active torsions:
REMARK  status: ('A' for Active; 'I' for Inactive)
REMARK    1  A    between atoms: C_1  and  C_2
REMARK    2  A    between atoms: C_2  and  N_3
REMARK    3  A    between atoms: N_3  and  C_4
REMARK    4  A    between atoms: N_3  and  C_6
REMARK    5  A    between atoms: C_4  and  C_5
REMARK    6  A    between atoms: C_6  and  C_7
REMARK    7  A    between atoms: C_7  and  C_9
REMARK    8  A    between atoms: C_7  and  N_10
REMARK    9  A    between atoms: C_11  and  C_13
REMARK   10  A    between atoms: C_13  and  C_18
REMARK   11  A    between atoms: N_19  and  O_20
REMARK                            x       y       z     vdW  Elec       q    Type
REMARK                         _______ _______ _______ _____ _____    ______ ____
ROOT
ATOM      1  N   UNL     1       0.958  -2.016  -1.037  0.00  0.00    -0.314 N 
ATOM      2  C   UNL     1       1.626  -1.824  -2.192  0.00  0.00    +0.227 C 
ATOM      3  O   UNL     1       2.792  -2.147  -2.279  0.00  0.00    -0.275 OA
ATOM      4  H   UNL     1       0.008  -1.826  -0.989  0.00  0.00    +0.149 HD
ENDROOT
BRANCH   2   5
ATOM      5  C   UNL     1       0.924  -1.208  -3.375  0.00  0.00    +0.105 C 
ATOM      6  C   UNL     1      -0.337  -2.020  -3.721  0.00  0.00    +0.024 C 
ATOM      7  C   UNL     1      -0.146  -2.537  -5.162  0.00  0.00    +0.001 C 
ATOM      8  C   UNL     1       1.390  -2.543  -5.363  0.00  0.00    +0.001 C 
ATOM      9  C   UNL     1       1.837  -1.261  -4.617  0.00  0.00    +0.024 C 
BRANCH   5  10
ATOM     10  C   UNL     1       0.552   0.220  -3.068  0.00  0.00    +0.147 C 
ATOM     11  N   UNL     1       0.952   1.172  -3.843  0.00  0.00    -0.076 NA
ATOM     12  N   UNL     1      -0.214   0.509  -1.961  0.00  0.00    -0.343 N 
ATOM     13  H   UNL     1      -0.457  -0.197  -1.342  0.00  0.00    +0.144 HD
ATOM     14  H   UNL     1      -0.511   1.418  -1.801  0.00  0.00    +0.144 HD
BRANCH  11  15
ATOM     15  O   UNL     1       0.603   2.514  -3.555  0.00  0.00    -0.408 OA
ATOM     16  H   UNL     1       0.948   3.155  -4.191  0.00  0.00    +0.328 HD
ENDBRANCH  11  15
ENDBRANCH   5  10
ENDBRANCH   2   5
BRANCH   1  17
ATOM     17  C   UNL     1       1.667  -2.512   0.145  0.00  0.00    +0.053 C 
ATOM     18  C   UNL     1       1.824  -4.031   0.045  0.00  0.00    +0.026 C 
BRANCH  17  19
ATOM     19  C   UNL     1       0.868  -2.164   1.402  0.00  0.00    -0.057 C 
BRANCH  19  20
ATOM     20  N   UNL     1       1.623  -2.577   2.593  0.00  0.00    +0.381 N 
ATOM     21  H   UNL     1       1.868  -3.552   2.514  0.00  0.00    -0.082 HD
BRANCH  20  23
ATOM     22  C   UNL     1       2.474  -0.301   2.901  0.00  0.00    -0.017 C 
ATOM     23  C   UNL     1       2.847  -1.771   2.700  0.00  0.00    -0.082 C 
ENDBRANCH  20  23
BRANCH  20  24
ATOM     24  C   UNL     1       0.798  -2.375   3.791  0.00  0.00    -0.082 C 
ATOM     25  C   UNL     1       1.545  -2.898   5.019  0.00  0.00    -0.017 C 
ENDBRANCH  20  24
ENDBRANCH  19  20
ENDBRANCH  17  19
ENDBRANCH   1  17
TORSDOF 8
