REMARK  Name = ZINC00091087
REMARK  5 active torsions:
REMARK  status: ('A' for Active; 'I' for Inactive)
REMARK    1  A    between atoms: C_1  and  C_2
REMARK    2  A    between atoms: C_4  and  O_10
REMARK    3  A    between atoms: C_6  and  C_9
REMARK    4  A    between atoms: O_10  and  C_11
REMARK    5  A    between atoms: C_11  and  C_12
REMARK                            x       y       z     vdW  Elec       q    Type
REMARK                         _______ _______ _______ _____ _____    ______ ____
ROOT
ATOM      1  C   UNL     1       2.757   0.085  -0.024  0.00  0.00    +0.328 C 
ENDROOT
BRANCH   1   2
ATOM      2  C   UNL     1       2.381   1.545  -0.013  0.00  0.00    +0.273 C 
ATOM      3  O   UNL     1       3.244   2.391  -0.017  0.00  0.00    -0.268 OA
ATOM      4  N   UNL     1       1.083   1.906   0.002  0.00  0.00    -0.237 N 
ATOM      5  C   UNL     1      -0.013   1.076   0.008  0.00  0.00    +0.233 A 
ATOM      6  N   UNL     1      -1.071   1.834   0.016  0.00  0.00    -0.136 NA
ATOM      7  N   UNL     1      -0.731   3.073   0.026  0.00  0.00    -0.113 NA
ATOM      8  C   UNL     1       0.575   3.182   0.014  0.00  0.00    +0.221 A 
ATOM      9  N   UNL     1       1.304   4.358   0.013  0.00  0.00    -0.327 N 
ATOM     10  H   UNL     1       2.273   4.328   0.004  0.00  0.00    +0.145 HD
ATOM     11  H   UNL     1       0.845   5.213   0.022  0.00  0.00    +0.145 HD
ENDBRANCH   1   2
BRANCH   1  12
ATOM     12  O   UNL     1       4.180  -0.040  -0.039  0.00  0.00    -0.483 OA
BRANCH  12  16
ATOM     13  C   UNL     1       8.068  -2.990  -0.092  0.00  0.00    +0.045 C 
ATOM     14  C   UNL     1       6.576  -2.777  -0.076  0.00  0.00    -0.028 A 
ATOM     15  C   UNL     1       6.062  -1.496  -0.065  0.00  0.00    +0.050 A 
ATOM     16  C   UNL     1       4.688  -1.301  -0.051  0.00  0.00    +0.122 A 
ATOM     17  C   UNL     1       3.834  -2.394  -0.042  0.00  0.00    +0.050 A 
ATOM     18  C   UNL     1       4.353  -3.674  -0.059  0.00  0.00    -0.028 A 
ATOM     19  C   UNL     1       5.723  -3.867  -0.073  0.00  0.00    +0.047 A 
ATOM     20 CL   UNL     1       6.372  -5.476  -0.088  0.00  0.00    -0.083 Cl
ATOM     21  C   UNL     1       3.426  -4.862  -0.055  0.00  0.00    +0.045 C 
ENDBRANCH  12  16
ENDBRANCH   1  12
TORSDOF 3
