REMARK  Name = ZINC54538012
REMARK  12 active torsions:
REMARK  status: ('A' for Active; 'I' for Inactive)
REMARK    1  A    between atoms: C_1  and  C_2
REMARK    2  A    between atoms: C_2  and  C_3
REMARK    3  A    between atoms: C_2  and  O_4
REMARK    4  A    between atoms: O_4  and  C_5
REMARK    5  A    between atoms: C_8  and  C_26
REMARK    6  A    between atoms: C_10  and  N_11
REMARK    7  A    between atoms: N_14  and  C_15
REMARK    8  A    between atoms: C_15  and  C_16
REMARK    9  A    between atoms: C_16  and  C_18
REMARK   10  A    between atoms: C_16  and  N_23
REMARK   11  A    between atoms: N_23  and  C_24
REMARK   12  A    between atoms: N_23  and  C_25
REMARK                            x       y       z     vdW  Elec       q    Type
REMARK                         _______ _______ _______ _____ _____    ______ ____
ROOT
ATOM      1  N   UNL     1       2.082  -0.912   3.444  0.00  0.00    -0.266 N 
ATOM      2  C   UNL     1       2.642  -1.479   4.531  0.00  0.00    +0.304 C 
ATOM      3  O   UNL     1       1.971  -1.680   5.525  0.00  0.00    -0.253 OA
ATOM      4  N   UNL     1       3.945  -1.822   4.517  0.00  0.00    -0.300 N 
ATOM      5  H   UNL     1       2.632  -0.686   2.677  0.00  0.00    +0.156 HD
ATOM      6  H   UNL     1       4.480  -1.662   3.724  0.00  0.00    +0.150 HD
ENDROOT
BRANCH   1  12
ATOM      7  C   UNL     1      -0.004  -0.746   2.224  0.00  0.00    +0.142 A 
ATOM      8  C   UNL     1      -1.368  -0.491   2.199  0.00  0.00    +0.049 A 
ATOM      9  C   UNL     1      -2.027  -0.135   3.356  0.00  0.00    +0.022 A 
ATOM     10  C   UNL     1      -1.322  -0.029   4.558  0.00  0.00    +0.054 A 
ATOM     11  C   UNL     1       0.051  -0.285   4.584  0.00  0.00    +0.046 A 
ATOM     12  C   UNL     1       0.705  -0.648   3.421  0.00  0.00    +0.078 A 
BRANCH  10  13
ATOM     13  C   UNL     1      -2.006   0.342   5.760  0.00  0.00    +0.099 C 
ATOM     14  N   UNL     1      -2.548   0.636   6.714  0.00  0.00    -0.191 NA
ENDBRANCH  10  13
BRANCH   7  15
ATOM     15  O   UNL     1       0.641  -1.097   1.081  0.00  0.00    -0.488 OA
BRANCH  15  17
ATOM     16  C   UNL     1      -0.189   0.317  -0.695  0.00  0.00    +0.051 C 
ATOM     17  C   UNL     1      -0.129  -1.101  -0.123  0.00  0.00    +0.167 C 
ATOM     18  C   UNL     1       0.525  -2.035  -1.143  0.00  0.00    +0.051 C 
ENDBRANCH  15  17
ENDBRANCH   7  15
ENDBRANCH   1  12
BRANCH   4  19
ATOM     19  C   UNL     1       4.553  -2.438   5.699  0.00  0.00    +0.095 C 
BRANCH  19  20
ATOM     20  C   UNL     1       6.055  -2.612   5.467  0.00  0.00    -0.014 C 
BRANCH  20  21
ATOM     21  C   UNL     1       6.699  -1.259   5.311  0.00  0.00    -0.022 A 
ATOM     22  C   UNL     1       7.060  -0.611   4.177  0.00  0.00    +0.009 A 
ATOM     23  C   UNL     1       7.642   0.639   4.275  0.00  0.00    +0.008 A 
ATOM     24  C   UNL     1       7.835   1.179   5.503  0.00  0.00    +0.045 A 
ATOM     25  S   UNL     1       7.179  -0.090   6.573  0.00  0.00    -0.103 S 
ENDBRANCH  20  21
BRANCH  20  26
ATOM     26  N   UNL     1       6.650  -3.309   6.616  0.00  0.00    +0.382 N 
ATOM     27  C   UNL     1       6.111  -4.673   6.694  0.00  0.00    -0.096 C 
ATOM     28  C   UNL     1       8.109  -3.368   6.450  0.00  0.00    -0.096 C 
ATOM     29  H   UNL     1       6.428  -2.810   7.464  0.00  0.00    -0.082 HD
ENDBRANCH  20  26
ENDBRANCH  19  20
ENDBRANCH   4  19
TORSDOF 8
