REMARK  Name = ZINC65266366
REMARK  8 active torsions:
REMARK  status: ('A' for Active; 'I' for Inactive)
REMARK    1  A    between atoms: C_1  and  C_2
REMARK    2  A    between atoms: C_2  and  C_3
REMARK    3  A    between atoms: C_2  and  C_4
REMARK    4  A    between atoms: C_2  and  N_5
REMARK    5  A    between atoms: C_20  and  C_22
REMARK    6  A    between atoms: C_22  and  C_23
REMARK    7  A    between atoms: C_28  and  O_29
REMARK    8  A    between atoms: O_29  and  C_30
REMARK                            x       y       z     vdW  Elec       q    Type
REMARK                         _______ _______ _______ _____ _____    ______ ____
ROOT
ATOM      1  N   UNL     1       0.721  -0.443  -1.210  0.00  0.00    -0.370 N 
ATOM      2  C   UNL     1       1.968  -0.143  -1.374  0.00  0.00    +0.099 C 
ATOM      3  N   UNL     1       2.701   0.496  -0.387  0.00  0.00    -0.286 N 
ATOM      4  C   UNL     1       3.655   1.439  -0.790  0.00  0.00    +0.145 A 
ATOM      5  C   UNL     1       4.033   1.531  -2.131  0.00  0.00    +0.069 A 
ATOM      6  C   UNL     1       4.989   2.462  -2.507  0.00  0.00    +0.028 A 
ATOM      7  C   UNL     1       5.533   3.280  -1.525  0.00  0.00    +0.022 A 
ATOM      8  C   UNL     1       5.108   3.141  -0.219  0.00  0.00    +0.113 A 
ATOM      9  N   UNL     1       4.198   2.243   0.111  0.00  0.00    -0.238 NA
ATOM     10  N   UNL     1       3.446   0.699  -3.098  0.00  0.00    -0.328 N 
ATOM     11  C   UNL     1       2.701  -0.477  -2.646  0.00  0.00    +0.103 C 
ATOM     12  C   UNL     1       1.724  -0.968  -3.730  0.00  0.00    +0.054 C 
ATOM     13  C   UNL     1       2.615  -1.875  -4.609  0.00  0.00    +0.110 C 
ATOM     14  N   UNL     1       3.770  -2.279  -3.791  0.00  0.00    -0.299 N 
ATOM     15  C   UNL     1       3.628  -1.688  -2.446  0.00  0.00    +0.141 C 
ATOM     16  C   UNL     1       4.788  -3.061  -4.202  0.00  0.00    +0.220 C 
ATOM     17  O   UNL     1       5.691  -3.331  -3.439  0.00  0.00    -0.275 OA
ATOM     18  H   UNL     1       0.209  -0.812  -1.946  0.00  0.00    +0.161 HD
ATOM     19  H   UNL     1       3.534   0.898  -4.043  0.00  0.00    +0.147 HD
ATOM     20  H   UNL     1       2.558   0.298   0.551  0.00  0.00    +0.155 HD
ENDROOT
BRANCH   1  22
ATOM     21  C   UNL     1       0.258   1.237   0.506  0.00  0.00    +0.033 C 
ATOM     22  C   UNL     1       0.080  -0.224   0.090  0.00  0.00    +0.031 C 
ATOM     23  C   UNL     1       0.726  -1.135   1.136  0.00  0.00    +0.033 C 
ATOM     24  C   UNL     1      -1.411  -0.547  -0.016  0.00  0.00    +0.033 C 
ENDBRANCH   1  22
BRANCH  16  25
ATOM     25  C   UNL     1       4.804  -3.599  -5.610  0.00  0.00    +0.134 C 
BRANCH  25  26
ATOM     26  C   UNL     1       6.040  -4.437  -5.813  0.00  0.00    +0.003 A 
ATOM     27  C   UNL     1       7.175  -3.873  -6.362  0.00  0.00    +0.008 A 
ATOM     28  C   UNL     1       8.309  -4.641  -6.549  0.00  0.00    +0.001 A 
ATOM     29  C   UNL     1       8.310  -5.976  -6.188  0.00  0.00    +0.004 A 
ATOM     30  C   UNL     1       7.178  -6.545  -5.638  0.00  0.00    +0.046 A 
ATOM     31  C   UNL     1       6.040  -5.774  -5.444  0.00  0.00    +0.124 A 
BRANCH  31  32
ATOM     32  O   UNL     1       4.926  -6.330  -4.898  0.00  0.00    -0.495 OA
ATOM     33  C   UNL     1       4.999  -7.712  -4.542  0.00  0.00    +0.277 C 
ENDBRANCH  31  32
ENDBRANCH  25  26
ENDBRANCH  16  25
TORSDOF 4
