REMARK  Name = ZINC20841390
REMARK  6 active torsions:
REMARK  status: ('A' for Active; 'I' for Inactive)
REMARK    1  A    between atoms: C_6  and  N_7
REMARK    2  A    between atoms: C_11  and  C_13
REMARK    3  A    between atoms: C_13  and  S_14
REMARK    4  A    between atoms: S_14  and  C_15
REMARK    5  A    between atoms: C_18  and  C_21
REMARK    6  A    between atoms: N_19  and  N_20
REMARK                            x       y       z     vdW  Elec       q    Type
REMARK                         _______ _______ _______ _____ _____    ______ ____
ROOT
ATOM      1  C   UNL     1       5.963   0.869  -0.050  0.00  0.00    +0.151 C 
ENDROOT
BRANCH   1   9
ATOM      2  C   UNL     1      -0.017   1.383   0.010  0.00  0.00    +0.035 A 
ATOM      3  C   UNL     1       1.149   2.096   0.002  0.00  0.00    +0.032 A 
ATOM      4  C   UNL     1       2.375   1.426  -0.013  0.00  0.00    +0.089 A 
ATOM      5  C   UNL     1       2.394   0.021  -0.021  0.00  0.00    +0.068 A 
ATOM      6  C   UNL     1       1.200  -0.687  -0.013  0.00  0.00    +0.060 A 
ATOM      7  C   UNL     1       0.002  -0.004   0.002  0.00  0.00    +0.128 A 
ATOM      8  N   UNL     1       3.726  -0.342  -0.035  0.00  0.00    -0.341 N 
ATOM      9  C   UNL     1       4.458   0.805  -0.036  0.00  0.00    +0.118 A 
ATOM     10  N   UNL     1       3.668   1.839  -0.023  0.00  0.00    -0.232 NA
ATOM     11  H   UNL     1       4.076  -1.246  -0.043  0.00  0.00    +0.167 HD
BRANCH   7  12
ATOM     12  N   UNL     1      -1.272  -0.756   0.011  0.00  0.00    +0.056 N 
ATOM     13  O   UNL     1      -2.325  -0.162   0.024  0.00  0.00    -0.126 OA
ATOM     14  O   UNL     1      -1.261  -1.965   0.004  0.00  0.00    -0.126 OA
ENDBRANCH   7  12
ENDBRANCH   1   9
BRANCH   1  15
ATOM     15  S   UNL     1       6.551   0.904  -1.766  0.00  0.00    -0.077 S 
BRANCH  15  16
ATOM     16  C   UNL     1       8.305   0.978  -1.614  0.00  0.00    +0.209 A 
ATOM     17  N   UNL     1       8.992   0.995  -0.496  0.00  0.00    -0.121 NA
ATOM     18  N   UNL     1      10.249   1.051  -0.756  0.00  0.00    -0.123 NA
ATOM     19  C   UNL     1      10.438   1.074  -2.045  0.00  0.00    +0.255 A 
ATOM     20  N   UNL     1       9.207   1.022  -2.638  0.00  0.00    -0.220 N 
BRANCH  19  21
ATOM     21  C   UNL     1      11.768   1.139  -2.751  0.00  0.00    +0.454 C 
ATOM     22  F   UNL     1      12.791   0.830  -1.849  0.00  0.00    -0.163 F 
ATOM     23  F   UNL     1      11.782   0.218  -3.804  0.00  0.00    -0.163 F 
ATOM     24  F   UNL     1      11.965   2.428  -3.257  0.00  0.00    -0.163 F 
ENDBRANCH  19  21
BRANCH  20  25
ATOM     25  N   UNL     1       8.936   1.018  -3.977  0.00  0.00    -0.295 N 
ATOM     26  H   UNL     1       8.825   1.958  -4.326  0.00  0.00    +0.163 HD
ATOM     27  H   UNL     1       9.652   0.524  -4.489  0.00  0.00    +0.163 HD
ENDBRANCH  20  25
ENDBRANCH  15  16
ENDBRANCH   1  15
TORSDOF 6
