REMARK  Name = ZINC43262203
REMARK  10 active torsions:
REMARK  status: ('A' for Active; 'I' for Inactive)
REMARK    1  A    between atoms: C_1  and  C_2
REMARK    2  A    between atoms: C_2  and  N_3
REMARK    3  A    between atoms: C_4  and  C_6
REMARK    4  A    between atoms: C_6  and  N_7
REMARK    5  A    between atoms: N_7  and  C_8
REMARK    6  A    between atoms: N_7  and  C_9
REMARK    7  A    between atoms: C_9  and  C_11
REMARK    8  A    between atoms: C_9  and  C_17
REMARK    9  A    between atoms: C_17  and  C_19
REMARK   10  A    between atoms: C_17  and  N_20
REMARK                            x       y       z     vdW  Elec       q    Type
REMARK                         _______ _______ _______ _____ _____    ______ ____
ROOT
ATOM      1  C   UNL     1       2.208  -4.295   3.843  0.00  0.00    +0.079 C 
ENDROOT
BRANCH   1   2
ATOM      2  C   UNL     1       2.444  -5.784   3.819  0.00  0.00    +0.006 A 
ATOM      3  C   UNL     1       3.519  -6.484   4.254  0.00  0.00    +0.014 A 
ATOM      4  C   UNL     1       3.518  -7.861   4.131  0.00  0.00    +0.023 A 
ATOM      5  C   UNL     1       2.439  -8.470   3.578  0.00  0.00    +0.055 A 
ATOM      6  S   UNL     1       1.375  -7.082   3.219  0.00  0.00    -0.085 S 
ATOM      7 BR   UNL     1       2.137 -10.312   3.274  0.00  0.00    -0.043 Br
ENDBRANCH   1   2
BRANCH   1   8
ATOM      8  N   UNL     1       1.548  -3.885   2.596  0.00  0.00    -0.291 NA
ATOM      9  C   UNL     1       2.288  -4.370   1.424  0.00  0.00    +0.106 C 
BRANCH   8  10
ATOM     10  C   UNL     1       1.379  -2.426   2.546  0.00  0.00    +0.180 C 
BRANCH  10  12
ATOM     11  N   UNL     1      -0.018  -0.789   1.327  0.00  0.00    -0.315 N 
ATOM     12  C   UNL     1       0.309  -2.079   1.543  0.00  0.00    +0.227 C 
ATOM     13  O   UNL     1      -0.257  -2.959   0.931  0.00  0.00    -0.274 OA
ATOM     14  H   UNL     1       0.435  -0.085   1.816  0.00  0.00    +0.149 HD
BRANCH  11  16
ATOM     15  C   UNL     1      -1.234   1.068   0.299  0.00  0.00    +0.024 C 
ATOM     16  C   UNL     1      -1.058  -0.451   0.352  0.00  0.00    +0.101 C 
ENDBRANCH  11  16
ENDBRANCH  10  12
ENDBRANCH   8  10
ENDBRANCH   1   8
BRANCH   1  17
ATOM     17  C   UNL     1       1.316  -3.939   5.034  0.00  0.00    -0.056 C 
ATOM     18  C   UNL     1      -0.070  -4.557   4.836  0.00  0.00    -0.012 C 
BRANCH  17  19
ATOM     19  N   UNL     1       1.914  -4.464   6.268  0.00  0.00    +0.381 N 
ATOM     20  H   UNL     1       2.862  -4.128   6.352  0.00  0.00    -0.090 HD
ATOM     21  H   UNL     1       1.376  -4.152   7.062  0.00  0.00    -0.090 HD
ATOM     22  H   UNL     1       1.917  -5.473   6.238  0.00  0.00    -0.090 HD
ENDBRANCH  17  19
ENDBRANCH   1  17
TORSDOF 7
