REMARK  Name = ZINC64376043
REMARK  7 active torsions:
REMARK  status: ('A' for Active; 'I' for Inactive)
REMARK    1  A    between atoms: C_6  and  S_7
REMARK    2  A    between atoms: S_7  and  N_10
REMARK    3  A    between atoms: N_10  and  N_11
REMARK    4  A    between atoms: N_14  and  C_15
REMARK    5  A    between atoms: C_15  and  C_16
REMARK    6  A    between atoms: C_16  and  C_17
REMARK    7  A    between atoms: C_17  and  N_18
REMARK                            x       y       z     vdW  Elec       q    Type
REMARK                         _______ _______ _______ _____ _____    ______ ____
ROOT
ATOM      1  N   UNL     1      -1.085  -1.863  -2.428  0.00  0.00    -0.216 N 
ATOM      2  C   UNL     1      -1.539  -2.941  -3.097  0.00  0.00    +0.315 C 
ATOM      3  O   UNL     1      -0.797  -3.550  -3.844  0.00  0.00    -0.251 OA
ATOM      4  N   UNL     1      -2.815  -3.344  -2.939  0.00  0.00    -0.298 N 
ATOM      5  H   UNL     1      -0.166  -1.573  -2.542  0.00  0.00    +0.172 HD
ATOM      6  H   UNL     1      -3.407  -2.859  -2.343  0.00  0.00    +0.150 HD
ENDROOT
BRANCH   1   7
ATOM      7  N   UNL     1      -1.939  -1.161  -1.568  0.00  0.00    -0.107 NA
ATOM      8  H   UNL     1      -2.785  -0.819  -1.897  0.00  0.00    +0.172 HD
BRANCH   7   9
ATOM      9  S   UNL     1      -1.505  -0.916   0.011  0.00  0.00    +0.075 S 
ATOM     10  O   UNL     1      -1.203  -2.195   0.553  0.00  0.00    -0.152 OA
ATOM     11  O   UNL     1      -2.492  -0.064   0.576  0.00  0.00    -0.152 OA
BRANCH   9  17
ATOM     12  C   UNL     1      -0.017   1.383   0.010  0.00  0.00    +0.033 A 
ATOM     13  C   UNL     1       1.193   2.059   0.002  0.00  0.00    +0.042 A 
ATOM     14  C   UNL     1       2.371   1.333  -0.013  0.00  0.00    +0.129 A 
ATOM     15  N   UNL     1       2.350   0.014  -0.021  0.00  0.00    -0.242 NA
ATOM     16  C   UNL     1       1.217  -0.662  -0.014  0.00  0.00    +0.141 A 
ATOM     17  C   UNL     1       0.002  -0.004   0.002  0.00  0.00    +0.125 A 
ATOM     18 CL   UNL     1       3.893   2.168  -0.024  0.00  0.00    -0.062 Cl
ENDBRANCH   9  17
ENDBRANCH   7   9
ENDBRANCH   1   7
BRANCH   4  19
ATOM     19  C   UNL     1      -3.309  -4.516  -3.666  0.00  0.00    +0.107 C 
BRANCH  19  20
ATOM     20  C   UNL     1      -4.777  -4.756  -3.310  0.00  0.00    +0.040 C 
BRANCH  20  21
ATOM     21  C   UNL     1      -5.293  -5.980  -4.070  0.00  0.00    +0.124 C 
BRANCH  21  22
ATOM     22  N   UNL     1      -6.699  -6.210  -3.728  0.00  0.00    -0.338 N 
ATOM     23  C   UNL     1      -7.170  -6.981  -2.700  0.00  0.00    +0.104 A 
ATOM     24  C   UNL     1      -8.514  -6.916  -2.748  0.00  0.00    +0.101 A 
ATOM     25  N   UNL     1      -8.855  -6.127  -3.777  0.00  0.00    -0.352 N 
ATOM     26  C   UNL     1      -7.773  -5.696  -4.366  0.00  0.00    +0.173 A 
ATOM     27  H   UNL     1      -9.762  -5.907  -4.040  0.00  0.00    +0.166 HD
ENDBRANCH  21  22
ENDBRANCH  20  21
ENDBRANCH  19  20
ENDBRANCH   4  19
TORSDOF 7
