REMARK  Name = ZINC29678831
REMARK  12 active torsions:
REMARK  status: ('A' for Active; 'I' for Inactive)
REMARK    1  A    between atoms: C_1  and  C_2
REMARK    2  A    between atoms: C_5  and  O_28
REMARK    3  A    between atoms: C_6  and  C_8
REMARK    4  A    between atoms: C_8  and  C_10
REMARK    5  A    between atoms: C_8  and  N_11
REMARK    6  A    between atoms: N_11  and  C_12
REMARK    7  A    between atoms: C_12  and  C_14
REMARK    8  A    between atoms: C_12  and  C_15
REMARK    9  A    between atoms: N_17  and  C_18
REMARK   10  A    between atoms: C_22  and  C_24
REMARK   11  A    between atoms: N_26  and  C_27
REMARK   12  A    between atoms: O_28  and  C_29
REMARK                            x       y       z     vdW  Elec       q    Type
REMARK                         _______ _______ _______ _____ _____    ______ ____
ROOT
ATOM      1  C   UNL     1      -4.632  -7.086  -0.197  0.00  0.00    +0.014 C 
ATOM      2  C   UNL     1      -5.401  -6.753   1.082  0.00  0.00    -0.004 C 
ENDROOT
BRANCH   1   3
ATOM      3  C   UNL     1      -3.271  -6.441  -0.148  0.00  0.00    +0.203 C 
ATOM      4  O   UNL     1      -2.272  -7.128  -0.202  0.00  0.00    -0.277 OA
ATOM      5  N   UNL     1      -3.163  -5.102  -0.043  0.00  0.00    -0.287 N 
ATOM      6  H   UNL     1      -4.065  -4.487   0.091  0.00  0.00    +0.155 HD
BRANCH   5   7
ATOM      7  C   UNL     1      -1.904  -4.495  -0.105  0.00  0.00    +0.034 A 
ATOM      8  C   UNL     1      -1.651  -3.343   0.631  0.00  0.00    +0.023 A 
ATOM      9  C   UNL     1      -0.409  -2.739   0.574  0.00  0.00    +0.003 A 
ATOM     10  C   UNL     1       0.590  -3.279  -0.212  0.00  0.00    +0.013 A 
ATOM     11  C   UNL     1       0.345  -4.432  -0.959  0.00  0.00    +0.038 A 
ATOM     12  C   UNL     1      -0.909  -5.041  -0.900  0.00  0.00    +0.036 A 
BRANCH  11  13
ATOM     13  C   UNL     1       1.411  -5.009  -1.805  0.00  0.00    +0.244 C 
ATOM     14  O   UNL     1       1.196  -6.016  -2.451  0.00  0.00    -0.270 OA
ATOM     15  N   UNL     1       2.621  -4.418  -1.860  0.00  0.00    -0.314 N 
ATOM     16  C   UNL     1       3.678  -4.990  -2.698  0.00  0.00    +0.128 C 
ATOM     17  H   UNL     1       2.816  -3.507  -1.275  0.00  0.00    +0.149 HD
ENDBRANCH  11  13
ENDBRANCH   5   7
ENDBRANCH   1   3
BRANCH   1  18
ATOM     18  N   UNL     1      -4.480  -8.543  -0.312  0.00  0.00    +0.391 N 
ATOM     19  H   UNL     1      -5.372  -9.025   0.115  0.00  0.00    -0.084 HD
ATOM     20  H   UNL     1      -3.590  -8.850   0.257  0.00  0.00    -0.084 HD
BRANCH  18  21
ATOM     21  C   UNL     1      -4.329  -8.948  -1.716  0.00  0.00    -0.039 C 
ATOM     22  C   UNL     1      -5.711  -9.132  -2.345  0.00  0.00    -0.009 C 
BRANCH  21  28
ATOM     23  C   UNL     1      -2.896 -13.247   0.406  0.00  0.00    +0.044 C 
ATOM     24  C   UNL     1      -2.882 -12.305  -0.770  0.00  0.00    -0.050 A 
ATOM     25  C   UNL     1      -2.172 -12.634  -1.910  0.00  0.00    +0.007 A 
ATOM     26  C   UNL     1      -2.159 -11.773  -2.990  0.00  0.00    +0.046 A 
ATOM     27  C   UNL     1      -2.861 -10.578  -2.931  0.00  0.00    +0.122 A 
ATOM     28  C   UNL     1      -3.568 -10.247  -1.784  0.00  0.00    -0.020 A 
ATOM     29  C   UNL     1      -3.580 -11.113  -0.708  0.00  0.00    +0.009 A 
BRANCH  27  30
ATOM     30  O   UNL     1      -2.853  -9.730  -3.994  0.00  0.00    -0.495 OA
ATOM     31  C   UNL     1      -2.104 -10.136  -5.141  0.00  0.00    +0.277 C 
ENDBRANCH  27  30
ENDBRANCH  21  28
ENDBRANCH  18  21
ENDBRANCH   1  18
TORSDOF 7
