REMARK  Name = ZINC36203582
REMARK  5 active torsions:
REMARK  status: ('A' for Active; 'I' for Inactive)
REMARK    1  A    between atoms: C_1  and  C_2
REMARK    2  A    between atoms: N_8  and  S_9
REMARK    3  A    between atoms: S_9  and  N_12
REMARK    4  A    between atoms: C_16  and  C_19
REMARK    5  A    between atoms: C_19  and  O_20
REMARK                            x       y       z     vdW  Elec       q    Type
REMARK                         _______ _______ _______ _____ _____    ______ ____
ROOT
ATOM      1  S   UNL     1       1.290   0.564   2.357  0.00  0.00    +0.100 S 
ATOM      2  O   UNL     1       2.329  -0.250   2.885  0.00  0.00    -0.141 OA
ATOM      3  O   UNL     1       1.537   1.847   1.799  0.00  0.00    -0.141 OA
ENDROOT
BRANCH   1  10
ATOM      4  C   UNL     1       1.259  -2.263   2.502  0.00  0.00    +0.026 C 
ATOM      5  C   UNL     1       0.450  -1.790   1.293  0.00  0.00    +0.078 C 
ATOM      6  C   UNL     1       1.014  -2.424   0.018  0.00  0.00    +0.020 C 
ATOM      7  C   UNL     1       0.291  -1.841  -1.199  0.00  0.00    +0.003 C 
ATOM      8  C   UNL     1       0.532  -0.331  -1.263  0.00  0.00    +0.017 C 
ATOM      9  C   UNL     1      -0.038   0.326  -0.002  0.00  0.00    +0.111 C 
ATOM     10  N   UNL     1       0.542  -0.328   1.179  0.00  0.00    -0.164 NA
ENDBRANCH   1  10
BRANCH   1  11
ATOM     11  N   UNL     1       0.193   0.782   3.578  0.00  0.00    -0.166 NA
ATOM     12  C   UNL     1      -0.879   1.779   3.452  0.00  0.00    +0.110 C 
ATOM     13  C   UNL     1      -2.224   1.092   3.710  0.00  0.00    +0.017 C 
ATOM     14  C   UNL     1      -2.179   0.386   5.067  0.00  0.00    +0.008 C 
ATOM     15  C   UNL     1      -1.086  -0.685   5.050  0.00  0.00    +0.030 C 
ATOM     16  C   UNL     1       0.268  -0.023   4.805  0.00  0.00    +0.116 C 
BRANCH  15  17
ATOM     17  C   UNL     1      -1.065  -1.414   6.396  0.00  0.00    +0.160 C 
BRANCH  17  18
ATOM     18  O   UNL     1      -2.290  -2.128   6.570  0.00  0.00    -0.395 OA
ATOM     19  H   UNL     1      -2.346  -2.614   7.404  0.00  0.00    +0.209 HD
ENDBRANCH  17  18
ENDBRANCH  15  17
ENDBRANCH   1  11
TORSDOF 4
