REMARK  Name = ZINC39939196
REMARK  12 active torsions:
REMARK  status: ('A' for Active; 'I' for Inactive)
REMARK    1  A    between atoms: C_1  and  C_2
REMARK    2  A    between atoms: C_4  and  C_20
REMARK    3  A    between atoms: C_5  and  C_19
REMARK    4  A    between atoms: N_6  and  C_7
REMARK    5  A    between atoms: C_9  and  C_16
REMARK    6  A    between atoms: C_10  and  C_15
REMARK    7  A    between atoms: C_11  and  C_14
REMARK    8  A    between atoms: C_21  and  C_22
REMARK    9  A    between atoms: C_21  and  C_24
REMARK   10  A    between atoms: N_26  and  C_27
REMARK   11  A    between atoms: C_27  and  C_28
REMARK   12  A    between atoms: C_28  and  C_29
REMARK                            x       y       z     vdW  Elec       q    Type
REMARK                         _______ _______ _______ _____ _____    ______ ____
ROOT
ATOM      1  C   UNL     1       1.818  -4.713  -0.418  0.00  0.00    +0.033 C 
ATOM      2  C   UNL     1       1.463  -5.259  -1.635  0.00  0.00    +0.114 C 
ENDROOT
BRANCH   1   6
ATOM      3  C   UNL     1       1.649   0.256  -1.314  0.00  0.00    +0.063 C 
ATOM      4  C   UNL     1       1.702  -1.093  -0.644  0.00  0.00    +0.018 A 
ATOM      5  C   UNL     1       1.728  -2.277  -1.279  0.00  0.00    +0.030 A 
ATOM      6  C   UNL     1       1.778  -3.308  -0.232  0.00  0.00    -0.003 A 
ATOM      7  C   UNL     1       1.777  -2.624   0.972  0.00  0.00    +0.024 A 
ATOM      8  N   UNL     1       1.737  -1.305   0.705  0.00  0.00    -0.331 N 
ATOM      9  C   UNL     1       1.819  -3.247   2.344  0.00  0.00    +0.064 C 
BRANCH   8  10
ATOM     10  C   UNL     1       1.728  -0.247   1.717  0.00  0.00    +0.183 C 
ATOM     11  C   UNL     1       2.153  -0.783   3.073  0.00  0.00    +0.073 C 
ATOM     12  C   UNL     1       1.226  -1.001   3.974  0.00  0.00    -0.047 C 
ATOM     13  C   UNL     1      -0.218  -0.703   3.609  0.00  0.00    +0.072 C 
ATOM     14  S   UNL     1       0.007   0.310   2.082  0.00  0.00    -0.123 S 
ATOM     15  C   UNL     1      -0.988  -1.991   3.309  0.00  0.00    +0.024 C 
ATOM     16  C   UNL     1       1.584  -1.532   5.338  0.00  0.00    +0.041 C 
BRANCH  11  17
ATOM     17  C   UNL     1       3.565  -1.052   3.367  0.00  0.00    +0.385 C 
ATOM     18  O   UNL     1       4.270  -1.603   2.531  0.00  0.00    -0.241 OA
ATOM     19  O   UNL     1       4.038  -0.726   4.447  0.00  0.00    -0.241 OA
ENDBRANCH  11  17
ENDBRANCH   8  10
ENDBRANCH   1   6
BRANCH   2  20
ATOM     20  C   UNL     1       1.625  -6.701  -1.869  0.00  0.00    +0.254 C 
ATOM     21  O   UNL     1       2.071  -7.413  -0.990  0.00  0.00    -0.269 OA
ATOM     22  N   UNL     1       1.278  -7.234  -3.057  0.00  0.00    -0.310 N 
ATOM     23  H   UNL     1       0.922  -6.666  -3.758  0.00  0.00    +0.149 HD
BRANCH  22  24
ATOM     24  C   UNL     1       1.440  -8.671  -3.290  0.00  0.00    +0.109 C 
BRANCH  24  25
ATOM     25  C   UNL     1       0.976  -9.014  -4.708  0.00  0.00    +0.056 C 
BRANCH  25  26
ATOM     26  C   UNL     1       1.142 -10.492  -4.947  0.00  0.00    -0.021 A 
ATOM     27  C   UNL     1       0.188 -11.545  -4.590  0.00  0.00    +0.003 A 
ATOM     28  C   UNL     1      -1.064 -11.552  -3.975  0.00  0.00    +0.010 A 
ATOM     29  C   UNL     1      -1.718 -12.736  -3.780  0.00  0.00    +0.001 A 
ATOM     30  C   UNL     1      -1.147 -13.932  -4.189  0.00  0.00    +0.002 A 
ATOM     31  C   UNL     1       0.089 -13.949  -4.798  0.00  0.00    +0.026 A 
ATOM     32  C   UNL     1       0.772 -12.756  -5.007  0.00  0.00    +0.047 A 
ATOM     33  N   UNL     1       1.989 -12.446  -5.573  0.00  0.00    -0.360 N 
ATOM     34  C   UNL     1       2.189 -11.093  -5.534  0.00  0.00    +0.087 A 
ATOM     35  H   UNL     1       2.609 -13.091  -5.947  0.00  0.00    +0.165 HD
ENDBRANCH  25  26
ENDBRANCH  24  25
ENDBRANCH  22  24
ENDBRANCH   2  20
BRANCH   2  36
ATOM     36  C   UNL     1       0.937  -4.421  -2.670  0.00  0.00    +0.104 C 
ATOM     37  N   UNL     1       0.520  -3.756  -3.491  0.00  0.00    -0.191 NA
ENDBRANCH   2  36
TORSDOF 8
