REMARK  Name = ZINC25258395
REMARK  10 active torsions:
REMARK  status: ('A' for Active; 'I' for Inactive)
REMARK    1  A    between atoms: C_1  and  C_2
REMARK    2  A    between atoms: C_2  and  C_3
REMARK    3  A    between atoms: C_3  and  C_5
REMARK    4  A    between atoms: C_3  and  C_6
REMARK    5  A    between atoms: C_6  and  C_8
REMARK    6  A    between atoms: C_6  and  N_25
REMARK    7  A    between atoms: N_10  and  C_11
REMARK    8  A    between atoms: C_14  and  N_18
REMARK    9  A    between atoms: C_16  and  C_17
REMARK   10  A    between atoms: N_21  and  C_24
REMARK                            x       y       z     vdW  Elec       q    Type
REMARK                         _______ _______ _______ _____ _____    ______ ____
ROOT
ATOM      1  C   UNL     1      -3.529   4.354  -6.797  0.00  0.00    +0.238 C 
ATOM      2  O   UNL     1      -3.867   3.370  -6.174  0.00  0.00    -0.273 OA
ATOM      3  N   UNL     1      -2.584   5.176  -6.298  0.00  0.00    -0.284 N 
ATOM      4  H   UNL     1      -2.335   6.110  -6.822  0.00  0.00    +0.155 HD
ENDROOT
BRANCH   3   5
ATOM      5  C   UNL     1      -1.919   4.840  -5.111  0.00  0.00    +0.036 A 
ATOM      6  C   UNL     1      -1.935   3.529  -4.653  0.00  0.00    +0.025 A 
ATOM      7  C   UNL     1      -1.275   3.197  -3.487  0.00  0.00    +0.025 A 
ATOM      8  C   UNL     1      -0.605   4.176  -2.765  0.00  0.00    +0.030 A 
ATOM      9  C   UNL     1      -0.589   5.487  -3.223  0.00  0.00    +0.028 A 
ATOM     10  C   UNL     1      -1.244   5.818  -4.393  0.00  0.00    -0.028 A 
ATOM     11  C   UNL     1      -1.227   7.241  -4.890  0.00  0.00    +0.046 C 
BRANCH   8  12
ATOM     12  N   UNL     1       0.059   3.841  -1.581  0.00  0.00    -0.333 N 
ATOM     13  C   UNL     1      -0.085   2.409  -1.283  0.00  0.00    +0.086 C 
ATOM     14  C   UNL     1       0.719   2.068  -0.026  0.00  0.00    -0.060 C 
ATOM     15  N   UNL     1       0.239   2.887   1.096  0.00  0.00    +0.380 N 
ATOM     16  C   UNL     1       0.383   4.319   0.798  0.00  0.00    -0.060 C 
ATOM     17  C   UNL     1      -0.421   4.660  -0.459  0.00  0.00    +0.086 C 
ATOM     18  C   UNL     1       0.937   2.535   2.340  0.00  0.00    -0.096 C 
ATOM     19  H   UNL     1      -0.831   2.675   1.238  0.00  0.00    -0.082 HD
ENDBRANCH   8  12
ENDBRANCH   3   5
BRANCH   1  20
ATOM     20  C   UNL     1      -4.165   4.659  -8.129  0.00  0.00    +0.163 C 
BRANCH  20  21
ATOM     21  N   UNL     1      -4.692   3.422  -8.712  0.00  0.00    -0.288 N 
ATOM     22  C   UNL     1      -4.841   3.317 -10.047  0.00  0.00    +0.298 C 
ATOM     23  O   UNL     1      -4.539   4.249 -10.768  0.00  0.00    -0.253 OA
ATOM     24  N   UNL     1      -5.326   2.180 -10.584  0.00  0.00    -0.313 N 
ATOM     25  H   UNL     1      -4.965   2.579  -8.060  0.00  0.00    +0.151 HD
ATOM     26  H   UNL     1      -5.447   2.095 -11.674  0.00  0.00    +0.146 HD
ATOM     27  H   UNL     1      -5.599   1.337  -9.932  0.00  0.00    +0.146 HD
ENDBRANCH  20  21
BRANCH  20  28
ATOM     28  C   UNL     1      -5.308   5.657  -7.932  0.00  0.00    +0.015 C 
ATOM     29  C   UNL     1      -6.423   5.001  -7.114  0.00  0.00    +0.010 C 
BRANCH  28  31
ATOM     30  C   UNL     1      -4.793   6.880 -10.048  0.00  0.00    +0.004 C 
ATOM     31  C   UNL     1      -5.857   6.079  -9.296  0.00  0.00    +0.002 C 
ENDBRANCH  28  31
ENDBRANCH  20  28
ENDBRANCH   1  20
TORSDOF 6
