REMARK  Name = ZINC63133616
REMARK  9 active torsions:
REMARK  status: ('A' for Active; 'I' for Inactive)
REMARK    1  A    between atoms: C_1  and  C_2
REMARK    2  A    between atoms: C_2  and  N_3
REMARK    3  A    between atoms: N_3  and  C_4
REMARK    4  A    between atoms: N_3  and  C_23
REMARK    5  A    between atoms: C_4  and  C_5
REMARK    6  A    between atoms: C_5  and  C_6
REMARK    7  A    between atoms: C_6  and  N_7
REMARK    8  A    between atoms: N_10  and  N_11
REMARK    9  A    between atoms: C_12  and  C_14
REMARK                            x       y       z     vdW  Elec       q    Type
REMARK                         _______ _______ _______ _____ _____    ______ ____
ROOT
ATOM      1  N   UNL     1       4.207  -3.762  -0.341  0.00  0.00    -0.298 N 
ATOM      2  C   UNL     1       5.479  -4.198  -0.251  0.00  0.00    +0.316 C 
ATOM      3  O   UNL     1       6.399  -3.444  -0.503  0.00  0.00    -0.251 OA
ATOM      4  N   UNL     1       5.731  -5.470   0.118  0.00  0.00    -0.218 N 
ATOM      5  H   UNL     1       3.473  -4.363  -0.139  0.00  0.00    +0.150 HD
ATOM      6  H   UNL     1       6.646  -5.784   0.182  0.00  0.00    +0.174 HD
ENDROOT
BRANCH   4   7
ATOM      7  N   UNL     1       4.670  -6.338   0.408  0.00  0.00    -0.229 N 
ATOM      8  C   UNL     1       4.922  -7.610   0.777  0.00  0.00    +0.259 C 
ATOM      9  O   UNL     1       6.070  -8.003   0.858  0.00  0.00    -0.269 OA
ATOM     10  H   UNL     1       3.755  -6.024   0.344  0.00  0.00    +0.173 HD
BRANCH   8  11
ATOM     11  C   UNL     1       3.812  -8.518   1.081  0.00  0.00    +0.044 C 
ATOM     12  C   UNL     1       3.899  -9.836   1.474  0.00  0.00    +0.008 A 
ATOM     13  C   UNL     1       4.997 -10.703   1.703  0.00  0.00    +0.010 A 
ATOM     14  C   UNL     1       4.787 -11.979   2.092  0.00  0.00    +0.001 A 
ATOM     15  C   UNL     1       3.500 -12.505   2.287  0.00  0.00    +0.002 A 
ATOM     16  C   UNL     1       2.388 -11.764   2.095  0.00  0.00    +0.026 A 
ATOM     17  C   UNL     1       2.526 -10.362   1.671  0.00  0.00    +0.043 A 
ATOM     18  N   UNL     1       1.642  -9.438   1.418  0.00  0.00    -0.380 N 
ATOM     19  C   UNL     1       2.333  -8.203   1.034  0.00  0.00    +0.154 C 
ATOM     20  H   UNL     1       0.681  -9.548   1.478  0.00  0.00    +0.160 HD
ENDBRANCH   8  11
ENDBRANCH   4   7
BRANCH   1  21
ATOM     21  C   UNL     1       3.933  -2.379  -0.741  0.00  0.00    +0.107 C 
BRANCH  21  22
ATOM     22  C   UNL     1       2.421  -2.145  -0.763  0.00  0.00    +0.038 C 
BRANCH  22  23
ATOM     23  C   UNL     1       2.135  -0.701  -1.182  0.00  0.00    +0.106 C 
BRANCH  23  24
ATOM     24  N   UNL     1       0.688  -0.476  -1.203  0.00  0.00    -0.330 N 
BRANCH  24  25
ATOM     25  C   UNL     1      -0.038  -0.713  -2.373  0.00  0.00    +0.030 A 
ATOM     26  C   UNL     1       0.609  -1.166  -3.515  0.00  0.00    +0.023 A 
ATOM     27  C   UNL     1      -0.112  -1.399  -4.669  0.00  0.00    +0.002 A 
ATOM     28  C   UNL     1      -1.477  -1.181  -4.689  0.00  0.00    +0.000 A 
ATOM     29  C   UNL     1      -2.125  -0.730  -3.554  0.00  0.00    +0.002 A 
ATOM     30  C   UNL     1      -1.411  -0.500  -2.395  0.00  0.00    +0.023 A 
ENDBRANCH  24  25
BRANCH  24  32
ATOM     31  C   UNL     1      -0.019   1.526   0.010  0.00  0.00    +0.024 C 
ATOM     32  C   UNL     1       0.002  -0.004   0.002  0.00  0.00    +0.102 C 
ENDBRANCH  24  32
ENDBRANCH  23  24
ENDBRANCH  22  23
ENDBRANCH  21  22
ENDBRANCH   1  21
TORSDOF 8
