REMARK  Name = ZINC09332694
REMARK  4 active torsions:
REMARK  status: ('A' for Active; 'I' for Inactive)
REMARK    1  A    between atoms: C_11  and  C_15
REMARK    2  A    between atoms: C_16  and  O_30
REMARK    3  A    between atoms: C_18  and  O_29
REMARK    4  A    between atoms: N_19  and  C_22
REMARK                            x       y       z     vdW  Elec       q    Type
REMARK                         _______ _______ _______ _____ _____    ______ ____
ROOT
ATOM      1  C   UNL     1       4.986  -3.828   0.979  0.00  0.00    +0.071 A 
ATOM      2  C   UNL     1       6.181  -3.357   0.463  0.00  0.00    +0.224 A 
ATOM      3  N   UNL     1       7.085  -2.805   1.279  0.00  0.00    -0.161 NA
ATOM      4  C   UNL     1       6.863  -2.700   2.570  0.00  0.00    +0.306 A 
ATOM      5  N   UNL     1       5.706  -3.147   3.128  0.00  0.00    -0.231 N 
ATOM      6  C   UNL     1       4.754  -3.708   2.354  0.00  0.00    +0.267 A 
ATOM      7  O   UNL     1       3.710  -4.107   2.845  0.00  0.00    -0.267 OA
ENDROOT
BRANCH   1  18
ATOM      8  C   UNL     1      -1.452  -1.653   0.075  0.00  0.00    +0.001 A 
ATOM      9  C   UNL     1      -0.676  -0.506  -0.033  0.00  0.00    +0.002 A 
ATOM     10  C   UNL     1       0.698  -0.590  -0.076  0.00  0.00    +0.026 A 
ATOM     11  C   UNL     1       1.317  -1.834  -0.012  0.00  0.00    +0.047 A 
ATOM     12  C   UNL     1       0.526  -2.995   0.097  0.00  0.00    +0.003 A 
ATOM     13  C   UNL     1      -0.865  -2.884   0.139  0.00  0.00    +0.010 A 
ATOM     14  C   UNL     1       1.463  -4.110   0.139  0.00  0.00    -0.022 A 
ATOM     15  C   UNL     1       2.708  -3.596   0.060  0.00  0.00    +0.011 A 
ATOM     16  N   UNL     1       2.636  -2.236  -0.032  0.00  0.00    -0.359 N 
ATOM     17  H   UNL     1       3.399  -1.642  -0.099  0.00  0.00    +0.166 HD
ATOM     18  C   UNL     1       3.953  -4.452   0.076  0.00  0.00    +0.018 C 
ATOM     19  C   UNL     1       2.445  -6.347  -0.143  0.00  0.00    -0.076 C 
ATOM     20  C   UNL     1       1.171  -5.584   0.247  0.00  0.00    +0.018 C 
ATOM     21  N   UNL     1       3.599  -5.793   0.595  0.00  0.00    +0.388 N 
ATOM     22  H   UNL     1       3.359  -5.717   1.590  0.00  0.00    -0.084 HD
ATOM     23  H   UNL     1       4.404  -6.420   0.484  0.00  0.00    -0.084 HD
ENDBRANCH   1  18
BRANCH   5  24
ATOM     24  C   UNL     1       5.501  -3.019   4.509  0.00  0.00    +0.054 A 
ATOM     25  C   UNL     1       4.903  -1.875   5.020  0.00  0.00    +0.029 A 
ATOM     26  C   UNL     1       4.697  -1.753   6.380  0.00  0.00    +0.040 A 
ATOM     27  C   UNL     1       5.096  -2.766   7.235  0.00  0.00    +0.124 A 
ATOM     28  C   UNL     1       5.696  -3.906   6.728  0.00  0.00    +0.040 A 
ATOM     29  C   UNL     1       5.899  -4.034   5.368  0.00  0.00    +0.029 A 
ATOM     30  F   UNL     1       4.898  -2.643   8.566  0.00  0.00    -0.205 F 
ENDBRANCH   5  24
BRANCH   4  31
ATOM     31  O   UNL     1       7.803  -2.136   3.357  0.00  0.00    -0.479 OA
ATOM     32  H   UNL     1       8.612  -1.830   2.925  0.00  0.00    +0.295 HD
ENDBRANCH   4  31
BRANCH   2  33
ATOM     33  O   UNL     1       6.433  -3.454  -0.864  0.00  0.00    -0.492 OA
ATOM     34  H   UNL     1       7.292  -3.098  -1.128  0.00  0.00    +0.294 HD
ENDBRANCH   2  33
TORSDOF 4
