REMARK  Name = ZINC06746469
REMARK  8 active torsions:
REMARK  status: ('A' for Active; 'I' for Inactive)
REMARK    1  A    between atoms: C_1  and  O_2
REMARK    2  A    between atoms: O_2  and  C_3
REMARK    3  A    between atoms: C_7  and  C_14
REMARK    4  A    between atoms: C_8  and  O_9
REMARK    5  A    between atoms: O_9  and  C_10
REMARK    6  A    between atoms: C_10  and  C_11
REMARK    7  A    between atoms: C_14  and  N_52
REMARK    8  A    between atoms: C_15  and  N_52
REMARK                            x       y       z     vdW  Elec       q    Type
REMARK                         _______ _______ _______ _____ _____    ______ ____
ROOT
ATOM      1  C   UNL     1      -1.598  -2.534  -1.201  0.00  0.00    +0.162 A 
ATOM      2  C   UNL     1      -1.755  -3.911  -1.201  0.00  0.00    +0.049 A 
ATOM      3  C   UNL     1      -1.824  -4.599  -0.004  0.00  0.00    +0.004 A 
ATOM      4  C   UNL     1      -1.731  -3.918   1.195  0.00  0.00    +0.005 A 
ATOM      5  C   UNL     1      -1.569  -2.545   1.203  0.00  0.00    -0.019 A 
ATOM      6  C   UNL     1      -1.498  -1.849   0.006  0.00  0.00    +0.164 A 
ENDROOT
BRANCH   1   8
ATOM      7  C   UNL     1      -1.644  -2.624  -3.577  0.00  0.00    +0.277 C 
ATOM      8  O   UNL     1      -1.535  -1.855  -2.377  0.00  0.00    -0.491 OA
ENDBRANCH   1   8
BRANCH   6   9
ATOM      9  O   UNL     1      -1.339  -0.499   0.012  0.00  0.00    -0.479 OA
BRANCH   9  10
ATOM     10  C   UNL     1       0.002  -0.004   0.002  0.00  0.00    +0.324 C 
BRANCH  10  11
ATOM     11  C   UNL     1      -0.018   1.503   0.010  0.00  0.00    +0.248 C 
ATOM     12  O   UNL     1      -1.077   2.095   0.018  0.00  0.00    -0.272 OA
ATOM     13  N   UNL     1       1.139   2.192   0.003  0.00  0.00    -0.327 N 
ATOM     14  H   UNL     1       1.986   1.719  -0.008  0.00  0.00    +0.145 HD
ATOM     15  H   UNL     1       1.126   3.162   0.008  0.00  0.00    +0.145 HD
ENDBRANCH  10  11
ENDBRANCH   9  10
ENDBRANCH   6   9
BRANCH   5  16
ATOM     16  C   UNL     1      -1.467  -1.806   2.512  0.00  0.00    -0.042 C 
BRANCH  16  17
ATOM     17  N   UNL     1      -2.774  -1.198   2.826  0.00  0.00    +0.386 N 
ATOM     18  H   UNL     1      -3.483  -1.937   2.897  0.00  0.00    -0.085 HD
ATOM     19  H   UNL     1      -3.033  -0.546   2.076  0.00  0.00    -0.085 HD
BRANCH  17  20
ATOM     20  C   UNL     1      -2.704  -0.466   4.105  0.00  0.00    -0.067 C 
ATOM     21  C   UNL     1      -1.654   0.642   4.006  0.00  0.00    -0.009 C 
ATOM     22  C   UNL     1      -1.590   1.403   5.332  0.00  0.00    -0.012 C 
ATOM     23  C   UNL     1      -2.957   2.022   5.631  0.00  0.00    +0.007 C 
ATOM     24  C   UNL     1      -4.008   0.914   5.729  0.00  0.00    -0.012 C 
ATOM     25  C   UNL     1      -4.072   0.152   4.404  0.00  0.00    -0.009 C 
ATOM     26  C   UNL     1      -3.628  -0.051   6.854  0.00  0.00    +0.007 C 
ATOM     27  C   UNL     1      -2.260  -0.670   6.555  0.00  0.00    -0.012 C 
ATOM     28  C   UNL     1      -1.210   0.439   6.457  0.00  0.00    +0.007 C 
ATOM     29  C   UNL     1      -2.324  -1.431   5.229  0.00  0.00    -0.009 C 
ENDBRANCH  17  20
ENDBRANCH  16  17
ENDBRANCH   5  16
TORSDOF 7
