REMARK  Name = ZINC19833802
REMARK  3 active torsions:
REMARK  status: ('A' for Active; 'I' for Inactive)
REMARK    1  A    between atoms: C_15  and  C_17
REMARK    2  A    between atoms: N_26  and  C_27
REMARK    3  A    between atoms: C_27  and  C_28
REMARK                            x       y       z     vdW  Elec       q    Type
REMARK                         _______ _______ _______ _____ _____    ______ ____
ROOT
ATOM      1  C   UNL     1      -3.616  -0.187   3.605  0.00  0.00    +0.001 A 
ATOM      2  C   UNL     1      -3.215  -0.904   2.489  0.00  0.00    +0.002 A 
ATOM      3  C   UNL     1      -2.260  -0.395   1.631  0.00  0.00    +0.024 A 
ATOM      4  C   UNL     1      -1.689   0.847   1.880  0.00  0.00    +0.045 A 
ATOM      5  C   UNL     1      -2.097   1.571   3.010  0.00  0.00    +0.010 A 
ATOM      6  C   UNL     1      -3.061   1.048   3.870  0.00  0.00    +0.010 A 
ATOM      7  C   UNL     1      -1.324   2.829   3.003  0.00  0.00    +0.065 C 
ATOM      8  C   UNL     1      -1.386   3.859   3.922  0.00  0.00    +0.095 A 
ATOM      9  C   UNL     1      -2.335   4.070   5.041  0.00  0.00    +0.288 A 
ATOM     10  O   UNL     1      -3.227   3.278   5.270  0.00  0.00    -0.265 OA
ATOM     11  N   UNL     1      -2.167   5.167   5.793  0.00  0.00    -0.169 N 
ATOM     12  C   UNL     1      -1.153   6.029   5.490  0.00  0.00    +0.200 A 
ATOM     13  S   UNL     1      -0.348   5.305   4.080  0.00  0.00    -0.044 S 
ATOM     14  N   UNL     1      -1.160   7.027   6.327  0.00  0.00    -0.200 NA
ATOM     15  C   UNL     1      -2.165   6.864   7.202  0.00  0.00    +0.183 A 
ATOM     16  N   UNL     1      -2.803   5.755   6.922  0.00  0.00    -0.141 NA
ATOM     17  C   UNL     1      -0.466   2.745   1.802  0.00  0.00    +0.253 C 
ATOM     18  O   UNL     1       0.332   3.585   1.432  0.00  0.00    -0.270 OA
ATOM     19  N   UNL     1      -0.727   1.577   1.191  0.00  0.00    -0.258 N 
ENDROOT
BRANCH  15  20
ATOM     20  C   UNL     1      -2.500   7.792   8.310  0.00  0.00    +0.021 A 
ATOM     21  C   UNL     1      -3.575   7.516   9.152  0.00  0.00    +0.013 A 
ATOM     22  C   UNL     1      -3.879   8.380  10.185  0.00  0.00    +0.021 A 
ATOM     23  C   UNL     1      -3.125   9.525  10.377  0.00  0.00    +0.041 A 
ATOM     24  C   UNL     1      -2.059   9.806   9.540  0.00  0.00    +0.021 A 
ATOM     25  C   UNL     1      -1.744   8.946   8.508  0.00  0.00    +0.013 A 
ATOM     26 CL   UNL     1      -3.516  10.611  11.674  0.00  0.00    -0.084 Cl
ENDBRANCH  15  20
BRANCH  19  27
ATOM     27  C   UNL     1      -0.075   1.126  -0.041  0.00  0.00    +0.209 C 
BRANCH  27  28
ATOM     28  C   UNL     1      -0.872   1.594  -1.231  0.00  0.00    +0.228 C 
ATOM     29  O   UNL     1      -1.885   2.240  -1.067  0.00  0.00    -0.274 OA
ATOM     30  N   UNL     1      -0.460   1.294  -2.479  0.00  0.00    -0.328 N 
ATOM     31  H   UNL     1      -1.042   1.635  -3.348  0.00  0.00    +0.145 HD
ATOM     32  H   UNL     1       0.459   0.708  -2.628  0.00  0.00    +0.145 HD
ENDBRANCH  27  28
ENDBRANCH  19  27
TORSDOF 3
