REMARK  Name = ZINC43252449
REMARK  8 active torsions:
REMARK  status: ('A' for Active; 'I' for Inactive)
REMARK    1  A    between atoms: C_1  and  C_2
REMARK    2  A    between atoms: C_2  and  C_4
REMARK    3  A    between atoms: C_2  and  N_18
REMARK    4  A    between atoms: C_4  and  C_6
REMARK    5  A    between atoms: C_4  and  N_12
REMARK    6  A    between atoms: N_12  and  C_13
REMARK    7  A    between atoms: N_12  and  C_14
REMARK    8  A    between atoms: C_14  and  C_15
REMARK                            x       y       z     vdW  Elec       q    Type
REMARK                         _______ _______ _______ _____ _____    ______ ____
ROOT
ATOM      1  C   UNL     1       0.643  -0.615   1.225  0.00  0.00    +0.079 C 
ENDROOT
BRANCH   1   2
ATOM      2  C   UNL     1       0.940  -2.092   1.259  0.00  0.00    +0.007 A 
ATOM      3  C   UNL     1       2.067  -2.745   0.886  0.00  0.00    +0.014 A 
ATOM      4  C   UNL     1       2.116  -4.122   1.007  0.00  0.00    +0.028 A 
ATOM      5  C   UNL     1       1.033  -4.778   1.495  0.00  0.00    +0.078 A 
ATOM      6  S   UNL     1      -0.101  -3.435   1.809  0.00  0.00    -0.080 S 
ATOM      7 CL   UNL     1       0.811  -6.480   1.754  0.00  0.00    -0.076 Cl
ENDBRANCH   1   2
BRANCH   1   9
ATOM      8  C   UNL     1       0.556  -0.699  -1.271  0.00  0.00    -0.012 C 
ATOM      9  C   UNL     1      -0.205  -0.294  -0.007  0.00  0.00    -0.056 C 
BRANCH   9  10
ATOM     10  N   UNL     1      -1.470  -1.038   0.061  0.00  0.00    +0.381 N 
ATOM     11  H   UNL     1      -1.277  -2.028   0.088  0.00  0.00    -0.090 HD
ATOM     12  H   UNL     1      -1.972  -0.771   0.895  0.00  0.00    -0.090 HD
ATOM     13  H   UNL     1      -2.030  -0.826  -0.751  0.00  0.00    -0.090 HD
ENDBRANCH   9  10
ENDBRANCH   1   9
BRANCH   1  14
ATOM     14  N   UNL     1      -0.092  -0.235   2.438  0.00  0.00    -0.291 NA
ATOM     15  C   UNL     1       0.608  -0.697   3.644  0.00  0.00    +0.106 C 
BRANCH  14  16
ATOM     16  C   UNL     1      -0.318   1.216   2.484  0.00  0.00    +0.180 C 
BRANCH  16  17
ATOM     17  C   UNL     1      -1.389   1.526   3.498  0.00  0.00    +0.225 C 
ATOM     18  O   UNL     1      -1.912   0.627   4.122  0.00  0.00    -0.275 OA
ATOM     19  N   UNL     1      -1.764   2.802   3.713  0.00  0.00    -0.328 N 
ATOM     20  H   UNL     1      -1.345   3.521   3.214  0.00  0.00    +0.145 HD
ATOM     21  H   UNL     1      -2.453   3.002   4.366  0.00  0.00    +0.145 HD
ENDBRANCH  16  17
ENDBRANCH  14  16
ENDBRANCH   1  14
TORSDOF 6
