REMARK  Name = ZINC48246622
REMARK  9 active torsions:
REMARK  status: ('A' for Active; 'I' for Inactive)
REMARK    1  A    between atoms: C_1  and  N_2
REMARK    2  A    between atoms: C_6  and  C_7
REMARK    3  A    between atoms: C_7  and  C_8
REMARK    4  A    between atoms: C_7  and  N_15
REMARK    5  A    between atoms: N_18  and  C_19
REMARK    6  A    between atoms: C_19  and  C_20
REMARK    7  A    between atoms: C_25  and  N_26
REMARK    8  A    between atoms: N_26  and  C_27
REMARK    9  A    between atoms: N_26  and  C_28
REMARK                            x       y       z     vdW  Elec       q    Type
REMARK                         _______ _______ _______ _____ _____    ______ ____
ROOT
ATOM      1  N   UNL     1       1.371  -0.504   3.075  0.00  0.00    -0.286 N 
ATOM      2  C   UNL     1       2.705  -0.318   3.079  0.00  0.00    +0.301 C 
ATOM      3  O   UNL     1       3.197   0.565   2.403  0.00  0.00    -0.253 OA
ATOM      4  N   UNL     1       3.494  -1.110   3.831  0.00  0.00    -0.295 N 
ATOM      5  H   UNL     1       0.978  -1.208   3.615  0.00  0.00    +0.151 HD
ATOM      6  H   UNL     1       3.102  -1.814   4.370  0.00  0.00    +0.151 HD
ENDROOT
BRANCH   1   7
ATOM      7  C   UNL     1       0.513   0.357   2.258  0.00  0.00    +0.171 C 
BRANCH   7   8
ATOM      8  C   UNL     1      -0.873   0.393   2.849  0.00  0.00    -0.020 A 
ATOM      9  C   UNL     1      -1.433  -0.761   3.365  0.00  0.00    +0.009 A 
ATOM     10  C   UNL     1      -2.704  -0.730   3.908  0.00  0.00    +0.038 A 
ATOM     11  C   UNL     1      -3.416   0.457   3.934  0.00  0.00    +0.123 A 
ATOM     12  C   UNL     1      -2.854   1.612   3.417  0.00  0.00    +0.038 A 
ATOM     13  C   UNL     1      -1.581   1.580   2.880  0.00  0.00    +0.009 A 
ATOM     14  F   UNL     1      -4.658   0.489   4.464  0.00  0.00    -0.205 F 
ENDBRANCH   7   8
BRANCH   7  20
ATOM     15  C   UNL     1       0.765   1.988  -0.364  0.00  0.00    +0.150 C 
ATOM     16  N   UNL     1       0.558   0.541  -0.278  0.00  0.00    -0.336 N 
ATOM     17  C   UNL     1       0.449  -0.328  -1.330  0.00  0.00    +0.106 A 
ATOM     18  C   UNL     1       0.268  -1.555  -0.805  0.00  0.00    +0.130 A 
ATOM     19  N   UNL     1       0.268  -1.438   0.531  0.00  0.00    -0.238 NA
ATOM     20  C   UNL     1       0.446  -0.187   0.854  0.00  0.00    +0.134 A 
ENDBRANCH   7  20
ENDBRANCH   1   7
BRANCH   4  21
ATOM     21  C   UNL     1       4.946  -0.907   3.834  0.00  0.00    +0.144 C 
BRANCH  21  22
ATOM     22  C   UNL     1       5.591  -1.916   4.749  0.00  0.00    +0.008 A 
ATOM     23  C   UNL     1       6.015  -1.546   6.013  0.00  0.00    +0.010 A 
ATOM     24  C   UNL     1       6.605  -2.507   6.822  0.00  0.00    +0.018 A 
ATOM     25  C   UNL     1       6.750  -3.795   6.346  0.00  0.00    +0.084 A 
ATOM     26  N   UNL     1       6.337  -4.120   5.136  0.00  0.00    -0.349 N 
ATOM     27  C   UNL     1       5.764  -3.233   4.336  0.00  0.00    +0.103 A 
ATOM     28  H   UNL     1       6.452  -5.032   4.825  0.00  0.00    +0.167 HD
BRANCH  27  29
ATOM     29  N   UNL     1       5.338  -3.620   3.071  0.00  0.00    -0.323 N 
ATOM     30  C   UNL     1       6.227  -3.459   1.918  0.00  0.00    +0.130 C 
ATOM     31  C   UNL     1       4.000  -4.189   2.891  0.00  0.00    +0.130 C 
ENDBRANCH  27  29
ENDBRANCH  21  22
ENDBRANCH   4  21
TORSDOF 6
