REMARK  Name = ZINC12210306
REMARK  8 active torsions:
REMARK  status: ('A' for Active; 'I' for Inactive)
REMARK    1  A    between atoms: C_4  and  C_7
REMARK    2  A    between atoms: C_8  and  C_9
REMARK    3  A    between atoms: C_9  and  N_59
REMARK    4  A    between atoms: C_15  and  C_17
REMARK    5  A    between atoms: C_17  and  C_18
REMARK    6  A    between atoms: N_20  and  C_21
REMARK    7  A    between atoms: C_21  and  C_22
REMARK    8  A    between atoms: C_22  and  O_28
REMARK                            x       y       z     vdW  Elec       q    Type
REMARK                         _______ _______ _______ _____ _____    ______ ____
ROOT
ATOM      1  C   UNL     1       0.746  -1.375   1.083  0.00  0.00    -0.058 C 
ATOM      2  C   UNL     1       0.467  -2.874   0.958  0.00  0.00    +0.085 C 
ATOM      3  N   UNL     1      -0.973  -3.117   0.965  0.00  0.00    -0.318 N 
ATOM      4  C   UNL     1      -1.873  -2.160   0.715  0.00  0.00    +0.200 C 
ATOM      5  O   UNL     1      -3.049  -2.455   0.711  0.00  0.00    -0.278 OA
ATOM      6  C   UNL     1      -1.488  -0.734   0.439  0.00  0.00    +0.028 C 
ATOM      7  H   UNL     1      -1.291  -4.012   1.160  0.00  0.00    +0.149 HD
ATOM      8  N   UNL     1      -0.062  -0.673   0.066  0.00  0.00    +0.391 N 
ATOM      9  H   UNL     1       0.067  -1.134  -0.843  0.00  0.00    -0.080 HD
ENDROOT
BRANCH   8  10
ATOM     10  C   UNL     1       0.373   0.738  -0.043  0.00  0.00    -0.050 C 
BRANCH  10  12
ATOM     11  C   UNL     1       2.317   1.421  -1.379  0.00  0.00    +0.002 C 
ATOM     12  C   UNL     1       1.855   0.778  -0.316  0.00  0.00    -0.045 C 
BRANCH  11  16
ATOM     13  C   UNL     1       6.492   1.533  -2.146  0.00  0.00    +0.000 A 
ATOM     14  C   UNL     1       5.617   2.169  -3.007  0.00  0.00    +0.001 A 
ATOM     15  C   UNL     1       4.259   2.136  -2.764  0.00  0.00    +0.008 A 
ATOM     16  C   UNL     1       3.770   1.460  -1.646  0.00  0.00    -0.025 A 
ATOM     17  C   UNL     1       4.659   0.825  -0.778  0.00  0.00    +0.008 A 
ATOM     18  C   UNL     1       6.014   0.860  -1.036  0.00  0.00    +0.001 A 
ENDBRANCH  11  16
ENDBRANCH  10  12
ENDBRANCH   8  10
BRANCH   6  19
ATOM     19  C   UNL     1      -2.329  -0.196  -0.720  0.00  0.00    +0.089 C 
BRANCH  19  20
ATOM     20  C   UNL     1      -2.023  -0.981  -1.970  0.00  0.00    +0.212 C 
ATOM     21  O   UNL     1      -1.142  -1.815  -1.962  0.00  0.00    -0.276 OA
ATOM     22  N   UNL     1      -2.728  -0.758  -3.096  0.00  0.00    -0.313 N 
ATOM     23  H   UNL     1      -3.433  -0.091  -3.103  0.00  0.00    +0.149 HD
BRANCH  22  24
ATOM     24  C   UNL     1      -2.431  -1.521  -4.311  0.00  0.00    +0.138 C 
BRANCH  24  25
ATOM     25  C   UNL     1      -3.368  -1.076  -5.435  0.00  0.00    +0.081 C 
ATOM     26  C   UNL     1      -4.820  -1.209  -4.971  0.00  0.00    +0.036 C 
ATOM     27  C   UNL     1      -5.758  -0.765  -6.095  0.00  0.00    +0.003 C 
ATOM     28  C   UNL     1      -5.533  -1.646  -7.325  0.00  0.00    +0.000 C 
ATOM     29  C   UNL     1      -4.081  -1.513  -7.789  0.00  0.00    +0.003 C 
ATOM     30  C   UNL     1      -3.143  -1.958  -6.665  0.00  0.00    +0.036 C 
BRANCH  25  31
ATOM     31  O   UNL     1      -3.098   0.286  -5.769  0.00  0.00    -0.387 OA
ATOM     32  H   UNL     1      -3.221   0.903  -5.035  0.00  0.00    +0.210 HD
ENDBRANCH  25  31
ENDBRANCH  24  25
ENDBRANCH  22  24
ENDBRANCH  19  20
ENDBRANCH   6  19
TORSDOF 8
