REMARK  Name = ZINC36288410
REMARK  7 active torsions:
REMARK  status: ('A' for Active; 'I' for Inactive)
REMARK    1  A    between atoms: C_1  and  C_2
REMARK    2  A    between atoms: C_2  and  S_3
REMARK    3  A    between atoms: S_3  and  N_6
REMARK    4  A    between atoms: C_9  and  C_13
REMARK    5  A    between atoms: C_10  and  C_12
REMARK    6  A    between atoms: C_16  and  C_18
REMARK    7  A    between atoms: C_18  and  N_19
REMARK                            x       y       z     vdW  Elec       q    Type
REMARK                         _______ _______ _______ _____ _____    ______ ____
ROOT
ATOM      1  N   UNL     1       0.808  -2.241  -1.384  0.00  0.00    -0.108 NA
ATOM      2  C   UNL     1       1.349  -2.972  -2.327  0.00  0.00    +0.192 A 
ATOM      3  N   UNL     1       1.417  -4.344  -2.434  0.00  0.00    -0.332 N 
ATOM      4  C   UNL     1       2.041  -4.886  -3.527  0.00  0.00    +0.065 A 
ATOM      5  C   UNL     1       2.570  -4.071  -4.465  0.00  0.00    +0.015 A 
ATOM      6  S   UNL     1       2.184  -2.453  -3.818  0.00  0.00    -0.053 S 
ATOM      7  C   UNL     1       3.295  -4.435  -5.735  0.00  0.00    +0.054 C 
ATOM      8  H   UNL     1       1.031  -4.914  -1.750  0.00  0.00    +0.168 HD
ENDROOT
BRANCH   4   9
ATOM      9  C   UNL     1       2.135  -6.349  -3.677  0.00  0.00    +0.036 A 
ATOM     10  C   UNL     1       1.664  -7.335  -2.849  0.00  0.00    +0.018 A 
ATOM     11  C   UNL     1       1.873  -8.651  -3.202  0.00  0.00    +0.010 A 
ATOM     12  C   UNL     1       2.537  -8.930  -4.353  0.00  0.00    -0.027 A 
ATOM     13  S   UNL     1       2.887  -7.299  -4.989  0.00  0.00    -0.094 S 
BRANCH  12  14
ATOM     14  C   UNL     1       2.884 -10.272  -4.944  0.00  0.00    -0.043 C 
BRANCH  14  15
ATOM     15  N   UNL     1       1.797 -10.714  -5.827  0.00  0.00    +0.381 N 
ATOM     16  H   UNL     1       0.943 -10.792  -5.295  0.00  0.00    -0.090 HD
ATOM     17  H   UNL     1       1.671 -10.042  -6.569  0.00  0.00    -0.090 HD
ATOM     18  H   UNL     1       2.029 -11.613  -6.223  0.00  0.00    -0.090 HD
ENDBRANCH  14  15
ENDBRANCH  12  14
ENDBRANCH   4   9
BRANCH   1  19
ATOM     19  S   UNL     1       0.851  -0.589  -1.490  0.00  0.00    +0.071 S 
ATOM     20  O   UNL     1       0.082  -0.280  -2.644  0.00  0.00    -0.152 OA
ATOM     21  O   UNL     1       2.232  -0.257  -1.430  0.00  0.00    -0.152 OA
BRANCH  19  23
ATOM     22  C   UNL     1      -0.019   1.526   0.010  0.00  0.00    +0.030 C 
ATOM     23  C   UNL     1       0.002  -0.004   0.002  0.00  0.00    +0.189 C 
ENDBRANCH  19  23
ENDBRANCH   1  19
TORSDOF 5
