REMARK  Name = ZINC44535182
REMARK  8 active torsions:
REMARK  status: ('A' for Active; 'I' for Inactive)
REMARK    1  A    between atoms: C_1  and  C_2
REMARK    2  A    between atoms: C_2  and  C_3
REMARK    3  A    between atoms: C_2  and  C_4
REMARK    4  A    between atoms: C_2  and  C_5
REMARK    5  A    between atoms: C_8  and  N_11
REMARK    6  A    between atoms: N_11  and  C_12
REMARK    7  A    between atoms: C_12  and  C_13
REMARK    8  A    between atoms: N_18  and  C_20
REMARK                            x       y       z     vdW  Elec       q    Type
REMARK                         _______ _______ _______ _____ _____    ______ ____
ROOT
ATOM      1  N   UNL     1       3.601  -2.478  -1.345  0.00  0.00    +0.381 N 
ATOM      2  H   UNL     1       3.178  -2.086  -0.517  0.00  0.00    -0.086 HD
ATOM      3  H   UNL     1       3.544  -3.485  -1.307  0.00  0.00    -0.086 HD
ENDROOT
BRANCH   1   7
ATOM      4  C   UNL     1       0.718  -0.497  -1.257  0.00  0.00    -0.006 C 
ATOM      5  C   UNL     1       0.739  -2.027  -1.265  0.00  0.00    +0.002 C 
ATOM      6  C   UNL     1       1.455  -2.521  -2.524  0.00  0.00    -0.015 C 
ATOM      7  C   UNL     1       2.890  -1.991  -2.535  0.00  0.00    -0.072 C 
ATOM      8  C   UNL     1       2.870  -0.461  -2.526  0.00  0.00    -0.015 C 
ATOM      9  C   UNL     1       2.154   0.032  -1.268  0.00  0.00    +0.002 C 
BRANCH   4  11
ATOM     10  C   UNL     1      -0.019   1.526   0.010  0.00  0.00    +0.011 C 
ATOM     11  C   UNL     1       0.002  -0.004   0.002  0.00  0.00    -0.035 C 
ATOM     12  C   UNL     1       0.742  -0.511   1.242  0.00  0.00    +0.011 C 
ATOM     13  C   UNL     1      -1.433  -0.534   0.013  0.00  0.00    +0.011 C 
ENDBRANCH   4  11
ENDBRANCH   1   7
BRANCH   1  14
ATOM     14  C   UNL     1       5.010  -2.070  -1.415  0.00  0.00    -0.081 C 
BRANCH  14  15
ATOM     15  C   UNL     1       5.750  -2.576  -0.175  0.00  0.00    -0.045 C 
ATOM     16  C   UNL     1       5.774  -4.108  -0.184  0.00  0.00    -0.002 C 
ATOM     17  C   UNL     1       6.583  -4.603   1.018  0.00  0.00    -0.018 C 
ATOM     18  C   UNL     1       7.989  -4.001   0.962  0.00  0.00    -0.079 C 
ATOM     19  N   UNL     1       7.900  -2.537   1.000  0.00  0.00    +0.378 N 
ATOM     20  C   UNL     1       7.187  -2.049  -0.186  0.00  0.00    -0.078 C 
ATOM     21  C   UNL     1       9.254  -1.966   1.025  0.00  0.00    -0.096 C 
ATOM     22  H   UNL     1       7.402  -2.252   1.830  0.00  0.00    -0.082 HD
ENDBRANCH  14  15
ENDBRANCH   1  14
TORSDOF 4
