REMARK  Name = ZINC23186682
REMARK  6 active torsions:
REMARK  status: ('A' for Active; 'I' for Inactive)
REMARK    1  A    between atoms: C_7  and  N_30
REMARK    2  A    between atoms: C_9  and  C_11
REMARK    3  A    between atoms: C_11  and  N_12
REMARK    4  A    between atoms: N_15  and  C_18
REMARK    5  A    between atoms: C_19  and  C_28
REMARK    6  A    between atoms: C_21  and  C_23
REMARK                            x       y       z     vdW  Elec       q    Type
REMARK                         _______ _______ _______ _____ _____    ______ ____
ROOT
ATOM      1  N   UNL     1       1.024   4.004   1.399  0.00  0.00    +0.386 N 
ATOM      2  C   UNL     1      -0.207   3.595   2.090  0.00  0.00    -0.059 C 
ATOM      3  C   UNL     1      -0.143   4.046   3.550  0.00  0.00    +0.089 C 
ATOM      4  N   UNL     1       0.026   5.505   3.603  0.00  0.00    -0.303 N 
ATOM      5  C   UNL     1       1.257   5.915   2.912  0.00  0.00    +0.089 C 
ATOM      6  C   UNL     1       1.193   5.463   1.451  0.00  0.00    -0.059 C 
ATOM      7  H   UNL     1       1.876   3.545   1.921  0.00  0.00    -0.081 HD
ENDROOT
BRANCH   4   8
ATOM      8  C   UNL     1       0.017   5.957   4.904  0.00  0.00    +0.227 A 
ATOM      9  C   UNL     1      -0.984   5.756   5.843  0.00  0.00    +0.201 A 
ATOM     10  N   UNL     1      -0.583   6.369   6.988  0.00  0.00    -0.194 NA
ATOM     11  C   UNL     1       0.589   6.917   6.780  0.00  0.00    +0.266 A 
ATOM     12  O   UNL     1       0.980   6.674   5.513  0.00  0.00    -0.417 OA
BRANCH  11  13
ATOM     13  C   UNL     1       1.361   7.674   7.775  0.00  0.00    +0.189 A 
ATOM     14  C   UNL     1       0.982   7.925   9.060  0.00  0.00    +0.055 A 
ATOM     15  C   UNL     1       2.016   8.678   9.648  0.00  0.00    +0.042 A 
ATOM     16  C   UNL     1       2.965   8.850   8.706  0.00  0.00    +0.196 A 
ATOM     17  O   UNL     1       2.570   8.238   7.578  0.00  0.00    -0.458 OA
ENDBRANCH  11  13
BRANCH   9  18
ATOM     18  C   UNL     1      -2.208   5.038   5.644  0.00  0.00    +0.124 C 
ATOM     19  N   UNL     1      -3.178   4.469   5.486  0.00  0.00    -0.189 NA
ENDBRANCH   9  18
ENDBRANCH   4   8
BRANCH   1  20
ATOM     20  C   UNL     1       1.034   3.523   0.011  0.00  0.00    -0.003 C 
BRANCH  20  29
ATOM     21  C   UNL     1       0.130  -2.774  -0.015  0.00  0.00    +0.001 A 
ATOM     22  C   UNL     1      -1.101  -2.124   0.000  0.00  0.00    +0.002 A 
ATOM     23  C   UNL     1      -1.176  -0.763   0.009  0.00  0.00    +0.026 A 
ATOM     24  C   UNL     1       0.002  -0.004   0.002  0.00  0.00    +0.051 A 
ATOM     25  C   UNL     1       1.253  -0.667  -0.013  0.00  0.00    +0.038 A 
ATOM     26  C   UNL     1       1.296  -2.066  -0.023  0.00  0.00    +0.013 A 
ATOM     27  C   UNL     1       2.429   0.122  -0.020  0.00  0.00    +0.127 A 
ATOM     28  N   UNL     1       2.297   1.442  -0.012  0.00  0.00    -0.221 NA
ATOM     29  C   UNL     1       1.106   2.017   0.002  0.00  0.00    +0.093 A 
ATOM     30  N   UNL     1      -0.016   1.337   0.009  0.00  0.00    -0.344 N 
ATOM     31  H   UNL     1      -0.976   1.874   0.021  0.00  0.00    +0.167 HD
BRANCH  27  32
ATOM     32  N   UNL     1       3.676  -0.465  -0.035  0.00  0.00    -0.343 N 
ATOM     33  H   UNL     1       4.579   0.163  -0.040  0.00  0.00    +0.144 HD
ATOM     34  H   UNL     1       3.768  -1.561  -0.041  0.00  0.00    +0.144 HD
ENDBRANCH  27  32
ENDBRANCH  20  29
ENDBRANCH   1  20
TORSDOF 6
