REMARK  Name = ZINC40047554
REMARK  10 active torsions:
REMARK  status: ('A' for Active; 'I' for Inactive)
REMARK    1  A    between atoms: C_1  and  O_2
REMARK    2  A    between atoms: O_2  and  C_3
REMARK    3  A    between atoms: C_5  and  C_11
REMARK    4  A    between atoms: C_8  and  O_9
REMARK    5  A    between atoms: C_13  and  C_23
REMARK    6  A    between atoms: N_17  and  C_18
REMARK    7  A    between atoms: C_18  and  C_19
REMARK    8  A    between atoms: C_19  and  C_20
REMARK    9  A    between atoms: C_20  and  O_21
REMARK   10  A    between atoms: C_23  and  C_25
REMARK                            x       y       z     vdW  Elec       q    Type
REMARK                         _______ _______ _______ _____ _____    ______ ____
ROOT
ATOM      1  C   UNL     1       2.635   0.232   4.021  0.00  0.00    +0.145 C 
ATOM      2  C   UNL     1       4.082   0.591   3.774  0.00  0.00    +0.076 C 
ATOM      3  C   UNL     1       4.788   0.110   4.824  0.00  0.00    +0.249 C 
ATOM      4  C   UNL     1       3.865  -0.557   5.765  0.00  0.00    +0.288 C 
ATOM      5  O   UNL     1       4.194  -1.090   6.806  0.00  0.00    -0.266 OA
ATOM      6  N   UNL     1       2.603  -0.488   5.299  0.00  0.00    -0.283 N 
ATOM      7  O   UNL     1       6.127   0.223   4.986  0.00  0.00    -0.282 OA
ENDROOT
BRANCH   1  10
ATOM      8  C   UNL     1       0.702  -0.991   1.014  0.00  0.00    +0.163 A 
ATOM      9  C   UNL     1       1.172  -0.178   2.033  0.00  0.00    +0.055 A 
ATOM     10  C   UNL     1       2.125  -0.654   2.914  0.00  0.00    -0.018 A 
ATOM     11  C   UNL     1       2.612  -1.941   2.781  0.00  0.00    +0.025 A 
ATOM     12  C   UNL     1       2.147  -2.758   1.766  0.00  0.00    +0.063 A 
ATOM     13  C   UNL     1       1.187  -2.289   0.884  0.00  0.00    +0.173 A 
ATOM     14 BR   UNL     1       2.817  -4.518   1.587  0.00  0.00    -0.046 Br
BRANCH   8  16
ATOM     15  C   UNL     1      -0.608   0.850   0.272  0.00  0.00    +0.277 C 
ATOM     16  O   UNL     1      -0.236  -0.524   0.147  0.00  0.00    -0.491 OA
ENDBRANCH   8  16
BRANCH  13  17
ATOM     17  O   UNL     1       0.724  -3.093  -0.111  0.00  0.00    -0.503 OA
ATOM     18  H   UNL     1       1.230  -3.032  -0.933  0.00  0.00    +0.292 HD
ENDBRANCH  13  17
ENDBRANCH   1  10
BRANCH   2  19
ATOM     19  C   UNL     1       4.618   1.318   2.619  0.00  0.00    +0.195 C 
ATOM     20  O   UNL     1       5.450   0.794   1.902  0.00  0.00    -0.287 OA
BRANCH  19  21
ATOM     21  C   UNL     1       4.149   2.689   2.327  0.00  0.00    +0.022 A 
ATOM     22  C   UNL     1       3.290   3.340   3.215  0.00  0.00    +0.013 A 
ATOM     23  C   UNL     1       2.856   4.619   2.936  0.00  0.00    +0.021 A 
ATOM     24  C   UNL     1       3.269   5.257   1.778  0.00  0.00    +0.041 A 
ATOM     25  C   UNL     1       4.122   4.616   0.894  0.00  0.00    +0.021 A 
ATOM     26  C   UNL     1       4.567   3.340   1.164  0.00  0.00    +0.013 A 
ATOM     27 CL   UNL     1       2.718   6.867   1.434  0.00  0.00    -0.084 Cl
ENDBRANCH  19  21
ENDBRANCH   2  19
BRANCH   6  28
ATOM     28  C   UNL     1       1.410  -1.033   5.951  0.00  0.00    +0.111 C 
BRANCH  28  29
ATOM     29  C   UNL     1       1.184  -2.471   5.480  0.00  0.00    +0.047 C 
BRANCH  29  30
ATOM     30  C   UNL     1      -0.062  -3.041   6.161  0.00  0.00    +0.157 C 
BRANCH  30  31
ATOM     31  O   UNL     1      -0.273  -4.384   5.721  0.00  0.00    -0.395 OA
ATOM     32  H   UNL     1      -1.048  -4.809   6.113  0.00  0.00    +0.209 HD
ENDBRANCH  30  31
ENDBRANCH  29  30
ENDBRANCH  28  29
ENDBRANCH   6  28
TORSDOF 9
