REMARK  Name = ZINC66466248
REMARK  5 active torsions:
REMARK  status: ('A' for Active; 'I' for Inactive)
REMARK    1  A    between atoms: C_1  and  C_2
REMARK    2  A    between atoms: C_2  and  C_9
REMARK    3  A    between atoms: C_12  and  C_15
REMARK    4  A    between atoms: C_15  and  N_16
REMARK    5  A    between atoms: C_22  and  N_26
REMARK                            x       y       z     vdW  Elec       q    Type
REMARK                         _______ _______ _______ _____ _____    ______ ____
ROOT
ATOM      1  C   UNL     1       0.657  -0.517  -1.255  0.00  0.00    -0.016 A 
ATOM      2  C   UNL     1       1.778  -1.322  -1.171  0.00  0.00    +0.006 A 
ATOM      3  C   UNL     1       2.378  -1.792  -2.324  0.00  0.00    +0.005 A 
ATOM      4  C   UNL     1       1.858  -1.458  -3.560  0.00  0.00    -0.030 A 
ATOM      5  C   UNL     1       0.737  -0.654  -3.644  0.00  0.00    +0.005 A 
ATOM      6  C   UNL     1       0.134  -0.187  -2.491  0.00  0.00    +0.006 A 
ENDROOT
BRANCH   1   8
ATOM      7  C   UNL     1      -0.019   1.526   0.010  0.00  0.00    +0.047 C 
ATOM      8  C   UNL     1       0.002  -0.004   0.002  0.00  0.00    +0.135 C 
ATOM      9  C   UNL     1      -1.403  -0.557   0.139  0.00  0.00    +0.248 C 
ATOM     10  O   UNL     1      -2.332  -0.392  -0.621  0.00  0.00    -0.273 OA
ATOM     11  N   UNL     1      -1.403  -1.272   1.282  0.00  0.00    -0.238 N 
ATOM     12  C   UNL     1      -0.206  -1.247   1.879  0.00  0.00    +0.307 C 
ATOM     13  O   UNL     1       0.040  -1.819   2.924  0.00  0.00    -0.252 OA
ATOM     14  N   UNL     1       0.695  -0.520   1.195  0.00  0.00    -0.282 N 
ATOM     15  H   UNL     1      -2.175  -1.745   1.629  0.00  0.00    +0.159 HD
ATOM     16  H   UNL     1       1.621  -0.365   1.440  0.00  0.00    +0.152 HD
ENDBRANCH   1   8
BRANCH   4  17
ATOM     17  C   UNL     1       2.514  -1.970  -4.817  0.00  0.00    +0.138 C 
BRANCH  17  18
ATOM     18  N   UNL     1       1.920  -3.257  -5.187  0.00  0.00    -0.319 N 
ATOM     19  C   UNL     1       2.363  -3.923  -6.312  0.00  0.00    +0.159 A 
ATOM     20  N   UNL     1       3.300  -3.570  -7.163  0.00  0.00    -0.225 NA
ATOM     21  C   UNL     1       3.633  -4.329  -8.231  0.00  0.00    +0.080 A 
ATOM     22  C   UNL     1       4.613  -4.067  -9.215  0.00  0.00    +0.031 A 
ATOM     23  C   UNL     1       4.827  -4.948 -10.243  0.00  0.00    +0.035 A 
ATOM     24  C   UNL     1       4.094  -6.121 -10.355  0.00  0.00    +0.127 A 
ATOM     25  C   UNL     1       3.127  -6.409  -9.410  0.00  0.00    +0.050 A 
ATOM     26  C   UNL     1       2.907  -5.532  -8.377  0.00  0.00    +0.043 A 
ATOM     27  S   UNL     1       1.814  -5.488  -6.978  0.00  0.00    -0.052 S 
ATOM     28  H   UNL     1       1.216  -3.642  -4.642  0.00  0.00    +0.148 HD
BRANCH  24  29
ATOM     29  N   UNL     1       4.345  -7.054 -11.477  0.00  0.00    +0.056 N 
ATOM     30  O   UNL     1       5.192  -6.796 -12.300  0.00  0.00    -0.126 OA
ATOM     31  O   UNL     1       3.704  -8.075 -11.569  0.00  0.00    -0.126 OA
ENDBRANCH  24  29
ENDBRANCH  17  18
ENDBRANCH   4  17
TORSDOF 4
