REMARK  Name = ZINC50395116
REMARK  2 active torsions:
REMARK  status: ('A' for Active; 'I' for Inactive)
REMARK    1  A    between atoms: C_7  and  N_14
REMARK    2  A    between atoms: N_14  and  C_15
REMARK                            x       y       z     vdW  Elec       q    Type
REMARK                         _______ _______ _______ _____ _____    ______ ____
ROOT
ATOM      1  C   UNL     1      -0.835   0.534  -1.720  0.00  0.00    +0.000 A 
ATOM      2  C   UNL     1       0.118   1.511  -1.940  0.00  0.00    +0.002 A 
ATOM      3  C   UNL     1       1.417   1.296  -1.526  0.00  0.00    +0.027 A 
ATOM      4  C   UNL     1       1.771   0.109  -0.900  0.00  0.00    +0.090 A 
ATOM      5  C   UNL     1       0.831  -0.874  -0.692  0.00  0.00    -0.036 A 
ATOM      6  C   UNL     1      -0.482  -0.644  -1.101  0.00  0.00    +0.004 A 
ATOM      7  C   UNL     1       1.117  -2.208  -0.069  0.00  0.00    -0.036 C 
ATOM      8  C   UNL     1       2.325  -2.212   0.850  0.00  0.00    +0.012 C 
ATOM      9  C   UNL     1       3.578  -1.849   0.037  0.00  0.00    +0.170 C 
ATOM     10  S   UNL     1       3.447  -0.084  -0.379  0.00  0.00    -0.003 S 
ATOM     11  O   UNL     1       3.558   0.708   0.796  0.00  0.00    -0.169 OA
ATOM     12  O   UNL     1       4.225   0.209  -1.532  0.00  0.00    -0.169 OA
ENDROOT
BRANCH   7  13
ATOM     13  N   UNL     1      -0.059  -2.625   0.706  0.00  0.00    +0.391 N 
ATOM     14  H   UNL     1      -0.877  -2.146   0.360  0.00  0.00    -0.084 HD
ATOM     15  H   UNL     1      -0.188  -3.621   0.612  0.00  0.00    -0.084 HD
BRANCH  13  16
ATOM     16  C   UNL     1       0.143  -2.289   2.122  0.00  0.00    +0.017 C 
ATOM     17  C   UNL     1      -0.951  -2.950   2.963  0.00  0.00    -0.005 C 
ATOM     18  C   UNL     1      -0.889  -2.371   4.381  0.00  0.00    +0.018 C 
ATOM     19  C   UNL     1      -1.301  -0.899   4.328  0.00  0.00    +0.104 C 
ATOM     20  N   UNL     1      -0.546  -0.195   3.299  0.00  0.00    -0.317 N 
ATOM     21  C   UNL     1       0.086  -0.798   2.293  0.00  0.00    +0.199 C 
ATOM     22  O   UNL     1       0.648  -0.104   1.472  0.00  0.00    -0.278 OA
ATOM     23  H   UNL     1      -0.502   0.772   3.350  0.00  0.00    +0.149 HD
ENDBRANCH  13  16
ENDBRANCH   7  13
TORSDOF 2
