REMARK  Name = ZINC14944414
REMARK  4 active torsions:
REMARK  status: ('A' for Active; 'I' for Inactive)
REMARK    1  A    between atoms: N_7  and  S_8
REMARK    2  A    between atoms: S_8  and  C_11
REMARK    3  A    between atoms: C_28  and  C_31
REMARK    4  A    between atoms: C_34  and  C_37
REMARK                            x       y       z     vdW  Elec       q    Type
REMARK                         _______ _______ _______ _____ _____    ______ ____
ROOT
ATOM      1  C   UNL     1      -1.223   1.745   0.017  0.00  0.00    +0.109 A 
ATOM      2  C   UNL     1      -0.013   1.076   0.008  0.00  0.00    +0.030 A 
ATOM      3  C   UNL     1       1.177   1.777   0.000  0.00  0.00    +0.025 A 
ATOM      4  C   UNL     1       1.169   3.163   0.009  0.00  0.00    +0.031 A 
ATOM      5  C   UNL     1      -0.070   3.831   0.014  0.00  0.00    -0.021 A 
ATOM      6  C   UNL     1      -1.245   3.131   0.025  0.00  0.00    +0.034 A 
ATOM      7  C   UNL     1       0.040   5.313   0.000  0.00  0.00    +0.029 C 
ATOM      8  C   UNL     1      -1.126   6.166  -0.514  0.00  0.00    -0.003 C 
ATOM      9  C   UNL     1      -1.374   5.849  -2.014  0.00  0.00    +0.004 C 
ATOM     10  C   UNL     1      -0.224   6.519  -2.804  0.00  0.00    +0.004 C 
ATOM     11  C   UNL     1       0.771   6.963  -1.663  0.00  0.00    -0.005 C 
ATOM     12  C   UNL     1      -0.313   7.519  -0.659  0.00  0.00    +0.008 C 
ATOM     13  C   UNL     1       1.125   5.600  -1.075  0.00  0.00    +0.024 C 
ATOM     14  C   UNL     1       2.467   5.256  -0.526  0.00  0.00    +0.105 C 
ATOM     15  N   UNL     1       2.365   3.887   0.033  0.00  0.00    -0.336 N 
ATOM     16  H   UNL     1       3.153   3.481   0.428  0.00  0.00    +0.147 HD
ENDROOT
BRANCH  14  17
ATOM     17  C   UNL     1       2.843   6.231   0.560  0.00  0.00    -0.027 A 
ATOM     18  C   UNL     1       2.322   6.080   1.833  0.00  0.00    +0.006 A 
ATOM     19  C   UNL     1       2.667   6.965   2.833  0.00  0.00    +0.015 A 
ATOM     20  C   UNL     1       3.535   8.022   2.555  0.00  0.00    +0.063 A 
ATOM     21  C   UNL     1       4.054   8.172   1.268  0.00  0.00    +0.015 A 
ATOM     22  C   UNL     1       3.705   7.276   0.278  0.00  0.00    +0.006 A 
BRANCH  20  23
ATOM     23  C   UNL     1       3.905   8.977   3.620  0.00  0.00    +0.387 C 
ATOM     24  O   UNL     1       4.662   9.896   3.376  0.00  0.00    -0.241 OA
ATOM     25  O   UNL     1       3.403   8.830   4.861  0.00  0.00    -0.241 OA
ENDBRANCH  20  23
ENDBRANCH  14  17
BRANCH   1  26
ATOM     26  S   UNL     1      -2.733   0.838   0.026  0.00  0.00    +0.075 S 
ATOM     27  O   UNL     1      -3.726   1.698  -0.517  0.00  0.00    -0.150 OA
ATOM     28  O   UNL     1      -2.444  -0.438  -0.529  0.00  0.00    -0.150 OA
BRANCH  26  35
ATOM     29  C   UNL     1      -4.065   3.733   4.002  0.00  0.00    +0.039 A 
ATOM     30  C   UNL     1      -4.378   2.438   4.384  0.00  0.00    +0.116 A 
ATOM     31  N   UNL     1      -4.063   1.435   3.582  0.00  0.00    -0.222 NA
ATOM     32  C   UNL     1      -3.457   1.657   2.425  0.00  0.00    +0.235 A 
ATOM     33  N   UNL     1      -3.139   2.882   2.033  0.00  0.00    -0.222 NA
ATOM     34  C   UNL     1      -3.430   3.930   2.785  0.00  0.00    +0.116 A 
ATOM     35  N   UNL     1      -3.142   0.583   1.610  0.00  0.00    -0.184 N 
ATOM     36  H   UNL     1      -3.161  -0.319   1.967  0.00  0.00    +0.177 HD
ENDBRANCH  26  35
ENDBRANCH   1  26
TORSDOF 4
