REMARK  Name = ZINC36296091
REMARK  6 active torsions:
REMARK  status: ('A' for Active; 'I' for Inactive)
REMARK    1  A    between atoms: C_1  and  O_2
REMARK    2  A    between atoms: O_2  and  C_3
REMARK    3  A    between atoms: C_5  and  N_10
REMARK    4  A    between atoms: C_8  and  N_9
REMARK    5  A    between atoms: N_10  and  S_11
REMARK    6  A    between atoms: S_11  and  C_14
REMARK                            x       y       z     vdW  Elec       q    Type
REMARK                         _______ _______ _______ _____ _____    ______ ____
ROOT
ATOM      1  N   UNL     1      -4.755   0.074   0.034  0.00  0.00    -0.216 N 
ATOM      2  H   UNL     1      -4.805   0.789   0.688  0.00  0.00    +0.174 HD
ENDROOT
BRANCH   1   5
ATOM      3  C   UNL     1      -1.261  -1.082   0.056  0.00  0.00    +0.142 A 
ATOM      4  C   UNL     1      -2.361  -0.242   0.080  0.00  0.00    +0.072 A 
ATOM      5  C   UNL     1      -3.642  -0.775   0.009  0.00  0.00    +0.052 A 
ATOM      6  C   UNL     1      -3.818  -2.148  -0.084  0.00  0.00    +0.026 A 
ATOM      7  C   UNL     1      -2.721  -2.988  -0.108  0.00  0.00    +0.028 A 
ATOM      8  C   UNL     1      -1.440  -2.459  -0.044  0.00  0.00    +0.067 A 
BRANCH   8   9
ATOM      9  N   UNL     1      -0.327  -3.312  -0.075  0.00  0.00    -0.355 N 
ATOM     10  H   UNL     1       0.569  -2.942  -0.027  0.00  0.00    +0.142 HD
ATOM     11  H   UNL     1      -0.452  -4.271  -0.145  0.00  0.00    +0.142 HD
ENDBRANCH   8   9
BRANCH   3  13
ATOM     12  C   UNL     1       0.103   0.859   0.225  0.00  0.00    +0.277 C 
ATOM     13  O   UNL     1      -0.006  -0.562   0.124  0.00  0.00    -0.493 OA
ENDBRANCH   3  13
ENDBRANCH   1   5
BRANCH   1  14
ATOM     14  S   UNL     1      -5.986  -0.143  -1.052  0.00  0.00    +0.074 S 
ATOM     15  O   UNL     1      -6.372  -1.508  -0.961  0.00  0.00    -0.150 OA
ATOM     16  O   UNL     1      -6.902   0.923  -0.847  0.00  0.00    -0.150 OA
BRANCH  14  17
ATOM     17  C   UNL     1      -5.305   0.081  -2.662  0.00  0.00    +0.135 A 
ATOM     18  C   UNL     1      -5.270  -0.969  -3.562  0.00  0.00    +0.058 A 
ATOM     19  C   UNL     1      -4.739  -0.762  -4.793  0.00  0.00    +0.081 A 
ATOM     20  S   UNL     1      -4.268   0.958  -4.708  0.00  0.00    -0.063 S 
ATOM     21  C   UNL     1      -4.813   1.287  -3.040  0.00  0.00    +0.106 A 
ATOM     22 CL   UNL     1      -4.733   2.767  -2.136  0.00  0.00    -0.074 Cl
ATOM     23 CL   UNL     1      -4.564  -1.879  -6.110  0.00  0.00    -0.076 Cl
ENDBRANCH  14  17
ENDBRANCH   1  14
TORSDOF 5
