REMARK  Name = ZINC34664315
REMARK  9 active torsions:
REMARK  status: ('A' for Active; 'I' for Inactive)
REMARK    1  A    between atoms: C_1  and  C_2
REMARK    2  A    between atoms: C_5  and  O_9
REMARK    3  A    between atoms: C_6  and  C_8
REMARK    4  A    between atoms: O_9  and  C_10
REMARK    5  A    between atoms: C_15  and  C_16
REMARK    6  A    between atoms: C_16  and  N_17
REMARK    7  A    between atoms: N_17  and  C_18
REMARK    8  A    between atoms: C_18  and  C_19
REMARK    9  A    between atoms: C_18  and  C_20
REMARK                            x       y       z     vdW  Elec       q    Type
REMARK                         _______ _______ _______ _____ _____    ______ ____
ROOT
ATOM      1  C   UNL     1       0.067  -4.666  -1.269  0.00  0.00    +0.131 A 
ATOM      2  C   UNL     1       0.116  -3.838  -2.381  0.00  0.00    +0.061 A 
ATOM      3  C   UNL     1       0.124  -4.387  -3.650  0.00  0.00    +0.021 A 
ATOM      4  C   UNL     1       0.086  -5.761  -3.810  0.00  0.00    +0.016 A 
ATOM      5  C   UNL     1       0.037  -6.587  -2.703  0.00  0.00    +0.006 A 
ATOM      6  C   UNL     1       0.034  -6.043  -1.433  0.00  0.00    -0.022 A 
ATOM      7 BR   UNL     1       0.189  -3.260  -5.167  0.00  0.00    -0.050 Br
ENDROOT
BRANCH   1   8
ATOM      8  O   UNL     1       0.059  -4.129  -0.021  0.00  0.00    -0.456 OA
BRANCH   8  13
ATOM      9  C   UNL     1       4.989  -3.545   2.640  0.00  0.00    +0.044 C 
ATOM     10  C   UNL     1       3.670  -3.701   1.928  0.00  0.00    -0.050 A 
ATOM     11  C   UNL     1       3.641  -4.140   0.617  0.00  0.00    +0.007 A 
ATOM     12  C   UNL     1       2.433  -4.284  -0.038  0.00  0.00    +0.047 A 
ATOM     13  C   UNL     1       1.248  -3.988   0.621  0.00  0.00    +0.131 A 
ATOM     14  C   UNL     1       1.280  -3.548   1.937  0.00  0.00    -0.008 A 
ATOM     15  C   UNL     1       2.490  -3.411   2.589  0.00  0.00    +0.010 A 
ATOM     16  C   UNL     1      -0.005  -3.225   2.655  0.00  0.00    +0.047 C 
ENDBRANCH   8  13
ENDBRANCH   1   8
BRANCH   6  17
ATOM     17  C   UNL     1      -0.013  -6.945  -0.227  0.00  0.00    -0.043 C 
BRANCH  17  18
ATOM     18  N   UNL     1      -1.389  -7.010   0.284  0.00  0.00    +0.383 N 
ATOM     19  H   UNL     1      -1.694  -6.084   0.544  0.00  0.00    -0.085 HD
ATOM     20  H   UNL     1      -1.997  -7.375  -0.433  0.00  0.00    -0.085 HD
BRANCH  18  21
ATOM     21  C   UNL     1      -1.434  -7.889   1.460  0.00  0.00    -0.078 C 
ATOM     22  C   UNL     1      -2.838  -7.858   2.066  0.00  0.00    -0.014 C 
ATOM     23  C   UNL     1      -1.091  -9.320   1.040  0.00  0.00    -0.014 C 
ENDBRANCH  18  21
ENDBRANCH  17  18
ENDBRANCH   6  17
TORSDOF 5
