REMARK  Name = ZINC40676103
REMARK  8 active torsions:
REMARK  status: ('A' for Active; 'I' for Inactive)
REMARK    1  A    between atoms: C_1  and  C_2
REMARK    2  A    between atoms: C_2  and  C_4
REMARK    3  A    between atoms: C_2  and  N_11
REMARK    4  A    between atoms: N_9  and  C_10
REMARK    5  A    between atoms: N_11  and  C_12
REMARK    6  A    between atoms: C_12  and  C_13
REMARK    7  A    between atoms: C_13  and  C_14
REMARK    8  A    between atoms: C_17  and  N_20
REMARK                            x       y       z     vdW  Elec       q    Type
REMARK                         _______ _______ _______ _____ _____    ______ ____
ROOT
ATOM      1  N   UNL     1       0.713  -0.491   1.192  0.00  0.00    +0.387 N 
ATOM      2  H   UNL     1       0.290  -0.099   2.020  0.00  0.00    -0.085 HD
ATOM      3  H   UNL     1       0.655  -1.497   1.230  0.00  0.00    -0.085 HD
ENDROOT
BRANCH   1   5
ATOM      4  C   UNL     1      -0.019   1.526   0.010  0.00  0.00    -0.004 C 
ATOM      5  C   UNL     1       0.002  -0.004   0.002  0.00  0.00    +0.013 C 
BRANCH   5   6
ATOM      6  C   UNL     1      -1.412  -0.526   0.013  0.00  0.00    +0.206 C 
ATOM      7  O   UNL     1      -1.790  -1.233   0.922  0.00  0.00    -0.277 OA
ATOM      8  N   UNL     1      -2.256  -0.206  -0.988  0.00  0.00    -0.242 N 
ATOM      9  C   UNL     1      -3.520  -0.672  -0.979  0.00  0.00    +0.306 C 
ATOM     10  O   UNL     1      -3.899  -1.381  -0.067  0.00  0.00    -0.252 OA
ATOM     11  N   UNL     1      -4.364  -0.353  -1.980  0.00  0.00    -0.302 N 
ATOM     12  C   UNL     1      -5.738  -0.860  -1.970  0.00  0.00    +0.129 C 
ATOM     13  H   UNL     1      -1.953   0.360  -1.716  0.00  0.00    +0.159 HD
ATOM     14  H   UNL     1      -4.061   0.213  -2.707  0.00  0.00    +0.150 HD
ENDBRANCH   5   6
ENDBRANCH   1   5
BRANCH   1  15
ATOM     15  C   UNL     1       2.122  -0.083   1.122  0.00  0.00    -0.077 C 
BRANCH  15  16
ATOM     16  C   UNL     1       2.862  -0.589   2.361  0.00  0.00    +0.016 C 
BRANCH  16  17
ATOM     17  C   UNL     1       4.308  -0.171   2.290  0.00  0.00    -0.049 A 
ATOM     18  C   UNL     1       5.236  -0.992   1.677  0.00  0.00    +0.006 A 
ATOM     19  C   UNL     1       6.562  -0.608   1.611  0.00  0.00    +0.033 A 
ATOM     20  C   UNL     1       6.960   0.598   2.157  0.00  0.00    +0.126 A 
ATOM     21  C   UNL     1       6.032   1.420   2.769  0.00  0.00    +0.033 A 
ATOM     22  C   UNL     1       4.705   1.038   2.831  0.00  0.00    +0.006 A 
BRANCH  20  23
ATOM     23  N   UNL     1       8.381   1.009   2.087  0.00  0.00    +0.056 N 
ATOM     24  O   UNL     1       9.192   0.289   1.553  0.00  0.00    -0.126 OA
ATOM     25  O   UNL     1       8.729   2.063   2.565  0.00  0.00    -0.126 OA
ENDBRANCH  20  23
ENDBRANCH  16  17
ENDBRANCH  15  16
ENDBRANCH   1  15
TORSDOF 6
