REMARK  Name = ZINC32904962
REMARK  6 active torsions:
REMARK  status: ('A' for Active; 'I' for Inactive)
REMARK    1  A    between atoms: C_1  and  C_2
REMARK    2  A    between atoms: C_5  and  N_8
REMARK    3  A    between atoms: C_9  and  C_11
REMARK    4  A    between atoms: C_11  and  C_13
REMARK    5  A    between atoms: C_11  and  N_14
REMARK    6  A    between atoms: C_20  and  C_22
REMARK                            x       y       z     vdW  Elec       q    Type
REMARK                         _______ _______ _______ _____ _____    ______ ____
ROOT
ATOM      1  N   UNL     1      -0.997   0.446  -5.948  0.00  0.00    +0.389 N 
ATOM      2  C   UNL     1      -2.097  -0.482  -5.654  0.00  0.00    -0.058 C 
ATOM      3  C   UNL     1      -3.158  -0.377  -6.755  0.00  0.00    +0.089 C 
ATOM      4  N   UNL     1      -2.502  -0.581  -8.056  0.00  0.00    -0.303 N 
ATOM      5  C   UNL     1      -1.308   0.219  -8.366  0.00  0.00    +0.089 C 
ATOM      6  C   UNL     1      -0.320   0.090  -7.202  0.00  0.00    -0.058 C 
ATOM      7  C   UNL     1      -2.984  -1.477  -8.940  0.00  0.00    +0.244 C 
ATOM      8  O   UNL     1      -2.431  -1.633 -10.008  0.00  0.00    -0.273 OA
ATOM      9  H   UNL     1      -1.431   1.449  -6.075  0.00  0.00    -0.081 HD
ENDROOT
BRANCH   7  10
ATOM     10  C   UNL     1      -4.210  -2.286  -8.601  0.00  0.00    +0.204 C 
ATOM     11  C   UNL     1      -5.433  -1.357  -8.477  0.00  0.00    +0.043 C 
ATOM     12  C   UNL     1      -6.430  -1.899  -9.529  0.00  0.00    +0.031 C 
ATOM     13  C   UNL     1      -5.923  -3.349  -9.740  0.00  0.00    +0.161 C 
ATOM     14  O   UNL     1      -4.485  -3.221  -9.657  0.00  0.00    -0.367 OA
ENDBRANCH   7  10
BRANCH   1  15
ATOM     15  C   UNL     1      -0.043   0.503  -4.832  0.00  0.00    +0.016 C 
ATOM     16  C   UNL     1       0.529  -0.894  -4.579  0.00  0.00    -0.004 C 
BRANCH  15  18
ATOM     17  N   UNL     1      -0.067   1.120  -2.437  0.00  0.00    -0.314 N 
ATOM     18  C   UNL     1      -0.749   0.989  -3.592  0.00  0.00    +0.199 C 
ATOM     19  O   UNL     1      -1.930   1.261  -3.634  0.00  0.00    -0.278 OA
ATOM     20  H   UNL     1       1.004   0.873  -2.399  0.00  0.00    +0.149 HD
BRANCH  17  25
ATOM     21  C   UNL     1      -1.466   3.603   2.534  0.00  0.00    +0.007 C 
ATOM     22  C   UNL     1      -0.750   3.109   1.275  0.00  0.00    -0.014 C 
ATOM     23  C   UNL     1      -0.729   1.579   1.267  0.00  0.00    +0.005 C 
ATOM     24  C   UNL     1      -0.013   1.086   0.008  0.00  0.00    +0.022 C 
ATOM     25  C   UNL     1      -0.753   1.593  -1.232  0.00  0.00    +0.073 C 
ATOM     26  C   UNL     1      -0.773   3.123  -1.223  0.00  0.00    +0.022 C 
ATOM     27  C   UNL     1      -1.490   3.616   0.036  0.00  0.00    +0.005 C 
ENDBRANCH  17  25
ENDBRANCH  15  18
ENDBRANCH   1  15
TORSDOF 4
