REMARK  Name = ZINC35427203
REMARK  7 active torsions:
REMARK  status: ('A' for Active; 'I' for Inactive)
REMARK    1  A    between atoms: C_1  and  C_2
REMARK    2  A    between atoms: C_2  and  C_4
REMARK    3  A    between atoms: C_2  and  N_20
REMARK    4  A    between atoms: C_13  and  O_14
REMARK    5  A    between atoms: O_14  and  C_15
REMARK    6  A    between atoms: C_15  and  C_16
REMARK    7  A    between atoms: C_16  and  C_17
REMARK                            x       y       z     vdW  Elec       q    Type
REMARK                         _______ _______ _______ _____ _____    ______ ____
ROOT
ATOM      1  C   UNL     1      -1.448  -0.402   0.024  0.00  0.00    -0.020 A 
ATOM      2  C   UNL     1      -2.052  -0.857  -1.145  0.00  0.00    +0.006 A 
ATOM      3  C   UNL     1      -3.360  -1.236  -1.159  0.00  0.00    +0.009 A 
ATOM      4  C   UNL     1      -4.118  -1.169   0.022  0.00  0.00    -0.014 A 
ATOM      5  C   UNL     1      -5.470  -1.552   0.043  0.00  0.00    +0.008 A 
ATOM      6  C   UNL     1      -6.174  -1.474   1.206  0.00  0.00    +0.001 A 
ATOM      7  C   UNL     1      -5.574  -1.019   2.378  0.00  0.00    +0.001 A 
ATOM      8  C   UNL     1      -4.266  -0.640   2.395  0.00  0.00    +0.012 A 
ATOM      9  C   UNL     1      -3.509  -0.707   1.214  0.00  0.00    +0.024 A 
ATOM     10  C   UNL     1      -2.151  -0.328   1.194  0.00  0.00    +0.130 A 
ENDROOT
BRANCH   1  12
ATOM     11  C   UNL     1       0.447   0.225  -1.446  0.00  0.00    -0.009 C 
ATOM     12  C   UNL     1       0.002   0.008   0.001  0.00  0.00    -0.044 C 
BRANCH  12  13
ATOM     13  N   UNL     1       0.819  -1.049   0.612  0.00  0.00    +0.383 N 
ATOM     14  H   UNL     1       1.790  -0.774   0.597  0.00  0.00    -0.089 HD
ATOM     15  H   UNL     1       0.525  -1.192   1.567  0.00  0.00    -0.089 HD
ATOM     16  H   UNL     1       0.704  -1.906   0.092  0.00  0.00    -0.089 HD
ENDBRANCH  12  13
ENDBRANCH   1  12
BRANCH  10  17
ATOM     17  O   UNL     1      -1.546   0.112   2.328  0.00  0.00    -0.491 OA
BRANCH  17  18
ATOM     18  C   UNL     1      -1.688   1.499   2.641  0.00  0.00    +0.238 C 
BRANCH  18  19
ATOM     19  C   UNL     1      -1.051   1.782   4.003  0.00  0.00    +0.136 C 
BRANCH  19  20
ATOM     20  C   UNL     1      -1.200   3.244   4.334  0.00  0.00    +0.214 C 
ATOM     21  O   UNL     1      -1.761   3.988   3.557  0.00  0.00    -0.276 OA
ATOM     22  N   UNL     1      -0.711   3.726   5.494  0.00  0.00    -0.329 N 
ATOM     23  H   UNL     1      -0.262   3.132   6.115  0.00  0.00    +0.145 HD
ATOM     24  H   UNL     1      -0.807   4.668   5.707  0.00  0.00    +0.145 HD
ENDBRANCH  19  20
ENDBRANCH  18  19
ENDBRANCH  17  18
ENDBRANCH  10  17
TORSDOF 6
