REMARK  Name = ZINC54037704
REMARK  7 active torsions:
REMARK  status: ('A' for Active; 'I' for Inactive)
REMARK    1  A    between atoms: C_1  and  C_2
REMARK    2  A    between atoms: C_7  and  C_8
REMARK    3  A    between atoms: N_10  and  N_11
REMARK    4  A    between atoms: N_14  and  C_15
REMARK    5  A    between atoms: C_15  and  C_16
REMARK    6  A    between atoms: C_16  and  C_18
REMARK    7  A    between atoms: C_16  and  N_23
REMARK                            x       y       z     vdW  Elec       q    Type
REMARK                         _______ _______ _______ _____ _____    ______ ____
ROOT
ATOM      1  N   UNL     1      -0.065  -0.056   5.007  0.00  0.00    -0.218 N 
ATOM      2  C   UNL     1       0.190  -0.759   6.128  0.00  0.00    +0.316 C 
ATOM      3  O   UNL     1       0.062  -0.235   7.217  0.00  0.00    -0.251 OA
ATOM      4  N   UNL     1       0.588  -2.044   6.041  0.00  0.00    -0.299 N 
ATOM      5  H   UNL     1      -0.351   0.869   5.069  0.00  0.00    +0.174 HD
ATOM      6  H   UNL     1       0.690  -2.463   5.172  0.00  0.00    +0.150 HD
ENDROOT
BRANCH   1   9
ATOM      7  C   UNL     1      -0.173   0.043   2.631  0.00  0.00    +0.260 C 
ATOM      8  O   UNL     1      -0.531   1.202   2.709  0.00  0.00    -0.269 OA
ATOM      9  N   UNL     1       0.083  -0.660   3.752  0.00  0.00    -0.229 N 
ATOM     10  H   UNL     1       0.369  -1.585   3.689  0.00  0.00    +0.173 HD
BRANCH   7  17
ATOM     11  C   UNL     1      -0.994   1.468   0.251  0.00  0.00    +0.044 C 
ATOM     12  C   UNL     1      -0.410   0.083   0.151  0.00  0.00    -0.038 A 
ATOM     13  C   UNL     1      -0.256  -0.516  -1.083  0.00  0.00    +0.004 A 
ATOM     14  C   UNL     1       0.281  -1.787  -1.176  0.00  0.00    +0.000 A 
ATOM     15  C   UNL     1       0.667  -2.467  -0.034  0.00  0.00    +0.001 A 
ATOM     16  C   UNL     1       0.519  -1.880   1.206  0.00  0.00    +0.013 A 
ATOM     17  C   UNL     1      -0.017  -0.595   1.306  0.00  0.00    +0.041 A 
ENDBRANCH   7  17
ENDBRANCH   1   9
BRANCH   4  18
ATOM     18  C   UNL     1       0.865  -2.809   7.260  0.00  0.00    +0.098 C 
BRANCH  18  19
ATOM     19  C   UNL     1       1.374  -4.202   6.883  0.00  0.00    +0.016 C 
BRANCH  19  20
ATOM     20  N   UNL     1       0.413  -4.846   5.978  0.00  0.00    +0.387 N 
ATOM     21  C   UNL     1      -0.913  -4.863   6.607  0.00  0.00    -0.078 C 
ATOM     22  C   UNL     1      -1.934  -5.460   5.637  0.00  0.00    -0.019 C 
ATOM     23  C   UNL     1      -1.518  -6.891   5.282  0.00  0.00    -0.004 C 
ATOM     24  C   UNL     1      -0.103  -6.869   4.695  0.00  0.00    -0.019 C 
ATOM     25  C   UNL     1       0.850  -6.220   5.700  0.00  0.00    -0.078 C 
ATOM     26  H   UNL     1       0.366  -4.328   5.114  0.00  0.00    -0.081 HD
ENDBRANCH  19  20
BRANCH  19  27
ATOM     27  C   UNL     1       1.528  -5.035   8.129  0.00  0.00    +0.093 A 
ATOM     28  C   UNL     1       2.693  -5.409   8.687  0.00  0.00    +0.043 A 
ATOM     29  C   UNL     1       2.372  -6.174   9.832  0.00  0.00    +0.041 A 
ATOM     30  C   UNL     1       1.030  -6.220   9.906  0.00  0.00    +0.195 A 
ATOM     31  O   UNL     1       0.524  -5.524   8.876  0.00  0.00    -0.469 OA
ENDBRANCH  19  27
ENDBRANCH  18  19
ENDBRANCH   4  18
TORSDOF 6
