REMARK  Name = ZINC66813404
REMARK  6 active torsions:
REMARK  status: ('A' for Active; 'I' for Inactive)
REMARK    1  A    between atoms: C_1  and  C_2
REMARK    2  A    between atoms: C_2  and  C_4
REMARK    3  A    between atoms: C_2  and  N_25
REMARK    4  A    between atoms: N_9  and  C_12
REMARK    5  A    between atoms: C_12  and  C_13
REMARK    6  A    between atoms: C_26  and  C_28
REMARK                            x       y       z     vdW  Elec       q    Type
REMARK                         _______ _______ _______ _____ _____    ______ ____
ROOT
ATOM      1  C   UNL     1       0.798  -0.495   1.132  0.00  0.00    +0.236 C 
ATOM      2  O   UNL     1       1.831  -1.083   0.894  0.00  0.00    -0.274 OA
ATOM      3  N   UNL     1       0.407  -0.308   2.409  0.00  0.00    -0.298 N 
ATOM      4  C   UNL     1      -0.895   0.302   2.718  0.00  0.00    +0.123 C 
ATOM      5  C   UNL     1      -0.672   1.450   3.707  0.00  0.00    +0.104 C 
ATOM      6  N   UNL     1       0.073   0.952   4.871  0.00  0.00    -0.291 NA
ATOM      7  C   UNL     1       1.409   0.479   4.487  0.00  0.00    +0.104 C 
ATOM      8  C   UNL     1       1.269  -0.715   3.529  0.00  0.00    +0.123 C 
ENDROOT
BRANCH   1  10
ATOM      9  C   UNL     1       0.293   1.495  -0.259  0.00  0.00    +0.038 C 
ATOM     10  C   UNL     1      -0.050   0.027   0.001  0.00  0.00    +0.156 C 
BRANCH  10  11
ATOM     11  N   UNL     1       0.213  -0.758  -1.208  0.00  0.00    -0.304 N 
ATOM     12  C   UNL     1      -0.724  -0.843  -2.173  0.00  0.00    +0.211 C 
ATOM     13  O   UNL     1      -1.785  -0.271  -2.041  0.00  0.00    -0.276 OA
ATOM     14  C   UNL     1      -0.454  -1.650  -3.417  0.00  0.00    +0.109 C 
ATOM     15  H   UNL     1       1.062  -1.216  -1.314  0.00  0.00    +0.149 HD
ENDBRANCH  10  11
ENDBRANCH   1  10
BRANCH   6  16
ATOM     16  C   UNL     1       0.158   1.977   5.920  0.00  0.00    +0.181 C 
BRANCH  16  17
ATOM     17  C   UNL     1       0.706   1.361   7.182  0.00  0.00    +0.234 C 
ATOM     18  O   UNL     1       0.904   0.165   7.236  0.00  0.00    -0.274 OA
ATOM     19  N   UNL     1       0.975   2.138   8.249  0.00  0.00    -0.270 N 
ATOM     20  C   UNL     1       0.660   3.573   8.227  0.00  0.00    +0.114 C 
ATOM     21  C   UNL     1       1.865   4.325   8.807  0.00  0.00    +0.024 C 
ATOM     22  C   UNL     1       2.052   3.909  10.266  0.00  0.00    +0.038 C 
ATOM     23  C   UNL     1       2.088   2.408  10.386  0.00  0.00    -0.026 A 
ATOM     24  C   UNL     1       1.553   1.589   9.402  0.00  0.00    +0.039 A 
ATOM     25  C   UNL     1       1.593   0.207   9.548  0.00  0.00    +0.024 A 
ATOM     26  C   UNL     1       2.161  -0.353  10.675  0.00  0.00    +0.002 A 
ATOM     27  C   UNL     1       2.691   0.463  11.658  0.00  0.00    +0.000 A 
ATOM     28  C   UNL     1       2.663   1.840  11.510  0.00  0.00    +0.005 A 
ENDBRANCH  16  17
ENDBRANCH   6  16
TORSDOF 4
