REMARK  Name = ZINC63941236
REMARK  8 active torsions:
REMARK  status: ('A' for Active; 'I' for Inactive)
REMARK    1  A    between atoms: C_1  and  C_2
REMARK    2  A    between atoms: C_2  and  C_3
REMARK    3  A    between atoms: C_7  and  N_10
REMARK    4  A    between atoms: C_11  and  C_13
REMARK    5  A    between atoms: N_18  and  C_20
REMARK    6  A    between atoms: C_20  and  C_21
REMARK    7  A    between atoms: C_21  and  C_22
REMARK    8  A    between atoms: C_25  and  C_31
REMARK                            x       y       z     vdW  Elec       q    Type
REMARK                         _______ _______ _______ _____ _____    ______ ____
ROOT
ATOM      1  C   UNL     1       6.134  -2.609  -0.478  0.00  0.00    +0.101 C 
ATOM      2  C   UNL     1       6.327  -4.110  -0.161  0.00  0.00    +0.110 C 
ATOM      3  C   UNL     1       7.740  -4.406  -0.611  0.00  0.00    +0.216 C 
ATOM      4  O   UNL     1       8.192  -5.516  -0.798  0.00  0.00    -0.276 OA
ATOM      5  N   UNL     1       8.423  -3.260  -0.775  0.00  0.00    -0.300 N 
ATOM      6  C   UNL     1       7.590  -2.093  -0.459  0.00  0.00    +0.121 C 
ENDROOT
BRANCH   1   8
ATOM      7  N   UNL     1       4.023  -2.296   0.773  0.00  0.00    -0.290 N 
ATOM      8  C   UNL     1       5.308  -1.935   0.587  0.00  0.00    +0.220 C 
ATOM      9  O   UNL     1       5.801  -1.067   1.276  0.00  0.00    -0.275 OA
ATOM     10  H   UNL     1       3.630  -2.990   0.221  0.00  0.00    +0.151 HD
BRANCH   7  14
ATOM     11  C   UNL     1       0.742  -0.511   1.242  0.00  0.00    +0.129 C 
ATOM     12  N   UNL     1       0.878  -2.002   1.226  0.00  0.00    -0.241 NA
ATOM     13  N   UNL     1       1.978  -2.411   2.090  0.00  0.00    -0.227 NA
ATOM     14  C   UNL     1       3.221  -1.639   1.808  0.00  0.00    +0.216 C 
ATOM     15  S   UNL     1       2.527  -0.043   1.199  0.00  0.00    -0.102 S 
ATOM     16  H   UNL     1       1.011  -2.342   0.285  0.00  0.00    +0.142 HD
ATOM     17  H   UNL     1       1.720  -2.337   3.063  0.00  0.00    +0.143 HD
BRANCH  11  19
ATOM     18  C   UNL     1      -0.019   1.526   0.010  0.00  0.00    +0.006 C 
ATOM     19  C   UNL     1       0.002  -0.004   0.002  0.00  0.00    +0.027 C 
ENDBRANCH  11  19
ENDBRANCH   7  14
ENDBRANCH   1   8
BRANCH   5  20
ATOM     20  C   UNL     1       9.819  -3.184  -1.214  0.00  0.00    +0.112 C 
BRANCH  20  21
ATOM     21  C   UNL     1       9.869  -3.095  -2.741  0.00  0.00    +0.052 C 
BRANCH  21  22
ATOM     22  C   UNL     1      11.305  -3.017  -3.192  0.00  0.00    -0.040 C 
ATOM     23  C   UNL     1      12.088  -4.044  -3.592  0.00  0.00    -0.001 A 
ATOM     24  C   UNL     1      11.848  -5.486  -3.721  0.00  0.00    +0.013 A 
ATOM     25  C   UNL     1      12.851  -6.282  -4.158  0.00  0.00    -0.050 A 
ATOM     26  C   UNL     1      14.110  -5.765  -4.489  0.00  0.00    +0.005 A 
ATOM     27  C   UNL     1      14.407  -4.452  -4.397  0.00  0.00    +0.026 A 
ATOM     28  C   UNL     1      13.427  -3.523  -3.949  0.00  0.00    +0.043 A 
ATOM     29  N   UNL     1      13.470  -2.224  -3.777  0.00  0.00    -0.380 N 
ATOM     30  C   UNL     1      12.159  -1.773  -3.296  0.00  0.00    +0.144 C 
ATOM     31  C   UNL     1      12.607  -7.763  -4.291  0.00  0.00    +0.044 C 
ATOM     32  H   UNL     1      14.238  -1.656  -3.943  0.00  0.00    +0.160 HD
ENDBRANCH  21  22
ENDBRANCH  20  21
ENDBRANCH   5  20
TORSDOF 6
