REMARK  Name = ZINC20692690
REMARK  7 active torsions:
REMARK  status: ('A' for Active; 'I' for Inactive)
REMARK    1  A    between atoms: C_1  and  O_2
REMARK    2  A    between atoms: O_2  and  C_3
REMARK    3  A    between atoms: C_5  and  C_10
REMARK    4  A    between atoms: C_8  and  O_9
REMARK    5  A    between atoms: C_21  and  S_26
REMARK    6  A    between atoms: S_26  and  N_29
REMARK    7  A    between atoms: N_29  and  C_30
REMARK                            x       y       z     vdW  Elec       q    Type
REMARK                         _______ _______ _______ _____ _____    ______ ____
ROOT
ATOM      1  C   UNL     1       2.458   3.932  -0.000  0.00  0.00    +0.105 C 
ATOM      2  C   UNL     1       3.095   3.898   1.377  0.00  0.00    +0.029 C 
ATOM      3  C   UNL     1       2.384   4.669   2.497  0.00  0.00    +0.033 C 
ATOM      4  C   UNL     1       3.558   5.050   3.402  0.00  0.00    -0.030 C 
ATOM      5  C   UNL     1       4.679   5.105   2.692  0.00  0.00    -0.023 C 
ATOM      6  C   UNL     1       4.357   4.807   1.273  0.00  0.00    +0.049 C 
ATOM      7  C   UNL     1       5.324   4.139   0.375  0.00  0.00    -0.018 A 
ATOM      8  C   UNL     1       6.687   4.230   0.557  0.00  0.00    +0.034 A 
ATOM      9  C   UNL     1       7.552   3.616  -0.329  0.00  0.00    +0.106 A 
ATOM     10  C   UNL     1       7.050   2.906  -1.405  0.00  0.00    +0.030 A 
ATOM     11  C   UNL     1       5.687   2.803  -1.592  0.00  0.00    +0.025 A 
ATOM     12  C   UNL     1       4.809   3.412  -0.704  0.00  0.00    +0.031 A 
ATOM     13  N   UNL     1       3.430   3.281  -0.905  0.00  0.00    -0.336 N 
ATOM     14  H   UNL     1       3.073   2.681  -1.755  0.00  0.00    +0.147 HD
ENDROOT
BRANCH   1  17
ATOM     15  C   UNL     1      -1.237   3.144   0.030  0.00  0.00    +0.162 A 
ATOM     16  C   UNL     1      -0.043   3.847   0.023  0.00  0.00    +0.054 A 
ATOM     17  C   UNL     1       1.160   3.166   0.008  0.00  0.00    -0.023 A 
ATOM     18  C   UNL     1       1.175   1.783   0.000  0.00  0.00    +0.009 A 
ATOM     19  C   UNL     1      -0.013   1.076   0.008  0.00  0.00    +0.049 A 
ATOM     20  C   UNL     1      -1.222   1.752   0.017  0.00  0.00    +0.158 A 
BRANCH  15  22
ATOM     21  C   UNL     1      -2.361   5.240   0.051  0.00  0.00    +0.277 C 
ATOM     22  O   UNL     1      -2.421   3.812   0.044  0.00  0.00    -0.491 OA
ENDBRANCH  15  22
BRANCH  20  23
ATOM     23  O   UNL     1      -2.391   1.058   0.019  0.00  0.00    -0.503 OA
ATOM     24  H   UNL     1      -2.378  -0.042   0.009  0.00  0.00    +0.292 HD
ENDBRANCH  20  23
ENDBRANCH   1  17
BRANCH   9  25
ATOM     25  S   UNL     1       9.293   3.738  -0.090  0.00  0.00    +0.059 S 
ATOM     26  O   UNL     1       9.894   3.535  -1.361  0.00  0.00    -0.153 OA
ATOM     27  O   UNL     1       9.516   4.912   0.679  0.00  0.00    -0.153 OA
BRANCH  25  28
ATOM     28  N   UNL     1       9.748   2.459   0.858  0.00  0.00    -0.187 NA
ATOM     29  H   UNL     1       9.992   2.634   1.916  0.00  0.00    +0.148 HD
BRANCH  28  30
ATOM     30  C   UNL     1       9.615   1.090   0.354  0.00  0.00    +0.077 C 
ATOM     31  C   UNL     1       8.286   0.499   0.829  0.00  0.00    +0.020 C 
ATOM     32  C   UNL     1       8.146  -0.931   0.303  0.00  0.00    +0.002 C 
ATOM     33  C   UNL     1       9.302  -1.784   0.831  0.00  0.00    +0.000 C 
ATOM     34  C   UNL     1      10.630  -1.193   0.355  0.00  0.00    +0.002 C 
ATOM     35  C   UNL     1      10.770   0.237   0.882  0.00  0.00    +0.020 C 
ENDBRANCH  28  30
ENDBRANCH  25  28
ENDBRANCH   9  25
TORSDOF 6
