REMARK  Name = ZINC17043337
REMARK  9 active torsions:
REMARK  status: ('A' for Active; 'I' for Inactive)
REMARK    1  A    between atoms: C_1  and  C_2
REMARK    2  A    between atoms: N_10  and  CA_11
REMARK    3  A    between atoms: CA_11  and  CB_13
REMARK    4  A    between atoms: CA_11  and  C_20
REMARK    5  A    between atoms: CB_13  and  CG_14
REMARK    6  A    between atoms: C_24  and  C_26
REMARK    7  A    between atoms: C_29  and  O_34
REMARK    8  A    between atoms: C_30  and  O_32
REMARK    9  A    between atoms: O_32  and  C_33
REMARK                            x       y       z     vdW  Elec       q    Type
REMARK                         _______ _______ _______ _____ _____    ______ ____
ROOT
ATOM      1  C   UNK A   0      -0.774   1.524   0.716  0.00  0.00    +0.045 C 
ATOM      2  C   UNK A   0      -0.610   0.036   0.546  0.00  0.00    -0.029 A 
ATOM      3  C   UNK A   0      -0.695  -0.522  -0.713  0.00  0.00    +0.051 A 
ATOM      4  C   UNK A   0      -0.544  -1.893  -0.875  0.00  0.00    +0.138 A 
ATOM      5  C   UNK A   0      -0.307  -2.696   0.249  0.00  0.00    +0.042 A 
ATOM      6  C   UNK A   0      -0.224  -2.125   1.514  0.00  0.00    +0.033 A 
ATOM      7  C   UNK A   0      -0.370  -0.759   1.656  0.00  0.00    +0.045 A 
ATOM      8 CL   UNK A   0      -0.259  -0.037   3.231  0.00  0.00    -0.083 Cl
ATOM      9  C   UNK A   0      -0.150  -4.156   0.051  0.00  0.00    +0.050 A 
ATOM     10  N   HIS A   1       0.074  -4.964   1.064  0.00  0.00    -0.371 N 
ATOM     11  C   UNK A   0      -0.252  -4.648  -1.281  0.00  0.00    +0.073 A 
ATOM     12  C   UNK A   0      -0.483  -3.780  -2.296  0.00  0.00    +0.138 A 
ATOM     13  O   UNK A   0      -0.624  -2.457  -2.100  0.00  0.00    -0.455 OA
ATOM     14  H   HIS A   1      -0.242  -5.880   1.032  0.00  0.00    +0.160 HD
ENDROOT
BRANCH  12  15
ATOM     15  C   UNK A   0      -0.586  -4.307  -3.671  0.00  0.00    +0.021 A 
ATOM     16  C   UNK A   0      -0.450  -5.678  -3.907  0.00  0.00    +0.015 A 
ATOM     17  C   UNK A   0      -0.545  -6.168  -5.191  0.00  0.00    +0.050 A 
ATOM     18  C   UNK A   0      -0.776  -5.304  -6.252  0.00  0.00    +0.158 A 
ATOM     19  C   UNK A   0      -0.913  -3.936  -6.024  0.00  0.00    +0.162 A 
ATOM     20  C   UNK A   0      -0.824  -3.438  -4.738  0.00  0.00    +0.061 A 
BRANCH  19  21
ATOM     21  O   UNK A   0      -1.139  -3.092  -7.066  0.00  0.00    -0.491 OA
ATOM     22  C   UNK A   0      -1.268  -1.702  -6.759  0.00  0.00    +0.277 C 
ENDBRANCH  19  21
BRANCH  18  23
ATOM     23  O   UNK A   0      -0.869  -5.793  -7.517  0.00  0.00    -0.503 OA
ATOM     24  H   UNK A   0      -1.767  -6.039  -7.778  0.00  0.00    +0.292 HD
ENDBRANCH  18  23
ENDBRANCH  12  15
BRANCH  10  25
ATOM     25  CA  HIS A   1       0.800  -4.480   2.240  0.00  0.00    +0.199 C 
BRANCH  25  26
ATOM     26  C   HIS A   1      -0.133  -4.433   3.423  0.00  0.00    +0.378 C 
ATOM     27  O   HIS A   1      -1.060  -5.221   3.499  0.00  0.00    -0.244 OA
ATOM     28  OXT HIS A   1       0.040  -3.607   4.303  0.00  0.00    -0.244 OA
ENDBRANCH  25  26
BRANCH  25  29
ATOM     29  CB  HIS A   1       1.964  -5.425   2.546  0.00  0.00    +0.090 C 
BRANCH  29  30
ATOM     30  CG  HIS A   1       2.959  -5.378   1.415  0.00  0.00    +0.036 A 
ATOM     31  CD2 HIS A   1       2.898  -6.095   0.277  0.00  0.00    +0.105 A 
ATOM     32  NE2 HIS A   1       3.993  -5.748  -0.469  0.00  0.00    -0.352 N 
ATOM     33  HE2 HIS A   1       4.227  -6.096  -1.343  0.00  0.00    +0.166 HD
ATOM     34  CE1 HIS A   1       4.685  -4.831   0.241  0.00  0.00    +0.171 A 
ATOM     35  ND1 HIS A   1       4.059  -4.611   1.365  0.00  0.00    -0.350 N 
ATOM     36  HD1 HIS A   1       4.344  -3.992   2.055  0.00  0.00    +0.166 HD
ENDBRANCH  29  30
ENDBRANCH  25  29
ENDBRANCH  10  25
TORSDOF 7
