REMARK  Name = ZINC63763420
REMARK  8 active torsions:
REMARK  status: ('A' for Active; 'I' for Inactive)
REMARK    1  A    between atoms: C_1  and  N_2
REMARK    2  A    between atoms: N_2  and  C_3
REMARK    3  A    between atoms: N_2  and  C_4
REMARK    4  A    between atoms: C_7  and  N_10
REMARK    5  A    between atoms: C_11  and  S_22
REMARK    6  A    between atoms: S_22  and  C_23
REMARK    7  A    between atoms: C_23  and  C_24
REMARK    8  A    between atoms: N_26  and  C_27
REMARK                            x       y       z     vdW  Elec       q    Type
REMARK                         _______ _______ _______ _____ _____    ______ ____
ROOT
ATOM      1  N   UNL     1      -0.008  -2.763  -4.836  0.00  0.00    -0.239 N 
ATOM      2  C   UNL     1      -0.129  -2.016  -6.089  0.00  0.00    +0.227 C 
ATOM      3  N   UNL     1       0.621  -2.687  -7.156  0.00  0.00    -0.317 N 
ATOM      4  C   UNL     1       0.530  -4.070  -7.271  0.00  0.00    +0.041 A 
ATOM      5  C   UNL     1       0.677  -4.712  -8.489  0.00  0.00    +0.024 A 
ATOM      6  C   UNL     1       0.590  -6.089  -8.552  0.00  0.00    +0.002 A 
ATOM      7  C   UNL     1       0.356  -6.833  -7.406  0.00  0.00    +0.001 A 
ATOM      8  C   UNL     1       0.202  -6.209  -6.185  0.00  0.00    +0.015 A 
ATOM      9  C   UNL     1       0.284  -4.821  -6.108  0.00  0.00    +0.058 A 
ATOM     10  C   UNL     1       0.107  -4.106  -4.833  0.00  0.00    +0.255 C 
ATOM     11  O   UNL     1       0.062  -4.723  -3.786  0.00  0.00    -0.269 OA
ATOM     12  H   UNL     1       1.170  -2.176  -7.771  0.00  0.00    +0.149 HD
ENDROOT
BRANCH   1  16
ATOM     13  C   UNL     1       0.000  -0.697  -1.213  0.00  0.00    +0.029 A 
ATOM     14  C   UNL     1       1.194  -0.922  -1.887  0.00  0.00    +0.025 A 
ATOM     15  C   UNL     1       1.191  -1.606  -3.086  0.00  0.00    +0.025 A 
ATOM     16  C   UNL     1      -0.005  -2.069  -3.619  0.00  0.00    +0.039 A 
ATOM     17  C   UNL     1      -1.199  -1.843  -2.946  0.00  0.00    +0.025 A 
ATOM     18  C   UNL     1      -1.196  -1.164  -1.744  0.00  0.00    +0.025 A 
BRANCH  13  20
ATOM     19  C   UNL     1      -1.256   0.228   0.716  0.00  0.00    +0.129 C 
ATOM     20  N   UNL     1       0.003  -0.004   0.002  0.00  0.00    -0.336 N 
ATOM     21  C   UNL     1       1.264   0.488   0.562  0.00  0.00    +0.129 C 
ENDBRANCH  13  20
ENDBRANCH   1  16
BRANCH   2  22
ATOM     22  S   UNL     1      -1.878  -1.916  -6.561  0.00  0.00    -0.109 S 
BRANCH  22  23
ATOM     23  C   UNL     1      -2.383  -3.648  -6.744  0.00  0.00    +0.173 C 
BRANCH  23  24
ATOM     24  C   UNL     1      -3.836  -3.708  -7.140  0.00  0.00    +0.259 C 
ATOM     25  O   UNL     1      -4.432  -4.901  -7.333  0.00  0.00    -0.270 OA
ATOM     26  N   UNL     1      -4.515  -2.608  -7.295  0.00  0.00    -0.175 NA
BRANCH  26  27
ATOM     27  C   UNL     1      -5.829  -2.663  -7.653  0.00  0.00    +0.249 A 
ATOM     28  H   UNL     1      -6.420  -0.664  -7.750  0.00  0.00    +0.192 HD
ATOM     29  N   UNL     1      -6.532  -3.759  -7.872  0.00  0.00    -0.198 NA
ATOM     30  C   UNL     1      -7.779  -3.433  -8.202  0.00  0.00    +0.247 A 
ATOM     31  N   UNL     1      -7.900  -2.132  -8.201  0.00  0.00    -0.159 NA
ATOM     32  N   UNL     1      -6.650  -1.602  -7.842  0.00  0.00    -0.243 N 
ENDBRANCH  26  27
ENDBRANCH  23  24
ENDBRANCH  22  23
ENDBRANCH   2  22
TORSDOF 6
