REMARK  Name = ZINC60382075
REMARK  8 active torsions:
REMARK  status: ('A' for Active; 'I' for Inactive)
REMARK    1  A    between atoms: C_1  and  C_2
REMARK    2  A    between atoms: C_5  and  C_22
REMARK    3  A    between atoms: C_6  and  C_8
REMARK    4  A    between atoms: C_8  and  C_10
REMARK    5  A    between atoms: C_8  and  N_11
REMARK    6  A    between atoms: N_14  and  C_15
REMARK    7  A    between atoms: C_16  and  C_21
REMARK    8  A    between atoms: C_19  and  C_20
REMARK                            x       y       z     vdW  Elec       q    Type
REMARK                         _______ _______ _______ _____ _____    ______ ____
ROOT
ATOM      1  N   UNL     1       0.931  -1.708   3.425  0.00  0.00    -0.293 N 
ATOM      2  C   UNL     1       1.632  -2.335   4.391  0.00  0.00    +0.304 C 
ATOM      3  O   UNL     1       2.162  -3.405   4.161  0.00  0.00    -0.252 OA
ATOM      4  N   UNL     1       1.747  -1.775   5.611  0.00  0.00    -0.265 N 
ATOM      5  H   UNL     1       0.508  -0.855   3.608  0.00  0.00    +0.151 HD
ATOM      6  H   UNL     1       1.256  -0.965   5.821  0.00  0.00    +0.157 HD
ENDROOT
BRANCH   4   7
ATOM      7  C   UNL     1       2.579  -2.365   6.581  0.00  0.00    +0.100 A 
ATOM      8  C   UNL     1       2.623  -3.735   6.913  0.00  0.00    +0.102 A 
ATOM      9  N   UNL     1       3.513  -3.896   7.851  0.00  0.00    -0.081 NA
ATOM     10  O   UNL     1       4.069  -2.628   8.150  0.00  0.00    -0.358 OA
ATOM     11  C   UNL     1       3.479  -1.719   7.354  0.00  0.00    +0.156 A 
ATOM     12  C   UNL     1       3.770  -0.241   7.330  0.00  0.00    +0.091 C 
ATOM     13  C   UNL     1       1.787  -4.824   6.290  0.00  0.00    +0.071 C 
ENDBRANCH   4   7
BRANCH   1  14
ATOM     14  C   UNL     1       0.806  -2.317   2.098  0.00  0.00    +0.102 C 
ATOM     15  C   UNL     1      -0.416  -3.237   2.072  0.00  0.00    +0.033 C 
BRANCH  14  21
ATOM     16  C   UNL     1      -0.709   2.283   0.838  0.00  0.00    +0.044 C 
ATOM     17  C   UNL     1      -0.083   0.966   0.460  0.00  0.00    -0.050 A 
ATOM     18  C   UNL     1       0.342   0.750  -0.839  0.00  0.00    +0.003 A 
ATOM     19  C   UNL     1       0.916  -0.458  -1.186  0.00  0.00    +0.004 A 
ATOM     20  C   UNL     1       1.066  -1.451  -0.235  0.00  0.00    -0.046 A 
ATOM     21  C   UNL     1       0.643  -1.235   1.062  0.00  0.00    -0.024 A 
ATOM     22  C   UNL     1       0.072  -0.025   1.411  0.00  0.00    +0.009 A 
ATOM     23  C   UNL     1       1.691  -2.769  -0.615  0.00  0.00    +0.044 C 
ENDBRANCH  14  21
ENDBRANCH   1  14
TORSDOF 3
