REMARK  Name = ZINC20572979
REMARK  7 active torsions:
REMARK  status: ('A' for Active; 'I' for Inactive)
REMARK    1  A    between atoms: C_1  and  O_2
REMARK    2  A    between atoms: O_2  and  C_3
REMARK    3  A    between atoms: C_7  and  C_11
REMARK    4  A    between atoms: C_8  and  O_9
REMARK    5  A    between atoms: O_9  and  C_10
REMARK    6  A    between atoms: N_13  and  C_14
REMARK    7  A    between atoms: C_14  and  C_15
REMARK                            x       y       z     vdW  Elec       q    Type
REMARK                         _______ _______ _______ _____ _____    ______ ____
ROOT
ATOM      1  C   UNL     1       2.718  -6.527  -4.719  0.00  0.00    +0.233 C 
ATOM      2  O   UNL     1       3.140  -5.674  -5.471  0.00  0.00    -0.274 OA
ATOM      3  N   UNL     1       2.893  -7.831  -5.013  0.00  0.00    -0.300 N 
ATOM      4  C   UNL     1       2.382  -8.876  -4.115  0.00  0.00    +0.110 C 
ATOM      5  C   UNL     1       3.530  -9.826  -3.761  0.00  0.00    +0.047 C 
ATOM      6  C   UNL     1       4.165 -10.355  -5.048  0.00  0.00    +0.064 C 
ATOM      7  C   UNL     1       4.732  -9.192  -5.862  0.00  0.00    +0.047 C 
ATOM      8  C   UNL     1       3.592  -8.234  -6.241  0.00  0.00    +0.110 C 
ATOM      9  C   UNL     1       5.265 -11.325  -4.710  0.00  0.00    +0.057 A 
ATOM     10  C   UNL     1       5.138 -12.668  -4.812  0.00  0.00    +0.039 A 
ATOM     11  N   UNL     1       6.292 -13.222  -4.439  0.00  0.00    -0.349 N 
ATOM     12  C   UNL     1       7.133 -12.276  -4.108  0.00  0.00    +0.171 A 
ATOM     13  N   UNL     1       6.525 -11.077  -4.264  0.00  0.00    -0.348 N 
ATOM     14  H   UNL     1       6.914 -10.205  -4.091  0.00  0.00    +0.166 HD
ATOM     15  C   UNL     1       3.869 -13.341  -5.274  0.00  0.00    +0.070 C 
ATOM     16  C   UNL     1       2.732 -12.313  -5.192  0.00  0.00    +0.088 C 
ATOM     17  N   UNL     1       3.148 -11.062  -5.843  0.00  0.00    -0.305 NA
ATOM     18  H   UNL     1       2.353 -10.468  -6.024  0.00  0.00    +0.123 HD
ATOM     19  H   UNL     1       6.479 -14.173  -4.417  0.00  0.00    +0.166 HD
ENDROOT
BRANCH   1  20
ATOM     20  C   UNL     1       1.999  -6.130  -3.456  0.00  0.00    +0.200 C 
BRANCH  20  23
ATOM     21  C   UNL     1       1.339  -4.081  -2.313  0.00  0.00    +0.248 C 
ATOM     22  O   UNL     1       0.845  -4.764  -1.437  0.00  0.00    -0.270 OA
ATOM     23  N   UNL     1       1.940  -4.669  -3.367  0.00  0.00    -0.303 N 
ATOM     24  H   UNL     1       2.334  -4.124  -4.066  0.00  0.00    +0.150 HD
BRANCH  21  29
ATOM     25  C   UNL     1       0.606  -0.608  -1.056  0.00  0.00    +0.162 A 
ATOM     26  C   UNL     1       1.172   0.160  -2.061  0.00  0.00    +0.049 A 
ATOM     27  C   UNL     1       1.789  -0.448  -3.142  0.00  0.00    +0.005 A 
ATOM     28  C   UNL     1       1.847  -1.821  -3.229  0.00  0.00    +0.017 A 
ATOM     29  C   UNL     1       1.280  -2.610  -2.223  0.00  0.00    +0.082 A 
ATOM     30  C   UNL     1       0.661  -1.996  -1.128  0.00  0.00    +0.174 A 
BRANCH  25  32
ATOM     31  C   UNL     1      -0.017   1.425   0.010  0.00  0.00    +0.277 C 
ATOM     32  O   UNL     1       0.002  -0.004   0.002  0.00  0.00    -0.491 OA
ENDBRANCH  25  32
BRANCH  30  33
ATOM     33  O   UNL     1       0.112  -2.752  -0.142  0.00  0.00    -0.491 OA
ATOM     34  C   UNL     1      -1.258  -3.124  -0.298  0.00  0.00    +0.277 C 
ENDBRANCH  30  33
ENDBRANCH  21  29
ENDBRANCH  20  23
ENDBRANCH   1  20
TORSDOF 5
