REMARK  Name = ZINC39688679
REMARK  8 active torsions:
REMARK  status: ('A' for Active; 'I' for Inactive)
REMARK    1  A    between atoms: C_1  and  C_2
REMARK    2  A    between atoms: C_2  and  C_4
REMARK    3  A    between atoms: C_2  and  N_12
REMARK    4  A    between atoms: C_4  and  C_5
REMARK    5  A    between atoms: C_13  and  C_15
REMARK    6  A    between atoms: C_26  and  C_28
REMARK    7  A    between atoms: C_32  and  O_33
REMARK    8  A    between atoms: O_33  and  C_34
REMARK                            x       y       z     vdW  Elec       q    Type
REMARK                         _______ _______ _______ _____ _____    ______ ____
ROOT
ATOM      1  C   UNL     1       2.788  -0.993   2.359  0.00  0.00    +0.100 C 
ATOM      2  C   UNL     1       2.675  -0.009   3.545  0.00  0.00    +0.121 C 
ATOM      3  N   UNL     1       3.998  -0.072   4.211  0.00  0.00    -0.296 N 
ATOM      4  C   UNL     1       4.969  -0.158   3.095  0.00  0.00    +0.115 C 
ATOM      5  C   UNL     1       4.295  -1.087   2.066  0.00  0.00    -0.004 C 
ATOM      6  C   UNL     1       4.589  -0.606   0.648  0.00  0.00    -0.010 C 
ATOM      7  C   UNL     1       6.085  -0.764   0.360  0.00  0.00    -0.082 C 
ATOM      8  N   UNL     1       6.468  -2.173   0.509  0.00  0.00    +0.379 N 
ATOM      9  C   UNL     1       6.269  -2.602   1.899  0.00  0.00    -0.082 C 
ATOM     10  C   UNL     1       4.781  -2.521   2.252  0.00  0.00    -0.010 C 
ATOM     11  C   UNL     1       4.258  -0.057   5.533  0.00  0.00    +0.251 C 
ATOM     12  O   UNL     1       3.342  -0.079   6.334  0.00  0.00    -0.270 OA
ATOM     13  H   UNL     1       5.899  -2.741  -0.101  0.00  0.00    -0.086 HD
ATOM     14  H   UNL     1       7.439  -2.284   0.260  0.00  0.00    -0.086 HD
ENDROOT
BRANCH  11  15
ATOM     15  C   UNL     1       5.649  -0.013   6.008  0.00  0.00    +0.087 A 
ATOM     16  C   UNL     1       6.632   0.646   5.303  0.00  0.00    +0.063 A 
ATOM     17  S   UNL     1       8.019   0.423   6.219  0.00  0.00    -0.081 S 
ATOM     18  C   UNL     1       7.357  -0.541   7.560  0.00  0.00    +0.120 A 
ATOM     19  C   UNL     1       6.048  -0.653   7.241  0.00  0.00    +0.158 A 
ATOM     20 CL   UNL     1       8.189  -1.178   8.944  0.00  0.00    -0.072 Cl
BRANCH  19  21
ATOM     21  O   UNL     1       5.165  -1.328   8.027  0.00  0.00    -0.492 OA
ATOM     22  C   UNL     1       4.995  -2.722   7.763  0.00  0.00    +0.277 C 
ENDBRANCH  19  21
ENDBRANCH  11  15
BRANCH   1  24
ATOM     23  N   UNL     1       1.475  -1.303   0.285  0.00  0.00    -0.312 N 
ATOM     24  C   UNL     1       2.053  -0.455   1.158  0.00  0.00    +0.218 C 
ATOM     25  O   UNL     1       1.982   0.743   0.978  0.00  0.00    -0.275 OA
ATOM     26  H   UNL     1       1.533  -2.261   0.430  0.00  0.00    +0.149 HD
BRANCH  23  28
ATOM     27  C   UNL     1      -0.677  -0.438  -0.487  0.00  0.00    +0.028 C 
ATOM     28  C   UNL     1       0.761  -0.780  -0.881  0.00  0.00    +0.074 C 
BRANCH  28  29
ATOM     29  C   UNL     1       0.749  -1.836  -1.988  0.00  0.00    +0.057 C 
BRANCH  29  30
ATOM     30  C   UNL     1       2.158  -2.084  -2.462  0.00  0.00    -0.045 A 
ATOM     31  C   UNL     1       2.681  -1.331  -3.497  0.00  0.00    +0.006 A 
ATOM     32  C   UNL     1       3.974  -1.557  -3.931  0.00  0.00    +0.038 A 
ATOM     33  C   UNL     1       4.744  -2.537  -3.330  0.00  0.00    +0.123 A 
ATOM     34  C   UNL     1       4.219  -3.291  -2.294  0.00  0.00    +0.038 A 
ATOM     35  C   UNL     1       2.929  -3.059  -1.857  0.00  0.00    +0.006 A 
ATOM     36  F   UNL     1       6.008  -2.759  -3.754  0.00  0.00    -0.205 F 
ENDBRANCH  29  30
ENDBRANCH  28  29
ENDBRANCH  23  28
ENDBRANCH   1  24
TORSDOF 6
