REMARK  Name = ZINC39479808
REMARK  3 active torsions:
REMARK  status: ('A' for Active; 'I' for Inactive)
REMARK    1  A    between atoms: C_1  and  N_2
REMARK    2  A    between atoms: C_6  and  O_10
REMARK    3  A    between atoms: C_8  and  O_9
REMARK                            x       y       z     vdW  Elec       q    Type
REMARK                         _______ _______ _______ _____ _____    ______ ____
ROOT
ATOM      1  C   UNL     1      -0.018   1.461   0.010  0.00  0.00    +0.137 C 
ATOM      2  N   UNL     1       0.002  -0.004   0.002  0.00  0.00    -0.283 N 
ATOM      3  C   UNL     1      -1.247  -0.587   0.005  0.00  0.00    +0.081 A 
ATOM      4  C   UNL     1      -2.257   0.121   0.624  0.00  0.00    -0.013 A 
ATOM      5  C   UNL     1      -3.568   0.029   0.330  0.00  0.00    +0.051 A 
ATOM      6  C   UNL     1      -3.944  -1.086  -0.436  0.00  0.00    +0.121 A 
ATOM      7  C   UNL     1      -2.974  -1.994  -0.839  0.00  0.00    +0.092 A 
ATOM      8  C   UNL     1      -1.619  -1.764  -0.632  0.00  0.00    +0.142 A 
ATOM      9  C   UNL     1      -1.768   0.588   2.033  0.00  0.00    +0.099 C 
ATOM     10  C   UNL     1      -0.375  -0.034   1.996  0.00  0.00    +0.084 C 
ATOM     11  N   UNL     1       0.751   0.583   1.906  0.00  0.00    -0.239 NA
ATOM     12  C   UNL     1       1.749  -0.137   1.324  0.00  0.00    +0.141 A 
ATOM     13  C   UNL     1       1.255  -0.548  -0.013  0.00  0.00    +0.156 A 
ATOM     14  N   UNL     1       2.017  -1.234  -0.775  0.00  0.00    -0.218 NA
ATOM     15  C   UNL     1       3.238  -1.581  -0.379  0.00  0.00    +0.225 A 
ATOM     16  N   UNL     1       3.720  -1.242   0.802  0.00  0.00    -0.222 NA
ATOM     17  C   UNL     1       2.997  -0.523   1.680  0.00  0.00    +0.160 A 
ATOM     18 CL   UNL     1       3.648  -0.090   3.230  0.00  0.00    -0.060 Cl
ATOM     19  I   UNL     1      -0.285  -2.124   2.104  0.00  0.00    -0.027 I 
ENDROOT
BRANCH   8  20
ATOM     20  O   UNL     1      -0.686  -2.663  -1.043  0.00  0.00    -0.505 OA
ATOM     21  H   UNL     1      -0.465  -3.331  -0.380  0.00  0.00    +0.292 HD
ENDBRANCH   8  20
BRANCH   6  22
ATOM     22  O   UNL     1      -5.246  -1.275  -0.779  0.00  0.00    -0.507 OA
ATOM     23  H   UNL     1      -5.495  -0.864  -1.618  0.00  0.00    +0.292 HD
ENDBRANCH   6  22
TORSDOF 2
