REMARK  Name = ZINC18350627
REMARK  8 active torsions:
REMARK  status: ('A' for Active; 'I' for Inactive)
REMARK    1  A    between atoms: C_1  and  C_2
REMARK    2  A    between atoms: N_11  and  C_15
REMARK    3  A    between atoms: C_15  and  C_16
REMARK    4  A    between atoms: N_18  and  C_19
REMARK    5  A    between atoms: C_19  and  C_21
REMARK    6  A    between atoms: C_19  and  C_32
REMARK    7  A    between atoms: C_32  and  C_33
REMARK    8  A    between atoms: C_32  and  C_34
REMARK                            x       y       z     vdW  Elec       q    Type
REMARK                         _______ _______ _______ _____ _____    ______ ____
ROOT
ATOM      1  C   UNL     1       1.147   1.655   0.000  0.00  0.00    +0.231 C 
ATOM      2  O   UNL     1       1.130   2.868   0.007  0.00  0.00    -0.274 OA
ATOM      3  N   UNL     1      -0.011   0.966   0.007  0.00  0.00    -0.307 N 
ATOM      4  H   UNL     1       0.002  -0.004   0.002  0.00  0.00    +0.149 HD
ENDROOT
BRANCH   1   5
ATOM      5  C   UNL     1       2.462   0.920  -0.017  0.00  0.00    +0.213 C 
BRANCH   5  15
ATOM      6  C   UNL     1       6.813   1.432  -0.699  0.00  0.00    +0.010 C 
ATOM      7  C   UNL     1       6.569   2.872  -1.153  0.00  0.00    +0.018 C 
ATOM      8  C   UNL     1       6.613   2.939  -2.682  0.00  0.00    +0.006 C 
ATOM      9  C   UNL     1       6.349   4.376  -3.136  0.00  0.00    +0.000 C 
ATOM     10  C   UNL     1       4.965   4.817  -2.656  0.00  0.00    +0.003 C 
ATOM     11  C   UNL     1       4.913   4.758  -1.127  0.00  0.00    +0.035 C 
ATOM     12  C   UNL     1       5.202   3.335  -0.661  0.00  0.00    +0.115 C 
ATOM     13  C   UNL     1       4.125   2.389  -1.141  0.00  0.00    +0.247 C 
ATOM     14  O   UNL     1       3.827   2.137  -2.288  0.00  0.00    -0.273 OA
ATOM     15  N   UNL     1       3.562   1.887  -0.022  0.00  0.00    -0.215 N 
ATOM     16  C   UNL     1       4.138   2.377   1.083  0.00  0.00    +0.310 C 
ATOM     17  O   UNL     1       3.807   2.071   2.211  0.00  0.00    -0.252 OA
ATOM     18  N   UNL     1       5.127   3.248   0.803  0.00  0.00    -0.285 N 
ATOM     19  H   UNL     1       5.679   3.725   1.442  0.00  0.00    +0.151 HD
ENDBRANCH   5  15
ENDBRANCH   1   5
BRANCH   3  20
ATOM     20  C   UNL     1      -1.290   1.681   0.017  0.00  0.00    +0.106 C 
BRANCH  20  21
ATOM     21  C   UNL     1      -2.354   0.799   0.618  0.00  0.00    -0.023 A 
ATOM     22  C   UNL     1      -2.382  -0.550   0.316  0.00  0.00    +0.009 A 
ATOM     23  C   UNL     1      -3.355  -1.366   0.865  0.00  0.00    +0.050 A 
ATOM     24  C   UNL     1      -4.302  -0.826   1.719  0.00  0.00    +0.162 A 
ATOM     25  C   UNL     1      -4.275   0.528   2.020  0.00  0.00    +0.162 A 
ATOM     26  C   UNL     1      -3.296   1.341   1.474  0.00  0.00    +0.055 A 
ATOM     27  O   UNL     1      -5.213   1.050   2.862  0.00  0.00    -0.488 OA
ATOM     28  C   UNL     1      -6.552   1.081   2.364  0.00  0.00    +0.232 C 
ATOM     29  C   UNL     1      -7.245  -0.252   2.598  0.00  0.00    +0.082 C 
ATOM     30  C   UNL     1      -6.602  -1.385   1.815  0.00  0.00    +0.232 C 
ATOM     31  O   UNL     1      -5.267  -1.620   2.268  0.00  0.00    -0.488 OA
ENDBRANCH  20  21
BRANCH  20  32
ATOM     32  C   UNL     1      -1.680   2.047  -1.416  0.00  0.00    +0.008 C 
ATOM     33  C   UNL     1      -3.015   2.794  -1.405  0.00  0.00    +0.009 C 
ATOM     34  C   UNL     1      -0.600   2.943  -2.026  0.00  0.00    +0.009 C 
ENDBRANCH  20  32
ENDBRANCH   3  20
TORSDOF 5
