REMARK  Name = ZINC63339795
REMARK  6 active torsions:
REMARK  status: ('A' for Active; 'I' for Inactive)
REMARK    1  A    between atoms: C_1  and  C_2
REMARK    2  A    between atoms: C_2  and  C_3
REMARK    3  A    between atoms: C_3  and  C_4
REMARK    4  A    between atoms: C_4  and  C_5
REMARK    5  A    between atoms: C_5  and  C_6
REMARK    6  A    between atoms: C_6  and  C_7
REMARK                            x       y       z     vdW  Elec       q    Type
REMARK                         _______ _______ _______ _____ _____    ______ ____
ROOT
ATOM      1  C   UNL     1      -4.263  -4.652   0.018  0.00  0.00    +0.080 C 
ATOM      2  C   UNL     1      -4.247  -6.177  -0.111  0.00  0.00    +0.125 C 
ATOM      3  C   UNL     1      -5.696  -6.637   0.007  0.00  0.00    -0.031 C 
ATOM      4  C   UNL     1      -5.950  -7.368  -1.068  0.00  0.00    -0.000 A 
ATOM      5  C   UNL     1      -7.135  -8.141  -1.474  0.00  0.00    +0.010 A 
ATOM      6  C   UNL     1      -7.055  -8.774  -2.674  0.00  0.00    +0.001 A 
ATOM      7  C   UNL     1      -5.929  -8.718  -3.501  0.00  0.00    +0.002 A 
ATOM      8  C   UNL     1      -4.794  -8.037  -3.204  0.00  0.00    +0.026 A 
ATOM      9  C   UNL     1      -4.754  -7.333  -1.966  0.00  0.00    +0.043 A 
ATOM     10  N   UNL     1      -3.783  -6.623  -1.425  0.00  0.00    -0.376 N 
ATOM     11  C   UNL     1      -6.571  -6.175   1.150  0.00  0.00    +0.085 C 
ATOM     12  CA  UNL     1      -6.250  -4.696   1.315  0.00  0.00    +0.032 C 
ATOM     13  N   UNL     1      -4.914  -4.284   1.284  0.00  0.00    -0.401 NA
ATOM     14  C   UNL     1      -7.216  -3.817   1.484  0.00  0.00    +0.268 C 
ATOM     15  O   UNL     1      -6.918  -2.502   1.630  0.00  0.00    -0.295 OA
ATOM     16  H1  UNL     1      -4.419  -4.720   2.048  0.00  0.00    +0.124 HD
ATOM     17  H   UNL     1      -2.920  -6.424  -1.819  0.00  0.00    +0.160 HD
ATOM     18  H2  UNL     1      -4.874  -3.282   1.396  0.00  0.00    +0.124 HD
ENDROOT
BRANCH   1  19
ATOM     19  C   UNL     1      -2.827  -4.123   0.007  0.00  0.00    +0.023 C 
BRANCH  19  20
ATOM     20  C   UNL     1      -2.848  -2.593   0.015  0.00  0.00    +0.002 C 
BRANCH  20  21
ATOM     21  C   UNL     1      -1.413  -2.063   0.004  0.00  0.00    +0.000 C 
BRANCH  21  22
ATOM     22  C   UNL     1      -1.433  -0.534   0.013  0.00  0.00    -0.000 C 
BRANCH  22  24
ATOM     23  C   UNL     1      -0.019   1.526   0.010  0.00  0.00    +0.004 C 
ATOM     24  C   UNL     1       0.002  -0.004   0.002  0.00  0.00    -0.003 C 
ENDBRANCH  22  24
ENDBRANCH  21  22
ENDBRANCH  20  21
ENDBRANCH  19  20
ENDBRANCH   1  19
TORSDOF 5
