REMARK  Name = ZINC39665214
REMARK  7 active torsions:
REMARK  status: ('A' for Active; 'I' for Inactive)
REMARK    1  A    between atoms: C_1  and  C_2
REMARK    2  A    between atoms: C_2  and  C_4
REMARK    3  A    between atoms: C_2  and  O_29
REMARK    4  A    between atoms: C_4  and  N_5
REMARK    5  A    between atoms: C_6  and  C_8
REMARK    6  A    between atoms: C_19  and  C_21
REMARK    7  A    between atoms: O_29  and  C_30
REMARK                            x       y       z     vdW  Elec       q    Type
REMARK                         _______ _______ _______ _____ _____    ______ ____
ROOT
ATOM      1  C   UNL     1      -2.993  -4.724  -0.060  0.00  0.00    +0.100 C 
ATOM      2  C   UNL     1      -2.195  -5.346  -1.227  0.00  0.00    +0.121 C 
ATOM      3  N   UNL     1      -2.979  -6.540  -1.622  0.00  0.00    -0.296 N 
ATOM      4  C   UNL     1      -4.392  -6.103  -1.521  0.00  0.00    +0.115 C 
ATOM      5  C   UNL     1      -4.434  -5.223  -0.256  0.00  0.00    -0.004 C 
ATOM      6  C   UNL     1      -4.876  -6.049   0.948  0.00  0.00    -0.010 C 
ATOM      7  C   UNL     1      -6.331  -6.486   0.754  0.00  0.00    -0.082 C 
ATOM      8  N   UNL     1      -7.184  -5.300   0.609  0.00  0.00    +0.379 N 
ATOM      9  C   UNL     1      -6.813  -4.561  -0.603  0.00  0.00    -0.082 C 
ATOM     10  C   UNL     1      -5.378  -4.043  -0.467  0.00  0.00    -0.010 C 
ATOM     11  C   UNL     1      -2.513  -7.750  -1.990  0.00  0.00    +0.249 C 
ATOM     12  O   UNL     1      -3.286  -8.615  -2.353  0.00  0.00    -0.270 OA
ATOM     13  H   UNL     1      -8.149  -5.588   0.543  0.00  0.00    -0.086 HD
ATOM     14  H   UNL     1      -7.069  -4.704   1.414  0.00  0.00    -0.086 HD
ENDROOT
BRANCH  11  15
ATOM     15  C   UNL     1      -1.062  -8.024  -1.954  0.00  0.00    +0.073 A 
ATOM     16  C   UNL     1      -0.149  -7.021  -2.285  0.00  0.00    +0.016 A 
ATOM     17  C   UNL     1       1.204  -7.283  -2.248  0.00  0.00    +0.002 A 
ATOM     18  C   UNL     1       1.661  -8.538  -1.885  0.00  0.00    +0.023 A 
ATOM     19  C   UNL     1       0.766  -9.539  -1.555  0.00  0.00    +0.077 A 
ATOM     20  C   UNL     1      -0.596  -9.289  -1.582  0.00  0.00    +0.154 A 
ATOM     21  F   UNL     1      -1.471 -10.265  -1.255  0.00  0.00    -0.203 F 
ATOM     22 CL   UNL     1       1.350 -11.109  -1.100  0.00  0.00    -0.081 Cl
ENDBRANCH  11  15
BRANCH   1  24
ATOM     23  N   UNL     1      -3.001  -2.487   0.996  0.00  0.00    -0.312 N 
ATOM     24  C   UNL     1      -2.943  -3.219  -0.134  0.00  0.00    +0.218 C 
ATOM     25  O   UNL     1      -2.852  -2.668  -1.210  0.00  0.00    -0.275 OA
ATOM     26  H   UNL     1      -3.074  -2.928   1.857  0.00  0.00    +0.149 HD
BRANCH  23  27
ATOM     27  C   UNL     1      -2.953  -1.024   0.925  0.00  0.00    +0.148 C 
BRANCH  27  29
ATOM     28  C   UNL     1      -3.111   1.084   2.255  0.00  0.00    +0.053 C 
ATOM     29  C   UNL     1      -3.035  -0.442   2.337  0.00  0.00    +0.187 C 
BRANCH  29  30
ATOM     30  O   UNL     1      -1.874  -0.822   3.077  0.00  0.00    -0.488 OA
BRANCH  30  31
ATOM     31  C   UNL     1      -1.987  -0.850   4.431  0.00  0.00    +0.121 A 
ATOM     32  C   UNL     1      -3.216  -0.618   5.031  0.00  0.00    +0.045 A 
ATOM     33  C   UNL     1      -3.329  -0.648   6.407  0.00  0.00    +0.004 A 
ATOM     34  C   UNL     1      -2.217  -0.907   7.188  0.00  0.00    +0.000 A 
ATOM     35  C   UNL     1      -0.991  -1.138   6.593  0.00  0.00    +0.004 A 
ATOM     36  C   UNL     1      -0.874  -1.116   5.216  0.00  0.00    +0.045 A 
ENDBRANCH  30  31
ENDBRANCH  29  30
ENDBRANCH  27  29
ENDBRANCH  23  27
ENDBRANCH   1  24
TORSDOF 6
