REMARK  Name = ZINC63687488
REMARK  9 active torsions:
REMARK  status: ('A' for Active; 'I' for Inactive)
REMARK    1  A    between atoms: C_1  and  C_2
REMARK    2  A    between atoms: C_3  and  C_22
REMARK    3  A    between atoms: C_4  and  C_21
REMARK    4  A    between atoms: C_7  and  C_8
REMARK    5  A    between atoms: C_14  and  C_16
REMARK    6  A    between atoms: N_18  and  C_19
REMARK    7  A    between atoms: N_18  and  C_20
REMARK    8  A    between atoms: C_22  and  O_24
REMARK    9  A    between atoms: O_24  and  C_25
REMARK                            x       y       z     vdW  Elec       q    Type
REMARK                         _______ _______ _______ _____ _____    ______ ____
ROOT
ATOM      1  C   UNL     1       0.215  -0.747   2.518  0.00  0.00    +0.263 C 
ATOM      2  O   UNL     1       0.560   0.387   2.791  0.00  0.00    -0.268 OA
ATOM      3  N   UNL     1      -0.089  -1.615   3.504  0.00  0.00    -0.296 N 
ATOM      4  C   UNL     1      -0.395  -3.018   3.198  0.00  0.00    +0.108 C 
ATOM      5  C   UNL     1      -1.747  -3.376   3.824  0.00  0.00    +0.020 C 
ATOM      6  C   UNL     1      -1.715  -3.051   5.319  0.00  0.00    +0.016 C 
ATOM      7  C   UNL     1      -1.474  -1.552   5.512  0.00  0.00    +0.092 C 
ATOM      8  C   UNL     1      -0.114  -1.175   4.906  0.00  0.00    +0.120 C 
ENDROOT
BRANCH   1  15
ATOM      9  C   UNL     1       2.290  -2.551   1.045  0.00  0.00    +0.047 C 
ATOM     10  C   UNL     1       1.031  -1.960   0.464  0.00  0.00    -0.006 A 
ATOM     11  C   UNL     1       0.559  -2.121  -0.859  0.00  0.00    +0.083 A 
ATOM     12  C   UNL     1      -0.623  -1.410  -0.957  0.00  0.00    +0.028 A 
ATOM     13  N   UNL     1      -0.873  -0.839   0.232  0.00  0.00    -0.354 N 
ATOM     14  H   UNL     1      -1.641  -0.283   0.437  0.00  0.00    +0.166 HD
ATOM     15  C   UNL     1       0.130  -1.171   1.115  0.00  0.00    +0.106 A 
ATOM     16  C   UNL     1      -1.483  -1.295  -2.189  0.00  0.00    +0.064 C 
BRANCH  11  17
ATOM     17  C   UNL     1       1.204  -2.900  -1.929  0.00  0.00    +0.341 C 
ATOM     18  O   UNL     1       0.932  -4.075  -2.075  0.00  0.00    -0.245 OA
BRANCH  17  19
ATOM     19  O   UNL     1       2.096  -2.308  -2.749  0.00  0.00    -0.464 OA
ATOM     20  C   UNL     1       2.682  -3.123  -3.765  0.00  0.00    +0.280 C 
ENDBRANCH  17  19
ENDBRANCH  11  17
ENDBRANCH   1  15
BRANCH   7  21
ATOM     21  C   UNL     1      -1.475  -1.228   6.984  0.00  0.00    +0.220 C 
ATOM     22  O   UNL     1      -1.335  -2.114   7.800  0.00  0.00    -0.275 OA
ATOM     23  N   UNL     1      -1.630   0.047   7.393  0.00  0.00    -0.307 N 
ATOM     24  C   UNL     1      -1.743   0.349   8.822  0.00  0.00    +0.131 C 
ATOM     25  C   UNL     1      -1.685   1.131   6.409  0.00  0.00    +0.131 C 
ENDBRANCH   7  21
TORSDOF 4
