REMARK  Name = ZINC62243123
REMARK  7 active torsions:
REMARK  status: ('A' for Active; 'I' for Inactive)
REMARK    1  A    between atoms: C_1  and  C_2
REMARK    2  A    between atoms: C_2  and  C_3
REMARK    3  A    between atoms: C_3  and  C_4
REMARK    4  A    between atoms: C_3  and  C_5
REMARK    5  A    between atoms: C_3  and  N_9
REMARK    6  A    between atoms: N_6  and  O_7
REMARK    7  A    between atoms: C_10  and  C_12
REMARK                            x       y       z     vdW  Elec       q    Type
REMARK                         _______ _______ _______ _____ _____    ______ ____
ROOT
ATOM      1  C   UNL     1      -1.395  -0.634  -0.054  0.00  0.00    +0.090 C 
ATOM      2  C   UNL     1      -1.116  -2.131   0.096  0.00  0.00    +0.040 C 
ENDROOT
BRANCH   1   3
ATOM      3  C   UNL     1      -2.205  -0.153   1.122  0.00  0.00    +0.155 C 
ATOM      4  N   UNL     1      -2.504  -0.969   2.077  0.00  0.00    -0.075 NA
ATOM      5  N   UNL     1      -2.628   1.157   1.177  0.00  0.00    -0.342 N 
ATOM      6  H   UNL     1      -2.342   1.788   0.499  0.00  0.00    +0.144 HD
ATOM      7  H   UNL     1      -3.212   1.448   1.895  0.00  0.00    +0.144 HD
BRANCH   4   8
ATOM      8  O   UNL     1      -3.266  -0.518   3.182  0.00  0.00    -0.408 OA
ATOM      9  H   UNL     1      -3.439  -1.199   3.846  0.00  0.00    +0.328 HD
ENDBRANCH   4   8
ENDBRANCH   1   3
BRANCH   1  10
ATOM     10  N   UNL     1      -2.143  -0.399  -1.292  0.00  0.00    -0.303 N 
ATOM     11  C   UNL     1      -1.610  -0.751  -2.478  0.00  0.00    +0.219 C 
ATOM     12  O   UNL     1      -0.511  -1.264  -2.522  0.00  0.00    -0.275 OA
ATOM     13  H   UNL     1      -3.021   0.011  -1.257  0.00  0.00    +0.150 HD
BRANCH  11  14
ATOM     14  C   UNL     1      -2.379  -0.510  -3.752  0.00  0.00    +0.101 C 
ATOM     15  C   UNL     1      -1.555  -0.995  -4.948  0.00  0.00    +0.017 C 
ATOM     16  C   UNL     1      -2.312  -0.673  -6.240  0.00  0.00    +0.029 C 
ATOM     17  C   UNL     1      -2.590   0.831  -6.298  0.00  0.00    +0.160 C 
ATOM     18  O   UNL     1      -3.333   1.222  -5.142  0.00  0.00    -0.379 OA
ATOM     19  C   UNL     1      -2.656   0.988  -3.905  0.00  0.00    +0.172 C 
ENDBRANCH  11  14
ENDBRANCH   1  10
BRANCH   1  21
ATOM     20  C   UNL     1       0.652  -0.011   1.235  0.00  0.00    +0.006 C 
ATOM     21  C   UNL     1      -0.070   0.129  -0.106  0.00  0.00    +0.030 C 
ENDBRANCH   1  21
TORSDOF 5
