REMARK  Name = ZINC43403932
REMARK  7 active torsions:
REMARK  status: ('A' for Active; 'I' for Inactive)
REMARK    1  A    between atoms: C_1  and  C_2
REMARK    2  A    between atoms: C_2  and  C_3
REMARK    3  A    between atoms: C_2  and  C_4
REMARK    4  A    between atoms: C_2  and  N_19
REMARK    5  A    between atoms: C_6  and  C_9
REMARK    6  A    between atoms: C_9  and  O_10
REMARK    7  A    between atoms: O_10  and  C_11
REMARK                            x       y       z     vdW  Elec       q    Type
REMARK                         _______ _______ _______ _____ _____    ______ ____
ROOT
ATOM      1  C   UNL     1      -1.412  -0.526   0.013  0.00  0.00    +0.160 A 
ATOM      2  N   UNL     1      -1.960  -1.305  -0.926  0.00  0.00    -0.195 NA
ATOM      3  C   UNL     1      -3.197  -1.577  -0.615  0.00  0.00    +0.265 A 
ATOM      4  O   UNL     1      -3.481  -0.973   0.546  0.00  0.00    -0.334 OA
ATOM      5  N   UNL     1      -2.296  -0.296   0.940  0.00  0.00    -0.063 NA
ENDROOT
BRANCH   1   7
ATOM      6  C   UNL     1      -0.019   1.526   0.010  0.00  0.00    -0.003 C 
ATOM      7  C   UNL     1       0.002  -0.004   0.002  0.00  0.00    -0.012 C 
ATOM      8  C   UNL     1       0.742  -0.511   1.242  0.00  0.00    -0.003 C 
BRANCH   7   9
ATOM      9  N   UNL     1       0.690  -0.478  -1.207  0.00  0.00    +0.386 N 
ATOM     10  H   UNL     1       1.636  -0.129  -1.214  0.00  0.00    -0.089 HD
ATOM     11  H   UNL     1       0.703  -1.487  -1.212  0.00  0.00    -0.089 HD
ATOM     12  H   UNL     1       0.202  -0.144  -2.024  0.00  0.00    -0.089 HD
ENDBRANCH   7   9
ENDBRANCH   1   7
BRANCH   3  13
ATOM     13  C   UNL     1      -4.145  -2.425  -1.424  0.00  0.00    +0.327 C 
BRANCH  13  14
ATOM     14  O   UNL     1      -4.035  -3.788  -1.010  0.00  0.00    -0.481 OA
BRANCH  14  15
ATOM     15  C   UNL     1      -4.829  -4.692  -1.644  0.00  0.00    +0.140 A 
ATOM     16  C   UNL     1      -5.690  -4.275  -2.648  0.00  0.00    +0.050 A 
ATOM     17  C   UNL     1      -6.496  -5.194  -3.292  0.00  0.00    +0.042 A 
ATOM     18  C   UNL     1      -6.444  -6.531  -2.937  0.00  0.00    +0.125 A 
ATOM     19  C   UNL     1      -5.585  -6.950  -1.935  0.00  0.00    +0.062 A 
ATOM     20  C   UNL     1      -4.774  -6.033  -1.292  0.00  0.00    +0.085 A 
ATOM     21 CL   UNL     1      -3.692  -6.559  -0.040  0.00  0.00    -0.080 Cl
ATOM     22  F   UNL     1      -7.233  -7.429  -3.568  0.00  0.00    -0.205 F 
ENDBRANCH  14  15
ENDBRANCH  13  14
ENDBRANCH   3  13
TORSDOF 5
