REMARK  Name = ZINC37803458
REMARK  2 active torsions:
REMARK  status: ('A' for Active; 'I' for Inactive)
REMARK    1  A    between atoms: C_3  and  C_7
REMARK    2  A    between atoms: C_13  and  C_15
REMARK                            x       y       z     vdW  Elec       q    Type
REMARK                         _______ _______ _______ _____ _____    ______ ____
ROOT
ATOM      1  C   UNL     1       3.625   0.673   0.090  0.00  0.00    +0.202 C 
ATOM      2  O   UNL     1       3.947  -0.028  -0.846  0.00  0.00    -0.277 OA
ATOM      3  N   UNL     1       4.551   1.423   0.720  0.00  0.00    -0.291 N 
ATOM      4  C   UNL     1       4.301   2.311   1.870  0.00  0.00    +0.108 C 
ATOM      5  C   UNL     1       5.671   2.431   2.583  0.00  0.00    +0.021 C 
ATOM      6  C   UNL     1       6.649   2.451   1.379  0.00  0.00    +0.033 C 
ATOM      7  C   UNL     1       5.980   1.487   0.377  0.00  0.00    +0.162 C 
ENDROOT
BRANCH   7   8
ATOM      8  C   UNL     1       6.148   2.011  -1.025  0.00  0.00    +0.236 C 
ATOM      9  O   UNL     1       5.172   2.307  -1.683  0.00  0.00    -0.274 OA
ATOM     10  N   UNL     1       7.381   2.153  -1.549  0.00  0.00    -0.296 N 
ATOM     11  C   UNL     1       8.579   1.796  -0.772  0.00  0.00    +0.136 C 
ATOM     12  C   UNL     1       9.457   0.879  -1.632  0.00  0.00    +0.179 C 
ATOM     13  O   UNL     1       9.684   1.498  -2.900  0.00  0.00    -0.377 OA
ATOM     14  C   UNL     1       8.498   1.709  -3.669  0.00  0.00    +0.179 C 
ATOM     15  C   UNL     1       7.570   2.663  -2.916  0.00  0.00    +0.136 C 
ENDBRANCH   7   8
BRANCH   1  18
ATOM     16  C   UNL     1      -0.019   1.536   0.011  0.00  0.00    -0.020 C 
ATOM     17  C   UNL     1       1.468   1.960  -0.001  0.00  0.00    -0.009 C 
ATOM     18  C   UNL     1       2.191   0.705   0.550  0.00  0.00    +0.016 C 
ATOM     19  N   UNL     1       1.421  -0.418  -0.044  0.00  0.00    +0.387 N 
ATOM     20  C   UNL     1       0.002  -0.004   0.002  0.00  0.00    -0.082 C 
ATOM     21  H   UNL     1       1.708  -0.571  -0.999  0.00  0.00    -0.085 HD
ATOM     22  H   UNL     1       1.556  -1.258   0.499  0.00  0.00    -0.085 HD
ENDBRANCH   1  18
TORSDOF 2
