REMARK  Name = ZINC37101347
REMARK  4 active torsions:
REMARK  status: ('A' for Active; 'I' for Inactive)
REMARK    1  A    between atoms: C_1  and  C_2
REMARK    2  A    between atoms: C_5  and  N_12
REMARK    3  A    between atoms: N_12  and  C_13
REMARK    4  A    between atoms: C_13  and  C_14
REMARK                            x       y       z     vdW  Elec       q    Type
REMARK                         _______ _______ _______ _____ _____    ______ ____
ROOT
ATOM      1  C   UNL     1      -0.018   1.503   0.010  0.00  0.00    +0.046 C 
ATOM      2  C   UNL     1       0.002  -0.004   0.002  0.00  0.00    -0.026 A 
ATOM      3  C   UNL     1       0.006  -0.678  -1.182  0.00  0.00    +0.007 A 
ATOM      4  C   UNL     1       0.024  -2.068  -1.219  0.00  0.00    +0.024 A 
ATOM      5  C   UNL     1       0.040  -2.802  -0.051  0.00  0.00    +0.037 A 
ATOM      6  C   UNL     1       0.037  -2.129   1.189  0.00  0.00    +0.019 A 
ATOM      7  C   UNL     1       0.023  -0.712   1.215  0.00  0.00    +0.051 A 
ATOM      8  N   UNL     1       0.025  -0.069   2.388  0.00  0.00    -0.360 N 
ATOM      9  C   UNL     1       0.044  -0.724   3.524  0.00  0.00    +0.083 A 
ATOM     10  C   UNL     1       0.064  -2.115   3.567  0.00  0.00    +0.018 A 
ATOM     11  C   UNL     1       0.053  -2.834   2.404  0.00  0.00    +0.013 A 
ATOM     12  H   UNL     1       0.012   0.901   2.398  0.00  0.00    +0.165 HD
ENDROOT
BRANCH   5  13
ATOM     13  N   UNL     1       0.059  -4.193  -0.095  0.00  0.00    -0.339 N 
ATOM     14  H   UNL     1       0.070  -4.705   0.729  0.00  0.00    +0.146 HD
BRANCH  13  15
ATOM     15  C   UNL     1       0.061  -4.885  -1.386  0.00  0.00    +0.139 C 
BRANCH  15  16
ATOM     16  C   UNL     1       0.082  -6.375  -1.158  0.00  0.00    +0.005 A 
ATOM     17  C   UNL     1       1.271  -7.073  -1.259  0.00  0.00    +0.009 A 
ATOM     18  C   UNL     1       1.291  -8.438  -1.050  0.00  0.00    +0.016 A 
ATOM     19  C   UNL     1       0.121  -9.109  -0.739  0.00  0.00    +0.021 A 
ATOM     20  C   UNL     1      -1.069  -8.412  -0.637  0.00  0.00    +0.054 A 
ATOM     21  C   UNL     1      -1.088  -7.043  -0.841  0.00  0.00    +0.129 A 
ATOM     22  F   UNL     1      -2.250  -6.360  -0.737  0.00  0.00    -0.205 F 
ATOM     23 BR   UNL     1       0.150 -10.978  -0.453  0.00  0.00    -0.050 Br
ENDBRANCH  15  16
ENDBRANCH  13  15
ENDBRANCH   5  13
TORSDOF 3
