REMARK  Name = ZINC46280590
REMARK  13 active torsions:
REMARK  status: ('A' for Active; 'I' for Inactive)
REMARK    1  A    between atoms: C_1  and  C_2
REMARK    2  A    between atoms: C_2  and  N_3
REMARK    3  A    between atoms: N_3  and  C_4
REMARK    4  A    between atoms: N_3  and  C_6
REMARK    5  A    between atoms: C_4  and  C_5
REMARK    6  A    between atoms: C_6  and  C_8
REMARK    7  A    between atoms: C_6  and  C_9
REMARK    8  A    between atoms: C_9  and  N_10
REMARK    9  A    between atoms: N_13  and  N_14
REMARK   10  A    between atoms: C_15  and  C_17
REMARK   11  A    between atoms: C_17  and  O_18
REMARK   12  A    between atoms: O_18  and  C_19
REMARK   13  A    between atoms: C_22  and  C_25
REMARK                            x       y       z     vdW  Elec       q    Type
REMARK                         _______ _______ _______ _____ _____    ______ ____
ROOT
ATOM      1  N   UNL     1       2.755  -1.838  -2.423  0.00  0.00    -0.300 N 
ATOM      2  C   UNL     1       3.650  -2.053  -3.407  0.00  0.00    +0.316 C 
ATOM      3  O   UNL     1       3.297  -2.570  -4.449  0.00  0.00    -0.251 OA
ATOM      4  N   UNL     1       4.938  -1.694  -3.236  0.00  0.00    -0.218 N 
ATOM      5  H   UNL     1       3.020  -1.361  -1.621  0.00  0.00    +0.150 HD
ATOM      6  H   UNL     1       5.568  -1.784  -3.968  0.00  0.00    +0.174 HD
ENDROOT
BRANCH   4   7
ATOM      7  N   UNL     1       5.367  -1.191  -2.000  0.00  0.00    -0.230 N 
ATOM      8  C   UNL     1       6.627  -0.733  -1.860  0.00  0.00    +0.267 C 
ATOM      9  O   UNL     1       7.389  -0.756  -2.803  0.00  0.00    -0.271 OA
ATOM     10  H   UNL     1       4.757  -1.173  -1.246  0.00  0.00    +0.173 HD
BRANCH   8  11
ATOM     11  C   UNL     1       7.088  -0.193  -0.531  0.00  0.00    +0.326 C 
BRANCH  11  12
ATOM     12  O   UNL     1       8.450   0.228  -0.635  0.00  0.00    -0.483 OA
BRANCH  12  13
ATOM     13  C   UNL     1       9.022   0.744   0.483  0.00  0.00    +0.121 A 
ATOM     14  C   UNL     1       8.287   0.837   1.659  0.00  0.00    +0.047 A 
ATOM     15  C   UNL     1       8.864   1.359   2.795  0.00  0.00    +0.022 A 
ATOM     16  C   UNL     1      10.191   1.796   2.764  0.00  0.00    +0.052 A 
ATOM     17  C   UNL     1      10.927   1.700   1.580  0.00  0.00    +0.022 A 
ATOM     18  C   UNL     1      10.344   1.172   0.450  0.00  0.00    +0.047 A 
BRANCH  16  19
ATOM     19  C   UNL     1      10.795   2.340   3.943  0.00  0.00    +0.099 C 
ATOM     20  N   UNL     1      11.274   2.771   4.879  0.00  0.00    -0.191 NA
ENDBRANCH  16  19
ENDBRANCH  12  13
ENDBRANCH  11  12
ENDBRANCH   8  11
ENDBRANCH   4   7
BRANCH   1  21
ATOM     21  C   UNL     1       1.380  -2.325  -2.565  0.00  0.00    +0.090 C 
BRANCH  21  22
ATOM     22  C   UNL     1       0.542  -1.840  -1.379  0.00  0.00    -0.054 C 
ATOM     23  C   UNL     1      -0.913  -2.271  -1.573  0.00  0.00    -0.012 C 
BRANCH  22  24
ATOM     24  N   UNL     1       0.613  -0.375  -1.297  0.00  0.00    +0.382 N 
ATOM     25  H   UNL     1       1.578  -0.088  -1.237  0.00  0.00    -0.081 HD
BRANCH  24  27
ATOM     26  C   UNL     1       0.184   1.732  -2.469  0.00  0.00    -0.017 C 
ATOM     27  C   UNL     1       0.000   0.213  -2.495  0.00  0.00    -0.082 C 
ENDBRANCH  24  27
BRANCH  24  28
ATOM     28  C   UNL     1      -0.109   0.083  -0.102  0.00  0.00    -0.082 C 
ATOM     29  C   UNL     1       0.615  -0.410   1.152  0.00  0.00    -0.017 C 
ENDBRANCH  24  28
ENDBRANCH  22  24
ENDBRANCH  21  22
ENDBRANCH   1  21
TORSDOF 10
