REMARK  Name = ZINC48298331
REMARK  9 active torsions:
REMARK  status: ('A' for Active; 'I' for Inactive)
REMARK    1  A    between atoms: C_1  and  C_2
REMARK    2  A    between atoms: C_6  and  C_9
REMARK    3  A    between atoms: C_7  and  C_8
REMARK    4  A    between atoms: C_9  and  N_10
REMARK    5  A    between atoms: N_10  and  C_11
REMARK    6  A    between atoms: C_11  and  C_12
REMARK    7  A    between atoms: C_12  and  N_18
REMARK    8  A    between atoms: N_18  and  C_19
REMARK    9  A    between atoms: N_18  and  C_20
REMARK                            x       y       z     vdW  Elec       q    Type
REMARK                         _______ _______ _______ _____ _____    ______ ____
ROOT
ATOM      1  N   UNL     1      -0.857  -5.221   4.044  0.00  0.00    +0.381 N 
ATOM      2  H   UNL     1      -1.396  -5.508   3.240  0.00  0.00    -0.086 HD
ATOM      3  H   UNL     1      -1.023  -5.861   4.806  0.00  0.00    -0.086 HD
ENDROOT
BRANCH   1   4
ATOM      4  C   UNL     1       0.572  -5.225   3.702  0.00  0.00    -0.047 C 
BRANCH   4  10
ATOM      5  C   UNL     1       0.795  -8.834   0.243  0.00  0.00    +0.044 C 
ATOM      6  C   UNL     1       1.091  -8.341   1.635  0.00  0.00    -0.047 A 
ATOM      7  C   UNL     1       1.744  -9.164   2.535  0.00  0.00    +0.003 A 
ATOM      8  C   UNL     1       2.016  -8.711   3.813  0.00  0.00    +0.000 A 
ATOM      9  C   UNL     1       1.636  -7.436   4.190  0.00  0.00    +0.002 A 
ATOM     10  C   UNL     1       0.986  -6.614   3.290  0.00  0.00    -0.061 A 
ATOM     11  C   UNL     1       0.717  -7.065   2.011  0.00  0.00    -0.046 A 
ATOM     12  C   UNL     1       0.012  -6.166   1.028  0.00  0.00    +0.044 C 
ENDBRANCH   4  10
ENDBRANCH   1   4
BRANCH   1  13
ATOM     13  C   UNL     1      -1.261  -3.866   4.445  0.00  0.00    -0.094 C 
BRANCH  13  14
ATOM     14  C   UNL     1      -2.731  -3.876   4.868  0.00  0.00    -0.082 C 
ATOM     15  C   UNL     1      -3.184  -2.447   5.172  0.00  0.00    -0.014 C 
ATOM     16  C   UNL     1      -2.331  -1.872   6.305  0.00  0.00    -0.001 C 
ATOM     17  C   UNL     1      -2.496  -2.737   7.557  0.00  0.00    -0.000 C 
ATOM     18  C   UNL     1      -2.043  -4.166   7.252  0.00  0.00    -0.001 C 
ATOM     19  C   UNL     1      -2.896  -4.741   6.119  0.00  0.00    -0.014 C 
BRANCH  14  20
ATOM     20  N   UNL     1      -3.550  -4.428   3.780  0.00  0.00    +0.379 N 
ATOM     21  C   UNL     1      -4.968  -4.368   4.156  0.00  0.00    -0.096 C 
ATOM     22  C   UNL     1      -3.333  -3.643   2.557  0.00  0.00    -0.096 C 
ATOM     23  H   UNL     1      -3.286  -5.388   3.614  0.00  0.00    -0.082 HD
ENDBRANCH  14  20
ENDBRANCH  13  14
ENDBRANCH   1  13
TORSDOF 5
