REMARK  Name = ZINC61676072
REMARK  9 active torsions:
REMARK  status: ('A' for Active; 'I' for Inactive)
REMARK    1  A    between atoms: C_1  and  C_2
REMARK    2  A    between atoms: C_2  and  C_3
REMARK    3  A    between atoms: C_3  and  C_5
REMARK    4  A    between atoms: C_3  and  O_8
REMARK    5  A    between atoms: O_8  and  C_9
REMARK    6  A    between atoms: C_14  and  C_15
REMARK    7  A    between atoms: C_15  and  C_17
REMARK    8  A    between atoms: C_15  and  N_18
REMARK    9  A    between atoms: N_18  and  C_19
REMARK                            x       y       z     vdW  Elec       q    Type
REMARK                         _______ _______ _______ _____ _____    ______ ____
ROOT
ATOM      1  C   UNL     1       2.723   0.201   2.346  0.00  0.00    +0.123 A 
ATOM      2  C   UNL     1       2.051   0.025   3.548  0.00  0.00    +0.047 A 
ATOM      3  C   UNL     1       2.673   0.346   4.739  0.00  0.00    +0.019 A 
ATOM      4  C   UNL     1       3.964   0.843   4.735  0.00  0.00    +0.018 A 
ATOM      5  C   UNL     1       4.635   1.019   3.538  0.00  0.00    +0.020 A 
ATOM      6  C   UNL     1       4.020   0.694   2.345  0.00  0.00    -0.019 A 
ATOM      7 BR   UNL     1       4.812   1.281   6.367  0.00  0.00    -0.050 Br
ENDROOT
BRANCH   6   8
ATOM      8  C   UNL     1       4.754   0.879   1.042  0.00  0.00    -0.041 C 
ATOM      9  C   UNL     1       4.393   2.240   0.443  0.00  0.00    -0.009 C 
BRANCH   8  10
ATOM     10  N   UNL     1       6.202   0.819   1.283  0.00  0.00    +0.382 N 
ATOM     11  C   UNL     1       6.915   0.880   0.000  0.00  0.00    -0.100 C 
ATOM     12  H   UNL     1       6.479   1.599   1.860  0.00  0.00    -0.085 HD
ATOM     13  H   UNL     1       6.429  -0.044   1.753  0.00  0.00    -0.085 HD
ENDBRANCH   8  10
ENDBRANCH   6   8
BRANCH   1  14
ATOM     14  O   UNL     1       2.113  -0.114   1.173  0.00  0.00    -0.479 OA
BRANCH  14  15
ATOM     15  C   UNL     1       0.741  -0.508   1.241  0.00  0.00    +0.258 C 
BRANCH  15  16
ATOM     16  C   UNL     1       0.656  -1.979   1.557  0.00  0.00    +0.251 C 
ATOM     17  O   UNL     1       1.668  -2.645   1.621  0.00  0.00    -0.272 OA
ATOM     18  N   UNL     1      -0.544  -2.554   1.770  0.00  0.00    -0.326 N 
ATOM     19  H   UNL     1      -1.353  -2.022   1.719  0.00  0.00    +0.145 HD
ATOM     20  H   UNL     1      -0.598  -3.501   1.974  0.00  0.00    +0.145 HD
ENDBRANCH  15  16
BRANCH  15  22
ATOM     21  C   UNL     1       0.041   1.271  -0.368  0.00  0.00    +0.008 C 
ATOM     22  C   UNL     1       0.066  -0.236  -0.105  0.00  0.00    +0.051 C 
ENDBRANCH  15  22
ENDBRANCH  14  15
ENDBRANCH   1  14
TORSDOF 6
