REMARK  Name = ZINC43283330
REMARK  7 active torsions:
REMARK  status: ('A' for Active; 'I' for Inactive)
REMARK    1  A    between atoms: C_1  and  C_2
REMARK    2  A    between atoms: C_2  and  C_3
REMARK    3  A    between atoms: C_3  and  C_5
REMARK    4  A    between atoms: C_3  and  N_20
REMARK    5  A    between atoms: C_5  and  C_7
REMARK    6  A    between atoms: C_5  and  S_13
REMARK    7  A    between atoms: S_13  and  C_14
REMARK                            x       y       z     vdW  Elec       q    Type
REMARK                         _______ _______ _______ _____ _____    ______ ____
ROOT
ATOM      1  C   UNL     1      -1.540  -2.062  -0.043  0.00  0.00    +0.076 C 
ENDROOT
BRANCH   1   2
ATOM      2  C   UNL     1      -2.972  -2.527  -0.098  0.00  0.00    +0.003 A 
ATOM      3  C   UNL     1      -3.602  -3.242  -1.062  0.00  0.00    +0.013 A 
ATOM      4  C   UNL     1      -4.937  -3.559  -0.898  0.00  0.00    +0.023 A 
ATOM      5  C   UNL     1      -5.578  -3.145   0.224  0.00  0.00    +0.055 A 
ATOM      6  S   UNL     1      -4.278  -2.286   1.095  0.00  0.00    -0.085 S 
ATOM      7 BR   UNL     1      -7.379  -3.414   0.735  0.00  0.00    -0.043 Br
ENDBRANCH   1   2
BRANCH   1   8
ATOM      8  C   UNL     1      -1.502  -0.536   0.046  0.00  0.00    -0.057 C 
BRANCH   8   9
ATOM      9  N   UNL     1      -0.114  -0.090   0.223  0.00  0.00    +0.381 N 
ATOM     10  H   UNL     1      -0.089   0.917   0.282  0.00  0.00    -0.090 HD
ATOM     11  H   UNL     1       0.262  -0.486   1.071  0.00  0.00    -0.090 HD
ATOM     12  H   UNL     1       0.440  -0.394  -0.564  0.00  0.00    -0.090 HD
ENDBRANCH   8   9
BRANCH   8  14
ATOM     13  C   UNL     1      -2.159   1.586  -1.098  0.00  0.00    +0.002 C 
ATOM     14  C   UNL     1      -2.071   0.065  -1.240  0.00  0.00    -0.018 C 
ENDBRANCH   8  14
ENDBRANCH   1   8
BRANCH   1  15
ATOM     15  S   UNL     1      -0.728  -2.774   1.414  0.00  0.00    -0.080 S 
BRANCH  15  16
ATOM     16  C   UNL     1      -0.645  -4.498   1.057  0.00  0.00    +0.185 A 
ATOM     17  N   UNL     1      -0.050  -5.441   1.819  0.00  0.00    -0.254 N 
ATOM     18  H   UNL     1       0.411  -5.302   2.662  0.00  0.00    +0.191 HD
ATOM     19  N   UNL     1      -0.230  -6.662   1.149  0.00  0.00    -0.160 NA
ATOM     20  C   UNL     1      -0.900  -6.404   0.058  0.00  0.00    +0.245 A 
ATOM     21  N   UNL     1      -1.157  -5.096   0.002  0.00  0.00    -0.209 NA
ENDBRANCH  15  16
ENDBRANCH   1  15
TORSDOF 6
