REMARK  Name = ZINC63328756
REMARK  6 active torsions:
REMARK  status: ('A' for Active; 'I' for Inactive)
REMARK    1  A    between atoms: C_6  and  C_11
REMARK    2  A    between atoms: C_11  and  C_12
REMARK    3  A    between atoms: C_12  and  N_13
REMARK    4  A    between atoms: C_14  and  C_16
REMARK    5  A    between atoms: N_18  and  C_19
REMARK    6  A    between atoms: C_21  and  C_26
REMARK                            x       y       z     vdW  Elec       q    Type
REMARK                         _______ _______ _______ _____ _____    ______ ____
ROOT
ATOM      1  N   UNL     1       5.000  -3.595  -1.503  0.00  0.00    -0.307 N 
ATOM      2  C   UNL     1       5.312  -4.189  -2.672  0.00  0.00    +0.299 C 
ATOM      3  O   UNL     1       5.184  -3.581  -3.715  0.00  0.00    -0.265 OA
ATOM      4  H   UNL     1       5.102  -4.081  -0.670  0.00  0.00    +0.149 HD
ENDROOT
BRANCH   2   5
ATOM      5  C   UNL     1       5.814  -5.596  -2.685  0.00  0.00    +0.300 C 
ATOM      6  O   UNL     1       5.942  -6.204  -1.642  0.00  0.00    -0.265 OA
ATOM      7  N   UNL     1       6.126  -6.190  -3.854  0.00  0.00    -0.287 N 
ATOM      8  H   UNL     1       6.024  -5.704  -4.687  0.00  0.00    +0.151 HD
BRANCH   7   9
ATOM      9  C   UNL     1       6.618  -7.570  -3.866  0.00  0.00    +0.197 C 
ATOM     10  C   UNL     1       7.797  -7.718  -4.849  0.00  0.00    +0.173 C 
ATOM     11  C   UNL     1       7.296  -8.718  -5.866  0.00  0.00    +0.124 C 
ATOM     12  N   UNL     1       6.115  -9.078  -5.568  0.00  0.00    -0.196 NA
ATOM     13  N   UNL     1       5.600  -8.480  -4.415  0.00  0.00    -0.247 N 
ATOM     14  H   UNL     1       4.720  -8.637  -4.038  0.00  0.00    +0.170 HD
BRANCH  10  15
ATOM     15  C   UNL     1       8.988  -8.235  -4.154  0.00  0.00    +0.075 C 
ATOM     16  N   UNL     1       9.906  -8.634  -3.619  0.00  0.00    -0.196 NA
ENDBRANCH  10  15
ENDBRANCH   7   9
ENDBRANCH   2   5
BRANCH   1  17
ATOM     17  C   UNL     1       4.508  -2.215  -1.491  0.00  0.00    +0.109 C 
BRANCH  17  18
ATOM     18  C   UNL     1       4.231  -1.785  -0.049  0.00  0.00    +0.052 C 
BRANCH  18  24
ATOM     19  C   UNL     1      -0.017   1.399   0.010  0.00  0.00    +0.022 A 
ATOM     20  C   UNL     1       1.109   2.143   0.003  0.00  0.00    +0.027 A 
ATOM     21  C   UNL     1       2.385   1.516  -0.013  0.00  0.00    +0.043 A 
ATOM     22  N   UNL     1       3.600   2.009  -0.022  0.00  0.00    -0.380 N 
ATOM     23  C   UNL     1       4.557   0.897  -0.038  0.00  0.00    +0.144 C 
ATOM     24  C   UNL     1       3.724  -0.366  -0.036  0.00  0.00    -0.040 C 
ATOM     25  C   UNL     1       2.433   0.036  -0.021  0.00  0.00    +0.000 A 
ATOM     26  C   UNL     1       1.163  -0.699  -0.013  0.00  0.00    +0.030 A 
ATOM     27  C   UNL     1       0.002  -0.004   0.002  0.00  0.00    +0.042 A 
ATOM     28 CL   UNL     1      -1.502  -0.870   0.012  0.00  0.00    -0.084 Cl
ATOM     29  H   UNL     1       3.828   2.952  -0.020  0.00  0.00    +0.160 HD
ENDBRANCH  18  24
ENDBRANCH  17  18
ENDBRANCH   1  17
TORSDOF 6
