REMARK  Name = ZINC20287232
REMARK  3 active torsions:
REMARK  status: ('A' for Active; 'I' for Inactive)
REMARK    1  A    between atoms: N_10  and  C_13
REMARK    2  A    between atoms: C_13  and  C_14
REMARK    3  A    between atoms: C_14  and  C_16
REMARK                            x       y       z     vdW  Elec       q    Type
REMARK                         _______ _______ _______ _____ _____    ______ ____
ROOT
ATOM      1  C   UNL     1      -0.017   1.379  -0.013  0.00  0.00    +0.005 A 
ATOM      2  C   UNL     1       1.195   2.058   0.002  0.00  0.00    +0.018 A 
ATOM      3  C   UNL     1       2.373   1.339   0.009  0.00  0.00    +0.084 A 
ATOM      4  N   UNL     1       2.361   0.020   0.001  0.00  0.00    -0.350 N 
ATOM      5  C   UNL     1       1.227  -0.664  -0.014  0.00  0.00    +0.099 A 
ATOM      6  C   UNL     1       0.002  -0.004  -0.021  0.00  0.00    +0.042 A 
ATOM      7  N   UNL     1       1.260  -2.054  -0.022  0.00  0.00    -0.314 N 
ATOM      8  C   UNL     1       2.535  -2.777  -0.142  0.00  0.00    +0.122 C 
ATOM      9  C   UNL     1       2.407  -3.805  -1.271  0.00  0.00    +0.104 C 
ATOM     10  N   UNL     1       1.232  -4.653  -1.026  0.00  0.00    -0.292 NA
ATOM     11  C   UNL     1      -0.007  -3.865  -1.049  0.00  0.00    +0.104 C 
ATOM     12  C   UNL     1       0.023  -2.839   0.095  0.00  0.00    +0.122 C 
ATOM     13  H   UNL     1       3.203  -0.461   0.006  0.00  0.00    +0.166 HD
ENDROOT
BRANCH  10  14
ATOM     14  C   UNL     1       1.171  -5.759  -1.990  0.00  0.00    +0.164 C 
BRANCH  14  15
ATOM     15  C   UNL     1       0.108  -6.738  -1.565  0.00  0.00    +0.177 C 
ATOM     16  O   UNL     1      -0.536  -6.535  -0.557  0.00  0.00    -0.291 OA
BRANCH  15  17
ATOM     17  C   UNL     1      -0.149  -7.938  -2.370  0.00  0.00    +0.019 A 
ATOM     18  C   UNL     1       0.595  -8.182  -3.531  0.00  0.00    +0.013 A 
ATOM     19  C   UNL     1       0.353  -9.297  -4.276  0.00  0.00    +0.024 A 
ATOM     20  C   UNL     1      -0.639 -10.209  -3.890  0.00  0.00    +0.030 A 
ATOM     21  C   UNL     1      -1.375  -9.964  -2.736  0.00  0.00    -0.024 A 
ATOM     22  C   UNL     1      -1.137  -8.852  -1.979  0.00  0.00    +0.017 A 
ATOM     23  C   UNL     1      -2.367 -11.091  -2.553  0.00  0.00    +0.055 C 
ATOM     24  C   UNL     1      -2.113 -12.024  -3.749  0.00  0.00    +0.106 C 
ATOM     25  N   UNL     1      -1.032 -11.389  -4.507  0.00  0.00    -0.343 N 
ATOM     26  H   UNL     1      -0.646 -11.742  -5.324  0.00  0.00    +0.146 HD
ENDBRANCH  15  17
ENDBRANCH  14  15
ENDBRANCH  10  14
TORSDOF 3
