REMARK  Name = ZINC44048038
REMARK  4 active torsions:
REMARK  status: ('A' for Active; 'I' for Inactive)
REMARK    1  A    between atoms: C_1  and  N_2
REMARK    2  A    between atoms: N_2  and  C_3
REMARK    3  A    between atoms: C_9  and  O_11
REMARK    4  A    between atoms: O_11  and  C_12
REMARK                            x       y       z     vdW  Elec       q    Type
REMARK                         _______ _______ _______ _____ _____    ______ ____
ROOT
ATOM      1  C   UNL     1       0.019  -3.537  -1.349  0.00  0.00    +0.121 A 
ATOM      2  C   UNL     1       0.748  -3.889  -2.476  0.00  0.00    +0.047 A 
ATOM      3  C   UNL     1       1.505  -5.044  -2.476  0.00  0.00    +0.027 A 
ATOM      4  C   UNL     1       1.536  -5.853  -1.347  0.00  0.00    +0.037 A 
ATOM      5  C   UNL     1       0.806  -5.499  -0.221  0.00  0.00    -0.022 A 
ATOM      6  C   UNL     1       0.054  -4.341  -0.220  0.00  0.00    +0.051 A 
ATOM      7  C   UNL     1       0.843  -6.378   1.003  0.00  0.00    +0.046 C 
ATOM      8  C   UNL     1       0.965  -7.841   0.577  0.00  0.00    +0.101 C 
ATOM      9  C   UNL     1       2.066  -7.991  -0.437  0.00  0.00    +0.218 C 
ATOM     10  O   UNL     1       2.749  -8.993  -0.438  0.00  0.00    -0.275 OA
ATOM     11  N   UNL     1       2.303  -7.024  -1.343  0.00  0.00    -0.285 N 
ATOM     12  H   UNL     1       3.009  -7.141  -1.998  0.00  0.00    +0.155 HD
ENDROOT
BRANCH   1  13
ATOM     13  O   UNL     1      -0.726  -2.399  -1.351  0.00  0.00    -0.490 OA
BRANCH  13  19
ATOM     14  C   UNL     1      -1.599  -0.522  -0.103  0.00  0.00    -0.031 C 
ATOM     15  C   UNL     1      -2.269  -0.130   1.215  0.00  0.00    -0.012 C 
ATOM     16  C   UNL     1      -3.603  -0.866   1.348  0.00  0.00    -0.001 C 
ATOM     17  C   UNL     1      -3.356  -2.376   1.332  0.00  0.00    +0.003 C 
ATOM     18  C   UNL     1      -2.686  -2.769   0.014  0.00  0.00    +0.043 C 
ATOM     19  C   UNL     1      -1.352  -2.032  -0.120  0.00  0.00    +0.160 C 
BRANCH  14  21
ATOM     20  C   UNL     1      -0.565   1.629  -0.337  0.00  0.00    -0.100 C 
ATOM     21  N   UNL     1      -0.318   0.185  -0.232  0.00  0.00    +0.381 N 
ATOM     22  H   UNL     1       0.161  -0.135  -1.060  0.00  0.00    -0.086 HD
ATOM     23  H   UNL     1       0.251  -0.001   0.580  0.00  0.00    -0.086 HD
ENDBRANCH  14  21
ENDBRANCH  13  19
ENDBRANCH   1  13
TORSDOF 3
