REMARK  Name = ZINC61865200
REMARK  9 active torsions:
REMARK  status: ('A' for Active; 'I' for Inactive)
REMARK    1  A    between atoms: C_1  and  C_2
REMARK    2  A    between atoms: C_2  and  C_3
REMARK    3  A    between atoms: C_2  and  N_20
REMARK    4  A    between atoms: C_3  and  N_4
REMARK    5  A    between atoms: N_7  and  N_8
REMARK    6  A    between atoms: C_9  and  C_11
REMARK    7  A    between atoms: C_11  and  C_12
REMARK    8  A    between atoms: C_12  and  O_13
REMARK    9  A    between atoms: O_13  and  C_14
REMARK                            x       y       z     vdW  Elec       q    Type
REMARK                         _______ _______ _______ _____ _____    ______ ____
ROOT
ATOM      1  N   UNL     1       0.821  -1.729   1.532  0.00  0.00    -0.300 N 
ATOM      2  C   UNL     1       1.541  -2.220   2.560  0.00  0.00    +0.316 C 
ATOM      3  O   UNL     1       2.158  -1.464   3.286  0.00  0.00    -0.251 OA
ATOM      4  N   UNL     1       1.578  -3.549   2.783  0.00  0.00    -0.218 N 
ATOM      5  H   UNL     1       0.329  -2.332   0.953  0.00  0.00    +0.150 HD
ATOM      6  H   UNL     1       2.097  -3.902   3.522  0.00  0.00    +0.174 HD
ENDROOT
BRANCH   4   7
ATOM      7  N   UNL     1       0.868  -4.419   1.946  0.00  0.00    -0.233 N 
ATOM      8  C   UNL     1       0.905  -5.748   2.169  0.00  0.00    +0.232 C 
ATOM      9  O   UNL     1       1.554  -6.190   3.094  0.00  0.00    -0.274 OA
ATOM     10  H   UNL     1       0.350  -4.066   1.206  0.00  0.00    +0.173 HD
BRANCH   8  11
ATOM     11  C   UNL     1       0.141  -6.685   1.269  0.00  0.00    +0.138 C 
BRANCH  11  12
ATOM     12  C   UNL     1       0.351  -8.126   1.737  0.00  0.00    +0.238 C 
BRANCH  12  13
ATOM     13  O   UNL     1      -0.373  -9.014   0.883  0.00  0.00    -0.491 OA
BRANCH  13  14
ATOM     14  C   UNL     1      -0.293 -10.342   1.163  0.00  0.00    +0.121 A 
ATOM     15  C   UNL     1       0.463 -10.780   2.241  0.00  0.00    +0.045 A 
ATOM     16  C   UNL     1       0.542 -12.130   2.524  0.00  0.00    +0.004 A 
ATOM     17  C   UNL     1      -0.130 -13.044   1.734  0.00  0.00    +0.000 A 
ATOM     18  C   UNL     1      -0.883 -12.610   0.659  0.00  0.00    +0.004 A 
ATOM     19  C   UNL     1      -0.971 -11.260   0.376  0.00  0.00    +0.045 A 
ENDBRANCH  13  14
ENDBRANCH  12  13
ENDBRANCH  11  12
ENDBRANCH   8  11
ENDBRANCH   4   7
BRANCH   1  20
ATOM     20  C   UNL     1       0.780  -0.284   1.290  0.00  0.00    +0.090 C 
BRANCH  20  22
ATOM     21  C   UNL     1      -0.144   1.507  -0.186  0.00  0.00    -0.012 C 
ATOM     22  C   UNL     1      -0.006  -0.004   0.008  0.00  0.00    -0.054 C 
BRANCH  22  23
ATOM     23  N   UNL     1      -1.341  -0.609   0.109  0.00  0.00    +0.385 N 
ATOM     24  C   UNL     1      -2.107  -0.320  -1.113  0.00  0.00    -0.073 C 
ATOM     25  C   UNL     1      -3.357  -1.201  -1.125  0.00  0.00    +0.017 C 
ATOM     26  C   UNL     1      -4.086  -1.069   0.188  0.00  0.00    -0.048 A 
ATOM     27  C   UNL     1      -5.401  -1.500   0.264  0.00  0.00    +0.004 A 
ATOM     28  C   UNL     1      -6.100  -1.397   1.450  0.00  0.00    +0.000 A 
ATOM     29  C   UNL     1      -5.485  -0.863   2.567  0.00  0.00    +0.000 A 
ATOM     30  C   UNL     1      -4.176  -0.433   2.492  0.00  0.00    +0.002 A 
ATOM     31  C   UNL     1      -3.473  -0.533   1.300  0.00  0.00    -0.061 A 
ATOM     32  C   UNL     1      -2.049  -0.044   1.261  0.00  0.00    -0.042 C 
ATOM     33  H   UNL     1      -1.251  -1.608   0.225  0.00  0.00    -0.081 HD
ENDBRANCH  22  23
ENDBRANCH  20  22
ENDBRANCH   1  20
TORSDOF 8
