REMARK  Name = ZINC62894528
REMARK  3 active torsions:
REMARK  status: ('A' for Active; 'I' for Inactive)
REMARK    1  A    between atoms: C_1  and  C_2
REMARK    2  A    between atoms: C_2  and  C_7
REMARK    3  A    between atoms: C_14  and  C_16
REMARK                            x       y       z     vdW  Elec       q    Type
REMARK                         _______ _______ _______ _____ _____    ______ ____
ROOT
ATOM      1  C   UNL     1      -1.424  -0.481   0.124  0.00  0.00    +0.220 C 
ATOM      2  O   UNL     1      -1.771  -1.126   1.090  0.00  0.00    -0.275 OA
ATOM      3  N   UNL     1      -2.285  -0.273  -0.892  0.00  0.00    -0.290 N 
ATOM      4  C   UNL     1      -1.848   0.416  -2.114  0.00  0.00    +0.108 C 
ATOM      5  C   UNL     1      -2.186  -0.462  -3.323  0.00  0.00    +0.019 C 
ATOM      6  C   UNL     1      -3.676  -0.810  -3.296  0.00  0.00    +0.004 C 
ATOM      7  C   UNL     1      -3.994  -1.597  -2.023  0.00  0.00    +0.032 C 
ATOM      8  C   UNL     1      -3.676  -0.737  -0.802  0.00  0.00    +0.162 C 
ENDROOT
BRANCH   1  10
ATOM      9  C   UNL     1      -0.085   1.610  -0.092  0.00  0.00    +0.019 C 
ATOM     10  C   UNL     1      -0.030   0.088   0.059  0.00  0.00    +0.028 C 
ATOM     11  C   UNL     1       0.754  -0.539  -1.117  0.00  0.00    -0.005 C 
ATOM     12  C   UNL     1       2.175  -0.723  -0.527  0.00  0.00    -0.082 C 
ATOM     13  N   UNL     1       1.910  -1.119   0.879  0.00  0.00    +0.380 N 
ATOM     14  C   UNL     1       0.763  -0.295   1.321  0.00  0.00    -0.067 C 
ATOM     15  H   UNL     1       1.674  -2.098   0.927  0.00  0.00    -0.086 HD
ATOM     16  H   UNL     1       2.718  -0.926   1.453  0.00  0.00    -0.086 HD
ENDBRANCH   1  10
BRANCH   8  17
ATOM     17  C   UNL     1      -3.854  -1.556   0.451  0.00  0.00    +0.231 C 
ATOM     18  O   UNL     1      -3.295  -2.626   0.561  0.00  0.00    -0.274 OA
ATOM     19  N   UNL     1      -4.637  -1.099   1.449  0.00  0.00    -0.328 N 
ATOM     20  H   UNL     1      -5.085  -0.243   1.361  0.00  0.00    +0.145 HD
ATOM     21  H   UNL     1      -4.752  -1.626   2.255  0.00  0.00    +0.145 HD
ENDBRANCH   8  17
TORSDOF 2
