REMARK  Name = ZINC39227397
REMARK  5 active torsions:
REMARK  status: ('A' for Active; 'I' for Inactive)
REMARK    1  A    between atoms: C_1  and  C_2
REMARK    2  A    between atoms: C_8  and  C_10
REMARK    3  A    between atoms: C_14  and  C_16
REMARK    4  A    between atoms: C_22  and  O_33
REMARK    5  A    between atoms: N_29  and  C_32
REMARK                            x       y       z     vdW  Elec       q    Type
REMARK                         _______ _______ _______ _____ _____    ______ ____
ROOT
ATOM      1  C   UNL     1      -0.488  -6.681   5.703  0.00  0.00    -0.017 A 
ATOM      2  C   UNL     1      -1.788  -7.147   5.514  0.00  0.00    +0.012 A 
ATOM      3  C   UNL     1      -2.281  -8.148   6.322  0.00  0.00    +0.046 A 
ATOM      4  C   UNL     1      -1.489  -8.695   7.328  0.00  0.00    +0.127 A 
ATOM      5  C   UNL     1      -0.199  -8.229   7.521  0.00  0.00    +0.023 A 
ATOM      6  C   UNL     1       0.303  -7.231   6.707  0.00  0.00    +0.018 A 
ATOM      7  C   UNL     1       0.683  -8.787   8.610  0.00  0.00    +0.152 C 
ATOM      8  C   UNL     1       0.135 -10.137   9.078  0.00  0.00    +0.084 C 
ATOM      9  C   UNL     1      -1.369  -9.988   9.331  0.00  0.00    +0.110 C 
ATOM     10  O   UNL     1      -2.014  -9.685   8.096  0.00  0.00    -0.485 OA
ATOM     11  C   UNL     1      -1.610  -8.857  10.333  0.00  0.00    +0.029 C 
ATOM     12  C   UNL     1      -3.106  -8.768  10.645  0.00  0.00    -0.075 C 
ATOM     13  N   UNL     1      -3.567 -10.039  11.214  0.00  0.00    +0.378 N 
ATOM     14  C   UNL     1      -3.408 -11.114  10.228  0.00  0.00    -0.075 C 
ATOM     15  C   UNL     1      -1.924 -11.295   9.900  0.00  0.00    +0.029 C 
ATOM     16  C   UNL     1      -4.984  -9.923  11.584  0.00  0.00    -0.096 C 
ATOM     17  H   UNL     1      -3.023 -10.255  12.036  0.00  0.00    -0.082 HD
ENDROOT
BRANCH   1  22
ATOM     18  C   UNL     1      -0.227  -4.049   3.017  0.00  0.00    +0.037 A 
ATOM     19  C   UNL     1       1.079  -3.596   3.215  0.00  0.00    +0.013 A 
ATOM     20  C   UNL     1       1.859  -4.144   4.212  0.00  0.00    +0.001 A 
ATOM     21  C   UNL     1       1.354  -5.144   5.021  0.00  0.00    +0.008 A 
ATOM     22  C   UNL     1       0.051  -5.606   4.834  0.00  0.00    -0.017 A 
ATOM     23  C   UNL     1      -0.743  -5.054   3.834  0.00  0.00    +0.021 A 
BRANCH  18  31
ATOM     24  C   UNL     1       0.011  -5.188  -3.109  0.00  0.00    +0.007 C 
ATOM     25  C   UNL     1       0.010  -4.191  -1.949  0.00  0.00    -0.011 C 
ATOM     26  C   UNL     1       0.769  -4.789  -0.762  0.00  0.00    +0.022 C 
ATOM     27  C   UNL     1       0.795  -3.774   0.385  0.00  0.00    +0.108 C 
ATOM     28  N   UNL     1      -0.584  -3.370   0.692  0.00  0.00    -0.298 N 
ATOM     29  C   UNL     1      -1.431  -2.865  -0.397  0.00  0.00    +0.108 C 
ATOM     30  C   UNL     1      -1.433  -3.890  -1.536  0.00  0.00    +0.022 C 
ATOM     31  C   UNL     1      -1.063  -3.461   1.948  0.00  0.00    +0.247 C 
ATOM     32  O   UNL     1      -2.181  -3.059   2.203  0.00  0.00    -0.270 OA
ENDBRANCH  18  31
ENDBRANCH   1  22
BRANCH   7  33
ATOM     33  O   UNL     1       2.008  -8.962   8.105  0.00  0.00    -0.387 OA
ATOM     34  H   UNL     1       2.421  -8.145   7.793  0.00  0.00    +0.210 HD
ENDBRANCH   7  33
TORSDOF 3
