REMARK  Name = ZINC08624434
REMARK  12 active torsions:
REMARK  status: ('A' for Active; 'I' for Inactive)
REMARK    1  A    between atoms: C_1  and  C_2
REMARK    2  A    between atoms: C_2  and  C_3
REMARK    3  A    between atoms: C_2  and  N_4
REMARK    4  A    between atoms: C_5  and  C_7
REMARK    5  A    between atoms: C_7  and  C_8
REMARK    6  A    between atoms: C_10  and  O_26
REMARK    7  A    between atoms: C_12  and  O_25
REMARK    8  A    between atoms: C_14  and  C_17
REMARK    9  A    between atoms: C_17  and  N_18
REMARK   10  A    between atoms: C_20  and  C_23
REMARK   11  A    between atoms: C_23  and  N_47
REMARK   12  A    between atoms: C_24  and  N_47
REMARK                            x       y       z     vdW  Elec       q    Type
REMARK                         _______ _______ _______ _____ _____    ______ ____
ROOT
ATOM      1  C   UNL     1      -0.374   5.235   1.866  0.00  0.00    +0.159 C 
ATOM      2  C   UNL     1      -1.906   5.291   2.026  0.00  0.00    +0.175 C 
ATOM      3  C   UNL     1      -2.415   4.051   1.251  0.00  0.00    +0.176 C 
ATOM      4  C   UNL     1      -1.151   3.155   1.207  0.00  0.00    +0.171 C 
ATOM      5  O   UNL     1      -0.073   4.100   1.036  0.00  0.00    -0.366 OA
ENDROOT
BRANCH   3   6
ATOM      6  O   UNL     1      -3.474   3.405   1.960  0.00  0.00    -0.387 OA
ATOM      7  H   UNL     1      -4.286   3.926   2.015  0.00  0.00    +0.210 HD
ENDBRANCH   3   6
BRANCH   2   8
ATOM      8  O   UNL     1      -2.268   5.200   3.406  0.00  0.00    -0.387 OA
ATOM      9  H   UNL     1      -3.221   5.231   3.565  0.00  0.00    +0.210 HD
ENDBRANCH   2   8
BRANCH   1  10
ATOM     10  C   UNL     1       0.129   6.516   1.199  0.00  0.00    +0.130 C 
BRANCH  10  12
ATOM     11  N   UNL     1       2.303   7.529   0.595  0.00  0.00    -0.313 N 
ATOM     12  C   UNL     1       1.635   6.496   1.144  0.00  0.00    +0.216 C 
ATOM     13  O   UNL     1       2.245   5.550   1.595  0.00  0.00    -0.276 OA
ATOM     14  H   UNL     1       1.815   8.286   0.235  0.00  0.00    +0.149 HD
BRANCH  11  16
ATOM     15  C   UNL     1       4.223   6.744  -0.702  0.00  0.00    +0.027 C 
ATOM     16  C   UNL     1       3.767   7.510   0.542  0.00  0.00    +0.067 C 
ATOM     17  C   UNL     1       4.295   8.944   0.480  0.00  0.00    +0.027 C 
ENDBRANCH  11  16
ENDBRANCH  10  12
ENDBRANCH   1  10
BRANCH   4  18
ATOM     18  C   UNL     1      -1.215   2.191   0.020  0.00  0.00    +0.179 C 
BRANCH  18  19
ATOM     19  N   UNL     1      -0.016   1.349   0.009  0.00  0.00    -0.249 N 
ATOM     20  C   UNL     1       0.002  -0.004   0.002  0.00  0.00    +0.131 A 
ATOM     21  C   UNL     1       1.307  -0.363  -0.012  0.00  0.00    +0.066 A 
ATOM     22  N   UNL     1       2.014   0.772  -0.013  0.00  0.00    -0.136 NA
ATOM     23  N   UNL     1       1.200   1.769   0.000  0.00  0.00    -0.065 NA
BRANCH  21  24
ATOM     24  C   UNL     1       1.856  -1.767  -0.026  0.00  0.00    -0.023 C 
BRANCH  24  26
ATOM     25  C   UNL     1       2.671  -3.537  -1.462  0.00  0.00    -0.100 C 
ATOM     26  N   UNL     1       2.132  -2.165  -1.419  0.00  0.00    +0.381 N 
ATOM     27  H   UNL     1       2.817  -1.518  -1.826  0.00  0.00    -0.086 HD
ATOM     28  H   UNL     1       1.261  -2.126  -1.961  0.00  0.00    -0.086 HD
ENDBRANCH  24  26
ENDBRANCH  21  24
ENDBRANCH  18  19
ENDBRANCH   4  18
TORSDOF 9
