REMARK  Name = ZINC09808351
REMARK  7 active torsions:
REMARK  status: ('A' for Active; 'I' for Inactive)
REMARK    1  A    between atoms: C_3  and  C_6
REMARK    2  A    between atoms: C_11  and  O_33
REMARK    3  A    between atoms: C_12  and  C_14
REMARK    4  A    between atoms: C_14  and  C_16
REMARK    5  A    between atoms: C_14  and  N_53
REMARK    6  A    between atoms: C_19  and  N_22
REMARK    7  A    between atoms: C_27  and  C_30
REMARK                            x       y       z     vdW  Elec       q    Type
REMARK                         _______ _______ _______ _____ _____    ______ ____
ROOT
ATOM      1  C   UNL     1      -8.386   0.319   0.038  0.00  0.00    +0.005 C 
ENDROOT
BRANCH   1   8
ATOM      2  C   UNL     1      -2.518   1.410   0.020  0.00  0.00    +0.218 A 
ATOM      3  N   UNL     1      -2.916   0.130   0.009  0.00  0.00    -0.197 NA
ATOM      4  C   UNL     1      -4.219   0.084   0.020  0.00  0.00    +0.199 A 
ATOM      5  N   UNL     1      -4.726   1.354   0.029  0.00  0.00    -0.173 N 
ATOM      6  N   UNL     1      -3.579   2.189   0.029  0.00  0.00    -0.138 NA
ATOM      7  C   UNL     1      -6.094   1.482   0.036  0.00  0.00    +0.225 A 
ATOM      8  C   UNL     1      -6.881   0.400   0.032  0.00  0.00    +0.045 A 
ATOM      9  S   UNL     1      -5.682  -0.924   0.020  0.00  0.00    -0.050 S 
BRANCH   2  12
ATOM     10  C   UNL     1       1.107   1.932   0.002  0.00  0.00    +0.042 A 
ATOM     11  C   UNL     1      -0.013   1.076   0.008  0.00  0.00    +0.053 A 
ATOM     12  C   UNL     1      -1.115   1.872   0.017  0.00  0.00    +0.173 A 
ATOM     13  O   UNL     1      -0.705   3.155   0.026  0.00  0.00    -0.460 OA
ATOM     14  C   UNL     1       0.638   3.195   0.013  0.00  0.00    +0.196 A 
ENDBRANCH   2  12
BRANCH   7  15
ATOM     15  O   UNL     1      -6.654   2.721   0.045  0.00  0.00    -0.492 OA
ATOM     16  H   UNL     1      -6.820   3.085  -0.835  0.00  0.00    +0.294 HD
ENDBRANCH   7  15
ENDBRANCH   1   8
BRANCH   1  22
ATOM     17  C   UNL     1     -10.275  -0.869   0.975  0.00  0.00    -0.077 C 
ATOM     18  C   UNL     1     -10.674  -2.025   1.895  0.00  0.00    -0.006 C 
ATOM     19  C   UNL     1     -10.215  -1.717   3.323  0.00  0.00    +0.071 C 
ATOM     20  C   UNL     1      -8.701  -1.488   3.326  0.00  0.00    -0.006 C 
ATOM     21  C   UNL     1      -8.360  -0.347   2.365  0.00  0.00    -0.077 C 
ATOM     22  N   UNL     1      -8.805  -0.717   1.005  0.00  0.00    +0.387 N 
ATOM     23  H   UNL     1      -8.373  -1.611   0.744  0.00  0.00    -0.080 HD
BRANCH  19  24
ATOM     24  C   UNL     1     -10.552  -2.877   4.223  0.00  0.00    +0.213 C 
ATOM     25  O   UNL     1      -9.668  -3.465   4.810  0.00  0.00    -0.276 OA
ATOM     26  N   UNL     1     -11.834  -3.263   4.375  0.00  0.00    -0.329 N 
ATOM     27  H   UNL     1     -12.541  -2.792   3.906  0.00  0.00    +0.145 HD
ATOM     28  H   UNL     1     -12.050  -4.010   4.955  0.00  0.00    +0.145 HD
ENDBRANCH  19  24
ENDBRANCH   1  22
BRANCH   1  29
ATOM     29  C   UNL     1      -8.873  -0.067  -1.335  0.00  0.00    -0.056 A 
ATOM     30  C   UNL     1      -8.833  -1.389  -1.736  0.00  0.00    +0.004 A 
ATOM     31  C   UNL     1      -9.284  -1.744  -2.994  0.00  0.00    +0.033 A 
ATOM     32  C   UNL     1      -9.767  -0.774  -3.854  0.00  0.00    +0.126 A 
ATOM     33  C   UNL     1      -9.802   0.548  -3.454  0.00  0.00    +0.033 A 
ATOM     34  C   UNL     1      -9.355   0.902  -2.195  0.00  0.00    +0.004 A 
BRANCH  32  35
ATOM     35  N   UNL     1     -10.245  -1.153  -5.202  0.00  0.00    +0.056 N 
ATOM     36  O   UNL     1     -10.669  -0.300  -5.960  0.00  0.00    -0.126 OA
ATOM     37  O   UNL     1     -10.213  -2.319  -5.554  0.00  0.00    -0.126 OA
ENDBRANCH  32  35
ENDBRANCH   1  29
TORSDOF 7
