REMARK  Name = ZINC48533394
REMARK  3 active torsions:
REMARK  status: ('A' for Active; 'I' for Inactive)
REMARK    1  A    between atoms: C_4  and  C_7
REMARK    2  A    between atoms: N_12  and  C_19
REMARK    3  A    between atoms: C_15  and  O_18
REMARK                            x       y       z     vdW  Elec       q    Type
REMARK                         _______ _______ _______ _____ _____    ______ ____
ROOT
ATOM      1  C   UNL     1       3.705  -0.748  -0.087  0.00  0.00    +0.181 C 
ATOM      2  C   UNL     1       4.112  -1.120   1.326  0.00  0.00    +0.100 C 
ATOM      3  C   UNL     1       3.483  -0.446   2.539  0.00  0.00    +0.119 C 
ATOM      4  N   UNL     1       3.445  -1.562   3.531  0.00  0.00    -0.294 N 
ATOM      5  C   UNL     1       3.418  -2.767   2.869  0.00  0.00    +0.265 C 
ATOM      6  O   UNL     1       3.484  -3.869   3.372  0.00  0.00    -0.271 OA
ATOM      7  C   UNL     1       3.314  -2.479   1.443  0.00  0.00    +0.224 C 
ATOM      8  N   UNL     1       3.697  -3.116   0.230  0.00  0.00    -0.161 NA
ATOM      9  O   UNL     1       3.565  -2.019  -0.781  0.00  0.00    -0.288 OA
ATOM     10  H   UNL     1       3.078  -3.884   0.014  0.00  0.00    +0.158 HD
ENDROOT
BRANCH   1  14
ATOM     11  C   UNL     1      -0.014   1.353  -0.063  0.00  0.00    +0.000 A 
ATOM     12  C   UNL     1       1.119   1.948   0.460  0.00  0.00    +0.000 A 
ATOM     13  C   UNL     1       2.323   1.268   0.453  0.00  0.00    +0.006 A 
ATOM     14  C   UNL     1       2.393  -0.007  -0.078  0.00  0.00    -0.016 A 
ATOM     15  C   UNL     1       1.260  -0.602  -0.600  0.00  0.00    +0.006 A 
ATOM     16  C   UNL     1       0.057   0.079  -0.594  0.00  0.00    +0.000 A 
ENDBRANCH   1  14
BRANCH   4  17
ATOM     17  C   UNL     1       3.438  -1.399   4.987  0.00  0.00    +0.076 C 
ATOM     18  C   UNL     1       4.665  -2.091   5.584  0.00  0.00    +0.022 C 
ATOM     19  C   UNL     1       4.657  -1.920   7.104  0.00  0.00    +0.002 C 
ATOM     20  C   UNL     1       3.386  -2.546   7.682  0.00  0.00    +0.000 C 
ATOM     21  C   UNL     1       2.160  -1.853   7.085  0.00  0.00    +0.002 C 
ATOM     22  C   UNL     1       2.167  -2.024   5.564  0.00  0.00    +0.022 C 
ENDBRANCH   4  17
BRANCH   7  23
ATOM     23  O   UNL     1       1.966  -2.050   1.244  0.00  0.00    -0.365 OA
ATOM     24  H   UNL     1       1.311  -2.756   1.334  0.00  0.00    +0.212 HD
ENDBRANCH   7  23
TORSDOF 3
