REMARK  Name = ZINC67062428
REMARK  5 active torsions:
REMARK  status: ('A' for Active; 'I' for Inactive)
REMARK    1  A    between atoms: C_1  and  C_2
REMARK    2  A    between atoms: C_6  and  C_7
REMARK    3  A    between atoms: N_9  and  N_10
REMARK    4  A    between atoms: N_13  and  C_14
REMARK    5  A    between atoms: C_14  and  C_15
REMARK                            x       y       z     vdW  Elec       q    Type
REMARK                         _______ _______ _______ _____ _____    ______ ____
ROOT
ATOM      1  N   UNL     1       0.122  -0.730   4.905  0.00  0.00    -0.218 N 
ATOM      2  C   UNL     1       0.116  -1.625   5.913  0.00  0.00    +0.316 C 
ATOM      3  O   UNL     1       0.101  -1.240   7.067  0.00  0.00    -0.251 OA
ATOM      4  N   UNL     1       0.126  -2.945   5.643  0.00  0.00    -0.294 N 
ATOM      5  H   UNL     1       0.115   0.220   5.100  0.00  0.00    +0.174 HD
ATOM      6  H   UNL     1       0.137  -3.251   4.723  0.00  0.00    +0.151 HD
ENDROOT
BRANCH   1   9
ATOM      7  C   UNL     1       0.145  -0.279   2.568  0.00  0.00    +0.267 C 
ATOM      8  O   UNL     1       0.136   0.914   2.812  0.00  0.00    -0.268 OA
ATOM      9  N   UNL     1       0.139  -1.173   3.576  0.00  0.00    -0.229 N 
ATOM     10  H   UNL     1       0.146  -2.123   3.381  0.00  0.00    +0.173 HD
BRANCH   7  16
ATOM     11  C   UNL     1       0.162   1.510   0.018  0.00  0.00    +0.045 C 
ATOM     12  C   UNL     1       0.171   0.003   0.008  0.00  0.00    -0.031 A 
ATOM     13  C   UNL     1       0.193  -0.720  -1.161  0.00  0.00    +0.011 A 
ATOM     14  C   UNL     1       0.200  -2.075  -1.097  0.00  0.00    +0.046 A 
ATOM     15  S   UNL     1       0.176  -2.410   0.549  0.00  0.00    -0.092 S 
ATOM     16  C   UNL     1       0.162  -0.742   1.177  0.00  0.00    +0.078 A 
ENDBRANCH   7  16
ENDBRANCH   1   9
BRANCH   4  17
ATOM     17  C   UNL     1       0.119  -3.917   6.739  0.00  0.00    +0.142 C 
BRANCH  17  18
ATOM     18  C   UNL     1       0.133  -5.313   6.172  0.00  0.00    -0.014 A 
ATOM     19  C   UNL     1      -1.059  -5.967   5.890  0.00  0.00    +0.010 A 
ATOM     20  C   UNL     1      -1.003  -7.248   5.371  0.00  0.00    +0.042 A 
ATOM     21  C   UNL     1       0.240  -7.834   5.150  0.00  0.00    +0.099 A 
ATOM     22  N   UNL     1       1.354  -7.178   5.432  0.00  0.00    -0.349 N 
ATOM     23  C   UNL     1       1.330  -5.953   5.923  0.00  0.00    +0.089 A 
ATOM     24  N   UNL     1       0.311  -9.121   4.629  0.00  0.00    -0.317 N 
ATOM     25  C   UNL     1       1.607  -9.710   4.265  0.00  0.00    +0.106 C 
ATOM     26  C   UNL     1       1.751 -11.060   4.974  0.00  0.00    +0.019 C 
ATOM     27  C   UNL     1       0.544 -11.940   4.638  0.00  0.00    +0.003 C 
ATOM     28  C   UNL     1      -0.735 -11.265   5.138  0.00  0.00    +0.019 C 
ATOM     29  C   UNL     1      -0.907  -9.920   4.437  0.00  0.00    +0.106 C 
ATOM     30  H   UNL     1       2.209  -7.606   5.270  0.00  0.00    +0.167 HD
ENDBRANCH  17  18
ENDBRANCH   4  17
TORSDOF 4
