REMARK  Name = ZINC20362931
REMARK  8 active torsions:
REMARK  status: ('A' for Active; 'I' for Inactive)
REMARK    1  A    between atoms: C_1  and  C_2
REMARK    2  A    between atoms: C_5  and  C_11
REMARK    3  A    between atoms: C_7  and  N_8
REMARK    4  A    between atoms: N_13  and  N_14
REMARK    5  A    between atoms: N_14  and  C_15
REMARK    6  A    between atoms: C_15  and  N_17
REMARK    7  A    between atoms: C_22  and  C_29
REMARK    8  A    between atoms: C_24  and  O_25
REMARK                            x       y       z     vdW  Elec       q    Type
REMARK                         _______ _______ _______ _____ _____    ______ ____
ROOT
ATOM      1  C   UNL     1      -5.643   4.167   0.894  0.00  0.00    +0.151 C 
ATOM      2  S   UNL     1      -6.873   5.289   1.290  0.00  0.00    -0.017 S 
ENDROOT
BRANCH   1   3
ATOM      3  N   UNL     1      -5.905   2.845   0.915  0.00  0.00    -0.296 N 
ATOM      4  C   UNL     1      -7.199   2.394   1.173  0.00  0.00    +0.036 A 
ATOM      5  C   UNL     1      -7.932   2.956   2.219  0.00  0.00    +0.024 A 
ATOM      6  C   UNL     1      -9.201   2.529   2.480  0.00  0.00    +0.013 A 
ATOM      7  C   UNL     1      -9.767   1.513   1.702  0.00  0.00    +0.021 A 
ATOM      8  C   UNL     1     -11.125   1.032   1.964  0.00  0.00    -0.033 A 
ATOM      9  C   UNL     1     -11.620   0.044   1.173  0.00  0.00    +0.091 A 
ATOM     10  C   UNL     1     -10.827  -0.487   0.136  0.00  0.00    +0.285 A 
ATOM     11  O   UNL     1      -9.583  -0.042  -0.099  0.00  0.00    -0.425 OA
ATOM     12  C   UNL     1      -9.032   0.938   0.649  0.00  0.00    +0.141 A 
ATOM     13  C   UNL     1      -7.745   1.386   0.393  0.00  0.00    +0.070 A 
ATOM     14  C   UNL     1     -11.952   1.618   3.079  0.00  0.00    +0.045 C 
ATOM     15  H   UNL     1      -5.097   2.121   0.729  0.00  0.00    +0.154 HD
BRANCH  10  16
ATOM     16  O   UNL     1     -11.283  -1.373  -0.565  0.00  0.00    -0.480 OA
ATOM     17  H   UNL     1     -10.676  -1.798  -1.379  0.00  0.00    +0.295 HD
ENDBRANCH  10  16
ENDBRANCH   1   3
BRANCH   1  18
ATOM     18  N   UNL     1      -4.413   4.605   0.561  0.00  0.00    -0.245 N 
ATOM     19  H   UNL     1      -4.199   5.684   0.544  0.00  0.00    +0.172 HD
BRANCH  18  22
ATOM     20  C   UNL     1      -2.176   4.125  -0.097  0.00  0.00    +0.260 C 
ATOM     21  O   UNL     1      -1.940   5.317  -0.116  0.00  0.00    -0.269 OA
ATOM     22  N   UNL     1      -3.406   3.686   0.236  0.00  0.00    -0.231 N 
ATOM     23  H   UNL     1      -3.620   2.607   0.254  0.00  0.00    +0.173 HD
BRANCH  20  28
ATOM     24  C   UNL     1       1.961   0.351  -1.427  0.00  0.00    +0.046 C 
ATOM     25  C   UNL     1       0.877   1.339  -1.079  0.00  0.00    -0.020 A 
ATOM     26  C   UNL     1      -0.385   0.886  -0.738  0.00  0.00    +0.006 A 
ATOM     27  C   UNL     1      -1.382   1.785  -0.423  0.00  0.00    +0.013 A 
ATOM     28  C   UNL     1      -1.113   3.155  -0.439  0.00  0.00    +0.040 A 
ATOM     29  C   UNL     1       0.162   3.606  -0.784  0.00  0.00    +0.046 A 
ATOM     30  C   UNL     1       1.149   2.696  -1.102  0.00  0.00    +0.130 A 
BRANCH  30  31
ATOM     31  N   UNL     1       2.502   3.172  -1.469  0.00  0.00    +0.057 N 
ATOM     32  O   UNL     1       2.788   4.349  -1.343  0.00  0.00    -0.126 OA
ATOM     33  O   UNL     1       3.329   2.386  -1.897  0.00  0.00    -0.126 OA
ENDBRANCH  30  31
ENDBRANCH  20  28
ENDBRANCH  18  22
ENDBRANCH   1  18
TORSDOF 6
