REMARK  Name = ZINC44729390
REMARK  8 active torsions:
REMARK  status: ('A' for Active; 'I' for Inactive)
REMARK    1  A    between atoms: C_1  and  C_2
REMARK    2  A    between atoms: C_4  and  C_8
REMARK    3  A    between atoms: C_5  and  C_7
REMARK    4  A    between atoms: C_8  and  C_10
REMARK    5  A    between atoms: C_8  and  N_11
REMARK    6  A    between atoms: N_11  and  C_12
REMARK    7  A    between atoms: C_12  and  C_13
REMARK    8  A    between atoms: C_18  and  O_19
REMARK                            x       y       z     vdW  Elec       q    Type
REMARK                         _______ _______ _______ _____ _____    ______ ____
ROOT
ATOM      1  N   UNL     1      -2.756  -3.098  -0.587  0.00  0.00    +0.386 N 
ATOM      2  H   UNL     1      -3.248  -2.450   0.009  0.00  0.00    -0.085 HD
ATOM      3  H   UNL     1      -2.639  -2.691  -1.503  0.00  0.00    -0.085 HD
ENDROOT
BRANCH   1   4
ATOM      4  C   UNL     1      -1.437  -3.390  -0.009  0.00  0.00    -0.040 C 
ATOM      5  C   UNL     1      -1.609  -3.892   1.426  0.00  0.00    -0.009 C 
BRANCH   4   9
ATOM      6  C   UNL     1      -0.018   1.503   0.010  0.00  0.00    +0.086 C 
ATOM      7  C   UNL     1       0.002  -0.004   0.002  0.00  0.00    +0.102 A 
ATOM      8  C   UNL     1      -1.078  -0.805   0.003  0.00  0.00    +0.046 A 
ATOM      9  C   UNL     1      -0.601  -2.136  -0.007  0.00  0.00    -0.021 A 
ATOM     10  C   UNL     1       0.742  -2.069  -0.013  0.00  0.00    +0.104 A 
ATOM     11  O   UNL     1       1.102  -0.775  -0.013  0.00  0.00    -0.465 OA
ATOM     12  C   UNL     1       1.684  -3.245  -0.023  0.00  0.00    +0.086 C 
ENDBRANCH   4   9
ENDBRANCH   1   4
BRANCH   1  13
ATOM     13  C   UNL     1      -3.527  -4.343  -0.700  0.00  0.00    -0.042 C 
BRANCH  13  14
ATOM     14  C   UNL     1      -4.880  -4.044  -1.293  0.00  0.00    -0.022 A 
ATOM     15  C   UNL     1      -5.985  -3.930  -0.471  0.00  0.00    +0.025 A 
ATOM     16  C   UNL     1      -7.227  -3.655  -1.015  0.00  0.00    +0.041 A 
ATOM     17  C   UNL     1      -7.366  -3.494  -2.382  0.00  0.00    +0.023 A 
ATOM     18  C   UNL     1      -6.263  -3.606  -3.207  0.00  0.00    +0.047 A 
ATOM     19  C   UNL     1      -5.016  -3.876  -2.663  0.00  0.00    +0.118 A 
ATOM     20 CL   UNL     1      -8.614  -3.514   0.020  0.00  0.00    -0.084 Cl
BRANCH  19  21
ATOM     21  O   UNL     1      -3.929  -3.982  -3.472  0.00  0.00    -0.507 OA
ATOM     22  H   UNL     1      -3.766  -4.878  -3.797  0.00  0.00    +0.292 HD
ENDBRANCH  19  21
ENDBRANCH  13  14
ENDBRANCH   1  13
TORSDOF 5
