REMARK  Name = ZINC08996282
REMARK  7 active torsions:
REMARK  status: ('A' for Active; 'I' for Inactive)
REMARK    1  A    between atoms: C_1  and  C_2
REMARK    2  A    between atoms: C_2  and  C_4
REMARK    3  A    between atoms: C_2  and  N_20
REMARK    4  A    between atoms: C_21  and  C_23
REMARK    5  A    between atoms: C_23  and  C_24
REMARK    6  A    between atoms: C_27  and  O_30
REMARK    7  A    between atoms: O_30  and  C_31
REMARK                            x       y       z     vdW  Elec       q    Type
REMARK                         _______ _______ _______ _____ _____    ______ ____
ROOT
ATOM      1  C   UNL     1       1.684   7.297   2.980  0.00  0.00    +0.236 C 
ATOM      2  O   UNL     1       2.126   7.708   1.928  0.00  0.00    -0.274 OA
ATOM      3  N   UNL     1       1.683   8.094   4.068  0.00  0.00    -0.300 N 
ATOM      4  C   UNL     1       2.113   9.495   3.969  0.00  0.00    +0.107 C 
ATOM      5  C   UNL     1       3.204   9.755   5.006  0.00  0.00    +0.013 C 
ATOM      6  C   UNL     1       2.698   9.346   6.390  0.00  0.00    -0.022 C 
ATOM      7  C   UNL     1       2.364   7.854   6.399  0.00  0.00    +0.013 C 
ATOM      8  C   UNL     1       1.259   7.575   5.375  0.00  0.00    +0.107 C 
ATOM      9  C   UNL     1       3.753   9.639   7.423  0.00  0.00    +0.027 A 
ATOM     10  C   UNL     1       3.704  10.696   8.266  0.00  0.00    +0.059 A 
ATOM     11  N   UNL     1       4.785  10.654   9.044  0.00  0.00    -0.241 NA
ATOM     12  C   UNL     1       5.507   9.613   8.718  0.00  0.00    +0.196 A 
ATOM     13  N   UNL     1       4.892   8.955   7.707  0.00  0.00    -0.349 N 
ATOM     14  H   UNL     1       5.215   8.123   7.256  0.00  0.00    +0.166 HD
ATOM     15  C   UNL     1       2.579  11.702   8.258  0.00  0.00    +0.038 C 
ATOM     16  C   UNL     1       1.810  11.541   6.939  0.00  0.00    -0.075 C 
ATOM     17  N   UNL     1       1.480  10.117   6.723  0.00  0.00    +0.387 N 
ATOM     18  H   UNL     1       1.060   9.734   7.578  0.00  0.00    -0.085 HD
ATOM     19  H   UNL     1       0.809  10.040   5.949  0.00  0.00    -0.085 HD
ENDROOT
BRANCH   1  21
ATOM     20  C   UNL     1      -0.394   5.946   3.058  0.00  0.00    +0.038 C 
ATOM     21  C   UNL     1       1.135   5.896   3.072  0.00  0.00    +0.156 C 
BRANCH  21  22
ATOM     22  N   UNL     1       1.609   5.111   1.929  0.00  0.00    -0.304 N 
ATOM     23  C   UNL     1       1.693   3.769   2.023  0.00  0.00    +0.218 C 
ATOM     24  O   UNL     1       1.378   3.212   3.053  0.00  0.00    -0.275 OA
ATOM     25  H   UNL     1       1.861   5.557   1.105  0.00  0.00    +0.149 HD
BRANCH  23  26
ATOM     26  C   UNL     1       2.180   2.961   0.847  0.00  0.00    +0.130 C 
BRANCH  26  27
ATOM     27  C   UNL     1       2.180   1.498   1.209  0.00  0.00    -0.038 A 
ATOM     28  C   UNL     1       1.055   0.730   0.976  0.00  0.00    +0.007 A 
ATOM     29  C   UNL     1       1.053  -0.612   1.307  0.00  0.00    +0.046 A 
ATOM     30  C   UNL     1       2.181  -1.187   1.873  0.00  0.00    +0.120 A 
ATOM     31  C   UNL     1       3.309  -0.414   2.105  0.00  0.00    +0.046 A 
ATOM     32  C   UNL     1       3.306   0.927   1.773  0.00  0.00    +0.007 A 
BRANCH  30  33
ATOM     33  O   UNL     1       2.181  -2.506   2.200  0.00  0.00    -0.495 OA
ATOM     34  C   UNL     1       3.378  -3.031   2.779  0.00  0.00    +0.277 C 
ENDBRANCH  30  33
ENDBRANCH  26  27
ENDBRANCH  23  26
ENDBRANCH  21  22
ENDBRANCH   1  21
TORSDOF 5
