REMARK  Name = ZINC63194429
REMARK  4 active torsions:
REMARK  status: ('A' for Active; 'I' for Inactive)
REMARK    1  A    between atoms: C_7  and  C_10
REMARK    2  A    between atoms: C_10  and  C_11
REMARK    3  A    between atoms: N_13  and  N_14
REMARK    4  A    between atoms: C_15  and  C_17
REMARK                            x       y       z     vdW  Elec       q    Type
REMARK                         _______ _______ _______ _____ _____    ______ ____
ROOT
ATOM      1  C   UNL     1       0.460  -3.646  -1.440  0.00  0.00    +0.233 C 
ATOM      2  O   UNL     1       1.006  -3.075  -2.360  0.00  0.00    -0.274 OA
ATOM      3  N   UNL     1      -0.353  -4.693  -1.684  0.00  0.00    -0.234 N 
ATOM      4  H   UNL     1      -0.790  -5.150  -0.948  0.00  0.00    +0.173 HD
ENDROOT
BRANCH   3   5
ATOM      5  N   UNL     1      -0.567  -5.122  -3.001  0.00  0.00    -0.230 N 
ATOM      6  C   UNL     1      -1.380  -6.168  -3.245  0.00  0.00    +0.262 C 
ATOM      7  O   UNL     1      -1.927  -6.741  -2.323  0.00  0.00    -0.269 OA
ATOM      8  H   UNL     1      -0.131  -4.665  -3.737  0.00  0.00    +0.173 HD
BRANCH   6   9
ATOM      9  C   UNL     1      -1.606  -6.620  -4.634  0.00  0.00    +0.056 A 
ATOM     10  C   UNL     1      -2.454  -7.704  -4.901  0.00  0.00    +0.017 A 
ATOM     11  C   UNL     1      -2.632  -8.087  -6.217  0.00  0.00    +0.041 A 
ATOM     12  C   UNL     1      -1.973  -7.395  -7.220  0.00  0.00    +0.129 A 
ATOM     13  N   UNL     1      -1.180  -6.377  -6.938  0.00  0.00    -0.243 NA
ATOM     14  C   UNL     1      -0.984  -5.971  -5.701  0.00  0.00    +0.125 A 
ATOM     15 CL   UNL     1      -2.193  -7.873  -8.875  0.00  0.00    -0.062 Cl
ENDBRANCH   6   9
ENDBRANCH   3   5
BRANCH   1  16
ATOM     16  C   UNL     1       0.691  -3.186  -0.024  0.00  0.00    +0.130 C 
BRANCH  16  23
ATOM     17  C   UNL     1      -0.016   1.348   0.009  0.00  0.00    +0.001 A 
ATOM     18  C   UNL     1       1.166   2.101   0.002  0.00  0.00    +0.002 A 
ATOM     19  C   UNL     1       2.391   1.535  -0.013  0.00  0.00    +0.026 A 
ATOM     20  C   UNL     1       2.529   0.120  -0.022  0.00  0.00    +0.043 A 
ATOM     21  N   UNL     1       3.587  -0.654  -0.037  0.00  0.00    -0.380 N 
ATOM     22  C   UNL     1       3.143  -2.053  -0.041  0.00  0.00    +0.145 C 
ATOM     23  C   UNL     1       1.631  -2.008  -0.025  0.00  0.00    -0.033 C 
ATOM     24  C   UNL     1       1.295  -0.698  -0.014  0.00  0.00    -0.001 A 
ATOM     25  C   UNL     1       0.002  -0.004   0.002  0.00  0.00    +0.010 A 
ATOM     26  H   UNL     1       4.509  -0.353  -0.045  0.00  0.00    +0.160 HD
ENDBRANCH  16  23
ENDBRANCH   1  16
TORSDOF 4
