REMARK  Name = ZINC35554634
REMARK  7 active torsions:
REMARK  status: ('A' for Active; 'I' for Inactive)
REMARK    1  A    between atoms: C_1  and  C_2
REMARK    2  A    between atoms: C_2  and  N_3
REMARK    3  A    between atoms: N_3  and  C_4
REMARK    4  A    between atoms: C_4  and  C_6
REMARK    5  A    between atoms: C_4  and  C_14
REMARK    6  A    between atoms: C_19  and  O_20
REMARK    7  A    between atoms: O_20  and  C_21
REMARK                            x       y       z     vdW  Elec       q    Type
REMARK                         _______ _______ _______ _____ _____    ______ ____
ROOT
ATOM      1  C   UNL     1       0.733  -1.960   1.184  0.00  0.00    -0.006 C 
ENDROOT
BRANCH   1   2
ATOM      2  C   UNL     1       1.543  -2.445   0.010  0.00  0.00    -0.056 A 
ATOM      3  C   UNL     1       2.714  -1.795  -0.337  0.00  0.00    +0.004 A 
ATOM      4  C   UNL     1       3.458  -2.239  -1.414  0.00  0.00    +0.021 A 
ATOM      5  C   UNL     1       3.031  -3.333  -2.146  0.00  0.00    +0.059 A 
ATOM      6  C   UNL     1       1.860  -3.983  -1.798  0.00  0.00    +0.059 A 
ATOM      7  C   UNL     1       1.119  -3.541  -0.716  0.00  0.00    +0.023 A 
ATOM      8 CL   UNL     1       1.323  -5.356  -2.715  0.00  0.00    -0.082 Cl
ATOM      9 CL   UNL     1       3.965  -3.890  -3.499  0.00  0.00    -0.082 Cl
ENDBRANCH   1   2
BRANCH   1  10
ATOM     10  C   UNL     1       1.352  -2.461   2.463  0.00  0.00    -0.013 A 
ATOM     11  C   UNL     1       2.148  -1.622   3.220  0.00  0.00    +0.044 A 
ATOM     12  C   UNL     1       2.717  -2.082   4.396  0.00  0.00    +0.124 A 
ATOM     13  C   UNL     1       2.489  -3.382   4.814  0.00  0.00    +0.042 A 
ATOM     14  C   UNL     1       1.694  -4.223   4.059  0.00  0.00    +0.048 A 
ATOM     15  C   UNL     1       1.119  -3.761   2.884  0.00  0.00    +0.122 A 
ATOM     16  F   UNL     1       3.495  -1.262   5.135  0.00  0.00    -0.205 F 
BRANCH  15  17
ATOM     17  O   UNL     1       0.331  -4.585   2.143  0.00  0.00    -0.495 OA
ATOM     18  C   UNL     1       0.135  -5.912   2.637  0.00  0.00    +0.277 C 
ENDBRANCH  15  17
ENDBRANCH   1  10
BRANCH   1  19
ATOM     19  N   UNL     1       0.713  -0.491   1.192  0.00  0.00    +0.386 N 
ATOM     20  H   UNL     1       1.659  -0.141   1.185  0.00  0.00    -0.085 HD
ATOM     21  H   UNL     1       0.240  -0.165   2.022  0.00  0.00    -0.085 HD
BRANCH  19  23
ATOM     22  C   UNL     1      -0.019   1.526   0.010  0.00  0.00    -0.017 C 
ATOM     23  C   UNL     1       0.002  -0.004   0.002  0.00  0.00    -0.085 C 
ENDBRANCH  19  23
ENDBRANCH   1  19
TORSDOF 5
