REMARK  Name = ZINC18165067
REMARK  2 active torsions:
REMARK  status: ('A' for Active; 'I' for Inactive)
REMARK    1  A    between atoms: C_1  and  S_2
REMARK    2  A    between atoms: S_2  and  C_3
REMARK                            x       y       z     vdW  Elec       q    Type
REMARK                         _______ _______ _______ _____ _____    ______ ____
ROOT
ATOM      1  C   UNL     1      -0.829   3.441  -1.307  0.00  0.00    +0.171 A 
ATOM      2  N   UNL     1      -0.223   3.970  -0.266  0.00  0.00    -0.204 NA
ATOM      3  C   UNL     1      -0.152   5.296  -0.108  0.00  0.00    +0.167 A 
ATOM      4  C   UNL     1      -0.730   6.141  -1.063  0.00  0.00    +0.173 A 
ATOM      5  C   UNL     1      -1.378   5.560  -2.177  0.00  0.00    +0.280 A 
ATOM      6  N   UNL     1      -1.405   4.212  -2.274  0.00  0.00    -0.300 N 
ATOM      7  O   UNL     1      -1.895   6.258  -3.033  0.00  0.00    -0.265 OA
ATOM      8  N   UNL     1      -0.512   7.416  -0.657  0.00  0.00    -0.210 NA
ATOM      9  C   UNL     1       0.150   7.405   0.464  0.00  0.00    +0.203 A 
ATOM     10  N   UNL     1       0.395   6.116   0.843  0.00  0.00    -0.313 N 
ATOM     11  H   UNL     1       0.870   5.833   1.640  0.00  0.00    +0.170 HD
ATOM     12 CL   UNL     1       0.646   8.816   1.345  0.00  0.00    -0.043 Cl
ATOM     13  H   UNL     1      -1.841   3.791  -3.031  0.00  0.00    +0.171 HD
ENDROOT
BRANCH   1  15
ATOM     14  C   UNL     1      -0.013   1.086   0.008  0.00  0.00    +0.093 C 
ATOM     15  S   UNL     1      -0.890   1.687  -1.462  0.00  0.00    -0.091 S 
ENDBRANCH   1  15
TORSDOF 1
