REMARK  Name = ZINC37725531
REMARK  12 active torsions:
REMARK  status: ('A' for Active; 'I' for Inactive)
REMARK    1  A    between atoms: C_1  and  C_2
REMARK    2  A    between atoms: C_2  and  C_3
REMARK    3  A    between atoms: C_3  and  C_5
REMARK    4  A    between atoms: C_3  and  N_23
REMARK    5  A    between atoms: C_5  and  C_6
REMARK    6  A    between atoms: C_11  and  O_12
REMARK    7  A    between atoms: O_12  and  C_13
REMARK    8  A    between atoms: C_13  and  C_15
REMARK    9  A    between atoms: C_13  and  C_16
REMARK   10  A    between atoms: N_18  and  C_19
REMARK   11  A    between atoms: C_19  and  C_20
REMARK   12  A    between atoms: C_19  and  C_21
REMARK                            x       y       z     vdW  Elec       q    Type
REMARK                         _______ _______ _______ _____ _____    ______ ____
ROOT
ATOM      1  C   UNL     1       1.270  -2.299  -2.704  0.00  0.00    -0.006 A 
ATOM      2  C   UNL     1       0.502  -2.319  -3.852  0.00  0.00    +0.022 A 
ATOM      3  C   UNL     1       1.096  -2.550  -5.079  0.00  0.00    +0.018 A 
ATOM      4  C   UNL     1       2.461  -2.762  -5.160  0.00  0.00    +0.019 A 
ATOM      5  C   UNL     1       3.233  -2.742  -4.015  0.00  0.00    +0.047 A 
ATOM      6  C   UNL     1       2.640  -2.505  -2.783  0.00  0.00    +0.125 A 
ATOM      7 BR   UNL     1       0.042  -2.578  -6.648  0.00  0.00    -0.050 Br
ENDROOT
BRANCH   1   8
ATOM      8  C   UNL     1       0.622  -2.047  -1.367  0.00  0.00    +0.022 C 
BRANCH   8   9
ATOM      9  C   UNL     1       0.718  -0.558  -1.026  0.00  0.00    -0.071 C 
BRANCH   9  10
ATOM     10  N   UNL     1       2.128  -0.186  -0.851  0.00  0.00    +0.380 N 
ATOM     11  H   UNL     1       2.633  -0.369  -1.705  0.00  0.00    -0.090 HD
ATOM     12  H   UNL     1       2.191   0.796  -0.626  0.00  0.00    -0.090 HD
ATOM     13  H   UNL     1       2.529  -0.729  -0.101  0.00  0.00    -0.090 HD
ENDBRANCH   9  10
BRANCH   9  15
ATOM     14  C   UNL     1      -0.058   1.224   0.544  0.00  0.00    +0.002 C 
ATOM     15  C   UNL     1      -0.047  -0.281   0.270  0.00  0.00    -0.019 C 
ENDBRANCH   9  15
ENDBRANCH   8   9
ENDBRANCH   1   8
BRANCH   6  16
ATOM     16  O   UNL     1       3.398  -2.481  -1.656  0.00  0.00    -0.480 OA
BRANCH  16  17
ATOM     17  C   UNL     1       4.778  -2.825  -1.794  0.00  0.00    +0.255 C 
ATOM     18  C   UNL     1       5.572  -1.586  -2.216  0.00  0.00    +0.062 C 
BRANCH  17  19
ATOM     19  C   UNL     1       5.304  -3.335  -0.477  0.00  0.00    +0.254 C 
ATOM     20  O   UNL     1       4.569  -3.398   0.485  0.00  0.00    -0.272 OA
ATOM     21  N   UNL     1       6.591  -3.721  -0.370  0.00  0.00    -0.310 N 
ATOM     22  H   UNL     1       7.178  -3.671  -1.140  0.00  0.00    +0.149 HD
BRANCH  21  23
ATOM     23  C   UNL     1       7.102  -4.217   0.911  0.00  0.00    +0.067 C 
ATOM     24  C   UNL     1       6.796  -5.711   1.038  0.00  0.00    +0.027 C 
ATOM     25  C   UNL     1       8.615  -3.999   0.975  0.00  0.00    +0.027 C 
ENDBRANCH  21  23
ENDBRANCH  17  19
ENDBRANCH  16  17
ENDBRANCH   6  16
TORSDOF 8
