REMARK  Name = ZINC43913881
REMARK  6 active torsions:
REMARK  status: ('A' for Active; 'I' for Inactive)
REMARK    1  A    between atoms: C_1  and  C_2
REMARK    2  A    between atoms: C_2  and  C_3
REMARK    3  A    between atoms: C_7  and  C_25
REMARK    4  A    between atoms: N_10  and  C_11
REMARK    5  A    between atoms: C_17  and  N_19
REMARK    6  A    between atoms: N_19  and  C_20
REMARK                            x       y       z     vdW  Elec       q    Type
REMARK                         _______ _______ _______ _____ _____    ______ ____
ROOT
ATOM      1  C   UNL     1       2.366   1.053  -1.184  0.00  0.00    +0.048 C 
ATOM      2  C   UNL     1       1.670   1.495  -2.473  0.00  0.00    +0.082 C 
ATOM      3  C   UNL     1       1.638   3.023  -2.536  0.00  0.00    +0.171 C 
ATOM      4  C   UNL     1       3.065   3.572  -2.510  0.00  0.00    +0.063 C 
ATOM      5  C   UNL     1       3.759   3.127  -1.222  0.00  0.00    -0.009 C 
ATOM      6  C   UNL     1       3.796   1.599  -1.164  0.00  0.00    -0.054 C 
ATOM      7  O   UNL     1       0.910   3.533  -1.407  0.00  0.00    -0.346 OA
ATOM      8  C   UNL     1       0.206   4.692  -1.914  0.00  0.00    +0.191 C 
ATOM      9  C   UNL     1      -0.158   4.236  -3.350  0.00  0.00    +0.191 C 
ATOM     10  O   UNL     1       0.982   3.442  -3.739  0.00  0.00    -0.346 OA
ENDROOT
BRANCH   1  16
ATOM     11  C   UNL     1       2.373  -0.887   0.266  0.00  0.00    +0.082 C 
ATOM     12  C   UNL     1       2.471  -2.415   0.284  0.00  0.00    +0.179 C 
ATOM     13  O   UNL     1       1.407  -2.965  -0.496  0.00  0.00    -0.374 OA
ATOM     14  C   UNL     1       1.405  -2.527  -1.858  0.00  0.00    +0.129 C 
ATOM     15  C   UNL     1       1.296  -1.001  -1.897  0.00  0.00    +0.116 C 
ATOM     16  N   UNL     1       2.402  -0.415  -1.125  0.00  0.00    -0.293 NA
ATOM     17  C   UNL     1       0.213  -3.145  -2.591  0.00  0.00    +0.039 C 
BRANCH  11  19
ATOM     18  C   UNL     1       3.535  -0.797   2.476  0.00  0.00    +0.005 C 
ATOM     19  C   UNL     1       3.555  -0.290   1.033  0.00  0.00    +0.018 C 
ENDBRANCH  11  19
ENDBRANCH   1  16
BRANCH   6  20
ATOM     20  N   UNL     1       4.533   1.082  -2.325  0.00  0.00    +0.380 N 
ATOM     21  C   UNL     1       5.940   1.495  -2.233  0.00  0.00    -0.100 C 
ATOM     22  H   UNL     1       4.478   0.075  -2.337  0.00  0.00    -0.086 HD
ATOM     23  H   UNL     1       4.129   1.452  -3.172  0.00  0.00    -0.086 HD
ENDBRANCH   6  20
TORSDOF 3
