REMARK  Name = ZINC63027971
REMARK  10 active torsions:
REMARK  status: ('A' for Active; 'I' for Inactive)
REMARK    1  A    between atoms: C_1  and  C_2
REMARK    2  A    between atoms: C_2  and  C_4
REMARK    3  A    between atoms: C_2  and  N_19
REMARK    4  A    between atoms: C_4  and  C_6
REMARK    5  A    between atoms: C_4  and  C_16
REMARK    6  A    between atoms: C_9  and  S_12
REMARK    7  A    between atoms: S_12  and  N_15
REMARK    8  A    between atoms: C_16  and  C_17
REMARK    9  A    between atoms: C_16  and  C_18
REMARK   10  A    between atoms: N_19  and  C_20
REMARK                            x       y       z     vdW  Elec       q    Type
REMARK                         _______ _______ _______ _____ _____    ______ ____
ROOT
ATOM      1  C   UNL     1       2.098   0.054   1.102  0.00  0.00    -0.045 A 
ATOM      2  C   UNL     1       2.166   1.421   0.910  0.00  0.00    +0.006 A 
ATOM      3  C   UNL     1       3.393   2.037   0.752  0.00  0.00    +0.029 A 
ATOM      4  C   UNL     1       4.553   1.285   0.787  0.00  0.00    +0.105 A 
ATOM      5  C   UNL     1       4.485  -0.082   0.980  0.00  0.00    +0.029 A 
ATOM      6  C   UNL     1       3.258  -0.697   1.142  0.00  0.00    +0.006 A 
ENDROOT
BRANCH   4   7
ATOM      7  S   UNL     1       6.118   2.070   0.584  0.00  0.00    +0.056 S 
ATOM      8  O   UNL     1       7.014   1.073   0.112  0.00  0.00    -0.153 OA
ATOM      9  O   UNL     1       5.878   3.277  -0.126  0.00  0.00    -0.153 OA
BRANCH   7  10
ATOM     10  N   UNL     1       6.646   2.505   2.092  0.00  0.00    -0.204 NA
ATOM     11  H   UNL     1       6.103   2.309   2.872  0.00  0.00    +0.144 HD
ATOM     12  H   UNL     1       7.499   2.955   2.196  0.00  0.00    +0.144 HD
ENDBRANCH   7  10
ENDBRANCH   4   7
BRANCH   1  13
ATOM     13  C   UNL     1       0.760  -0.617   1.274  0.00  0.00    +0.007 C 
BRANCH  13  14
ATOM     14  C   UNL     1      -0.071   0.157   2.299  0.00  0.00    -0.011 C 
ATOM     15  C   UNL     1      -1.439  -0.510   2.456  0.00  0.00    +0.008 C 
ATOM     16  C   UNL     1       0.653   0.158   3.647  0.00  0.00    +0.008 C 
ENDBRANCH  13  14
BRANCH  13  18
ATOM     17  C   UNL     1       0.867  -1.389  -1.100  0.00  0.00    -0.013 C 
ATOM     18  C   UNL     1       0.024  -0.639  -0.067  0.00  0.00    -0.068 C 
BRANCH  18  19
ATOM     19  N   UNL     1      -0.200   0.739  -0.525  0.00  0.00    +0.379 N 
ATOM     20  C   UNL     1      -1.039   0.724  -1.731  0.00  0.00    -0.100 C 
ATOM     21  H   UNL     1      -0.663   1.264   0.201  0.00  0.00    -0.086 HD
ATOM     22  H   UNL     1       0.688   1.171  -0.738  0.00  0.00    -0.086 HD
ENDBRANCH  18  19
ENDBRANCH  13  18
ENDBRANCH   1  13
TORSDOF 6
