REMARK  Name = ZINC08299545
REMARK  4 active torsions:
REMARK  status: ('A' for Active; 'I' for Inactive)
REMARK    1  A    between atoms: C_3  and  C_9
REMARK    2  A    between atoms: C_6  and  C_7
REMARK    3  A    between atoms: C_14  and  C_17
REMARK    4  A    between atoms: N_19  and  C_20
REMARK                            x       y       z     vdW  Elec       q    Type
REMARK                         _______ _______ _______ _____ _____    ______ ____
ROOT
ATOM      1  C   UNL     1       0.387  -1.385   1.992  0.00  0.00    +0.247 C 
ATOM      2  O   UNL     1       1.289  -2.180   2.168  0.00  0.00    -0.270 OA
ATOM      3  N   UNL     1       0.660  -0.070   1.877  0.00  0.00    -0.300 N 
ATOM      4  C   UNL     1      -0.406   0.899   1.582  0.00  0.00    +0.089 C 
ATOM      5  C   UNL     1      -0.334   2.032   2.611  0.00  0.00    -0.062 C 
ATOM      6  C   UNL     1       2.008   1.585   3.055  0.00  0.00    +0.034 C 
ATOM      7  C   UNL     1       2.031   0.434   2.043  0.00  0.00    +0.101 C 
ATOM      8  N   UNL     1       1.028   2.601   2.624  0.00  0.00    +0.389 N 
ATOM      9  H   UNL     1       1.057   3.395   3.273  0.00  0.00    -0.085 HD
ATOM     10  H   UNL     1       1.269   2.923   1.679  0.00  0.00    -0.085 HD
ENDROOT
BRANCH   1  13
ATOM     11  C   UNL     1      -2.816  -3.175   2.791  0.00  0.00    +0.019 A 
ATOM     12  C   UNL     1      -1.514  -2.732   2.872  0.00  0.00    +0.014 A 
ATOM     13  C   UNL     1      -1.011  -1.860   1.904  0.00  0.00    +0.037 A 
ATOM     14  C   UNL     1      -1.829  -1.433   0.857  0.00  0.00    +0.014 A 
ATOM     15  C   UNL     1      -3.130  -1.879   0.772  0.00  0.00    +0.019 A 
ATOM     16  C   UNL     1      -3.633  -2.751   1.740  0.00  0.00    +0.052 A 
BRANCH  16  17
ATOM     17  C   UNL     1      -4.987  -3.211   1.656  0.00  0.00    +0.099 C 
ATOM     18  N   UNL     1      -6.060  -3.575   1.589  0.00  0.00    -0.191 NA
ENDBRANCH  16  17
ENDBRANCH   1  13
BRANCH   6  19
ATOM     19  C   UNL     1       3.374   2.217   3.129  0.00  0.00    +0.201 C 
ATOM     20  O   UNL     1       3.599   3.247   2.529  0.00  0.00    -0.278 OA
ATOM     21  N   UNL     1       4.346   1.638   3.861  0.00  0.00    -0.305 N 
ATOM     22  H   UNL     1       4.167   0.814   4.341  0.00  0.00    +0.149 HD
BRANCH  21  23
ATOM     23  C   UNL     1       5.674   2.253   3.933  0.00  0.00    +0.159 C 
ATOM     24  C   UNL     1       6.364   1.822   5.229  0.00  0.00    +0.033 C 
ATOM     25  C   UNL     1       7.837   2.244   5.157  0.00  0.00    +0.021 C 
ATOM     26  C   UNL     1       8.531   1.416   4.075  0.00  0.00    +0.104 C 
ATOM     27  N   UNL     1       7.774   1.465   2.830  0.00  0.00    -0.314 N 
ATOM     28  C   UNL     1       6.490   1.817   2.750  0.00  0.00    +0.233 C 
ATOM     29  O   UNL     1       5.953   1.782   1.663  0.00  0.00    -0.274 OA
ATOM     30  H   UNL     1       8.233   1.228   2.009  0.00  0.00    +0.149 HD
ENDBRANCH  21  23
ENDBRANCH   6  19
TORSDOF 4
