REMARK  Name = ZINC05541529
REMARK  5 active torsions:
REMARK  status: ('A' for Active; 'I' for Inactive)
REMARK    1  A    between atoms: C_1  and  C_2
REMARK    2  A    between atoms: C_5  and  N_8
REMARK    3  A    between atoms: C_9  and  C_11
REMARK    4  A    between atoms: C_11  and  N_12
REMARK    5  A    between atoms: N_20  and  N_21
REMARK                            x       y       z     vdW  Elec       q    Type
REMARK                         _______ _______ _______ _____ _____    ______ ____
ROOT
ATOM      1  N   UNL     1      -4.044  -2.850   0.673  0.00  0.00    -0.257 N 
ATOM      2  C   UNL     1      -4.209  -1.472   0.597  0.00  0.00    +0.047 A 
ATOM      3  C   UNL     1      -5.339  -0.669   0.704  0.00  0.00    +0.024 A 
ATOM      4  C   UNL     1      -5.227   0.703   0.604  0.00  0.00    +0.002 A 
ATOM      5  C   UNL     1      -3.994   1.295   0.383  0.00  0.00    +0.001 A 
ATOM      6  C   UNL     1      -2.862   0.514   0.269  0.00  0.00    +0.012 A 
ATOM      7  C   UNL     1      -2.964  -0.869   0.377  0.00  0.00    +0.029 A 
ATOM      8  C   UNL     1      -1.973  -1.968   0.307  0.00  0.00    +0.155 C 
ATOM      9  N   UNL     1      -0.680  -1.866   0.111  0.00  0.00    -0.166 NA
ATOM     10  C   UNL     1      -2.756  -3.201   0.510  0.00  0.00    +0.272 C 
ATOM     11  O   UNL     1      -2.315  -4.335   0.528  0.00  0.00    -0.268 OA
ENDROOT
BRANCH   9  12
ATOM     12  N   UNL     1      -0.072  -0.604   0.087  0.00  0.00    -0.248 N 
ATOM     13  C   UNL     1       1.266  -0.488  -0.234  0.00  0.00    +0.187 C 
ATOM     14  N   UNL     1       1.862   0.751  -0.259  0.00  0.00    -0.370 N 
ATOM     15  H   UNL     1      -0.591   0.188   0.295  0.00  0.00    +0.192 HD
ATOM     16  H   UNL     1       1.632  -2.470  -0.524  0.00  0.00    +0.159 HD
ATOM     17  H   UNL     1       2.802   0.832  -0.484  0.00  0.00    +0.159 HD
ATOM     18  H   UNL     1       1.342   1.543  -0.054  0.00  0.00    +0.159 HD
ATOM     19  N   UNL     1       2.028  -1.530  -0.528  0.00  0.00    -0.370 N 
ATOM     20  H   UNL     1       3.019  -1.391  -0.761  0.00  0.00    +0.159 HD
ENDBRANCH   9  12
BRANCH   1  21
ATOM     21  C   UNL     1      -5.135  -3.801   0.901  0.00  0.00    +0.210 C 
BRANCH  21  23
ATOM     22  N   UNL     1      -6.256  -4.867   2.831  0.00  0.00    -0.284 N 
ATOM     23  C   UNL     1      -5.304  -4.025   2.382  0.00  0.00    +0.235 C 
ATOM     24  O   UNL     1      -4.584  -3.448   3.169  0.00  0.00    -0.274 OA
ATOM     25  H   UNL     1      -6.780  -5.386   2.202  0.00  0.00    +0.155 HD
BRANCH  22  30
ATOM     26  C   UNL     1      -7.195  -5.373   8.403  0.00  0.00    +0.044 C 
ATOM     27  C   UNL     1      -6.945  -5.238   6.923  0.00  0.00    -0.050 A 
ATOM     28  C   UNL     1      -6.569  -4.017   6.395  0.00  0.00    +0.005 A 
ATOM     29  C   UNL     1      -6.340  -3.890   5.039  0.00  0.00    +0.023 A 
ATOM     30  C   UNL     1      -6.487  -4.992   4.206  0.00  0.00    +0.033 A 
ATOM     31  C   UNL     1      -6.868  -6.216   4.739  0.00  0.00    +0.023 A 
ATOM     32  C   UNL     1      -7.091  -6.337   6.096  0.00  0.00    +0.005 A 
ENDBRANCH  22  30
ENDBRANCH  21  23
ENDBRANCH   1  21
TORSDOF 4
