REMARK  Name = ZINC43406711
REMARK  10 active torsions:
REMARK  status: ('A' for Active; 'I' for Inactive)
REMARK    1  A    between atoms: C_1  and  C_2
REMARK    2  A    between atoms: C_2  and  C_3
REMARK    3  A    between atoms: C_3  and  C_4
REMARK    4  A    between atoms: C_4  and  C_5
REMARK    5  A    between atoms: C_5  and  C_6
REMARK    6  A    between atoms: N_14  and  C_15
REMARK    7  A    between atoms: C_17  and  C_23
REMARK    8  A    between atoms: C_17  and  C_24
REMARK    9  A    between atoms: C_19  and  C_21
REMARK   10  A    between atoms: C_19  and  C_22
REMARK                            x       y       z     vdW  Elec       q    Type
REMARK                         _______ _______ _______ _____ _____    ______ ____
ROOT
ATOM      1  C   UNL     1       1.124  -3.967  -2.223  0.00  0.00    +0.104 A 
ATOM      2  N   UNL     1       0.231  -4.816  -2.690  0.00  0.00    -0.145 NA
ATOM      3  N   UNL     1       0.468  -6.056  -2.623  0.00  0.00    -0.126 NA
ATOM      4  C   UNL     1       1.583  -6.525  -2.100  0.00  0.00    +0.189 A 
ATOM      5  S   UNL     1       2.383  -5.106  -1.663  0.00  0.00    -0.035 S 
ATOM      6  N   UNL     1       1.994  -7.845  -1.952  0.00  0.00    -0.247 N 
ATOM      7  C   UNL     1       1.202  -8.850  -2.376  0.00  0.00    +0.306 C 
ATOM      8  O   UNL     1       0.128  -8.602  -2.889  0.00  0.00    -0.252 OA
ATOM      9  N   UNL     1       1.601 -10.129  -2.232  0.00  0.00    -0.296 N 
ATOM     10  H   UNL     1       2.852  -8.043  -1.542  0.00  0.00    +0.158 HD
ATOM     11  H   UNL     1       2.458 -10.327  -1.823  0.00  0.00    +0.151 HD
ENDROOT
BRANCH   9  12
ATOM     12  C   UNL     1       0.738 -11.223  -2.694  0.00  0.00    +0.072 C 
ATOM     13  C   UNL     1      -0.243 -11.594  -1.581  0.00  0.00    +0.009 C 
ATOM     14  C   UNL     1      -1.141 -12.741  -2.043  0.00  0.00    -0.072 C 
ATOM     15  N   UNL     1      -0.373 -13.884  -2.512  0.00  0.00    +0.386 N 
ATOM     16  C   UNL     1       0.730 -13.628  -3.425  0.00  0.00    -0.072 C 
ATOM     17  C   UNL     1       1.599 -12.448  -3.002  0.00  0.00    +0.009 C 
ATOM     18  C   UNL     1       1.633 -14.885  -3.426  0.00  0.00    -0.010 C 
ATOM     19  C   UNL     1       0.241 -13.428  -4.862  0.00  0.00    -0.010 C 
ATOM     20  C   UNL     1      -2.135 -12.245  -3.093  0.00  0.00    -0.010 C 
ATOM     21  C   UNL     1      -1.963 -13.202  -0.817  0.00  0.00    -0.010 C 
ATOM     22  H   UNL     1      -0.006 -14.381  -1.696  0.00  0.00    -0.084 HD
ATOM     23  H   UNL     1      -1.016 -14.542  -2.960  0.00  0.00    -0.084 HD
ENDBRANCH   9  12
BRANCH   1  24
ATOM     24  C   UNL     1       1.095  -2.461  -2.178  0.00  0.00    +0.065 C 
BRANCH  24  25
ATOM     25  C   UNL     1       0.463  -2.001  -0.863  0.00  0.00    +0.007 C 
BRANCH  25  26
ATOM     26  C   UNL     1       0.434  -0.472  -0.818  0.00  0.00    +0.000 C 
BRANCH  26  28
ATOM     27  C   UNL     1      -0.228   1.516   0.542  0.00  0.00    +0.004 C 
ATOM     28  C   UNL     1      -0.199  -0.013   0.497  0.00  0.00    -0.003 C 
ENDBRANCH  26  28
ENDBRANCH  25  26
ENDBRANCH  24  25
ENDBRANCH   1  24
TORSDOF 5
