REMARK  Name = ZINC62963992
REMARK  9 active torsions:
REMARK  status: ('A' for Active; 'I' for Inactive)
REMARK    1  A    between atoms: C_1  and  C_2
REMARK    2  A    between atoms: C_2  and  C_3
REMARK    3  A    between atoms: C_3  and  C_5
REMARK    4  A    between atoms: C_3  and  N_22
REMARK    5  A    between atoms: C_5  and  C_7
REMARK    6  A    between atoms: C_5  and  N_13
REMARK    7  A    between atoms: C_16  and  N_19
REMARK    8  A    between atoms: N_19  and  C_20
REMARK    9  A    between atoms: N_19  and  C_21
REMARK                            x       y       z     vdW  Elec       q    Type
REMARK                         _______ _______ _______ _____ _____    ______ ____
ROOT
ATOM      1  C   UNL     1       0.739  -2.027  -1.265  0.00  0.00    +0.079 C 
ENDROOT
BRANCH   1   2
ATOM      2  C   UNL     1       1.564  -2.635  -0.160  0.00  0.00    +0.007 A 
ATOM      3  C   UNL     1       2.882  -2.948  -0.153  0.00  0.00    +0.014 A 
ATOM      4  C   UNL     1       3.433  -3.505   0.987  0.00  0.00    +0.028 A 
ATOM      5  C   UNL     1       2.637  -3.720   2.064  0.00  0.00    +0.078 A 
ATOM      6  S   UNL     1       1.059  -3.122   1.482  0.00  0.00    -0.080 S 
ATOM      7 CL   UNL     1       3.048  -4.396   3.609  0.00  0.00    -0.076 Cl
ENDBRANCH   1   2
BRANCH   1   8
ATOM      8  N   UNL     1      -0.594  -2.644  -1.277  0.00  0.00    -0.298 NA
ATOM      9  C   UNL     1      -0.503  -4.104  -1.541  0.00  0.00    +0.083 C 
ATOM     10  C   UNL     1      -1.906  -4.495  -2.053  0.00  0.00    +0.001 C 
ATOM     11  C   UNL     1      -2.505  -3.191  -2.618  0.00  0.00    -0.054 C 
ATOM     12  C   UNL     1      -1.413  -2.121  -2.401  0.00  0.00    +0.070 C 
BRANCH  11  13
ATOM     13  N   UNL     1      -2.796  -3.342  -4.050  0.00  0.00    +0.379 N 
ATOM     14  C   UNL     1      -3.786  -4.411  -4.238  0.00  0.00    -0.096 C 
ATOM     15  C   UNL     1      -3.332  -2.080  -4.577  0.00  0.00    -0.096 C 
ATOM     16  H   UNL     1      -1.948  -3.579  -4.543  0.00  0.00    -0.082 HD
ENDBRANCH  11  13
ENDBRANCH   1   8
BRANCH   1  17
ATOM     17  C   UNL     1       0.602  -0.522  -1.030  0.00  0.00    -0.053 C 
BRANCH  17  18
ATOM     18  N   UNL     1       1.937   0.085  -0.952  0.00  0.00    +0.381 N 
ATOM     19  H   UNL     1       2.431  -0.076  -1.817  0.00  0.00    -0.090 HD
ATOM     20  H   UNL     1       1.847   1.078  -0.797  0.00  0.00    -0.090 HD
ATOM     21  H   UNL     1       2.451  -0.329  -0.189  0.00  0.00    -0.090 HD
ENDBRANCH  17  18
BRANCH  17  23
ATOM     22  C   UNL     1      -0.406   1.222   0.448  0.00  0.00    +0.002 C 
ATOM     23  C   UNL     1      -0.147  -0.276   0.281  0.00  0.00    -0.018 C 
ENDBRANCH  17  23
ENDBRANCH   1  17
TORSDOF 6
