REMARK  Name = ZINC63511480
REMARK  7 active torsions:
REMARK  status: ('A' for Active; 'I' for Inactive)
REMARK    1  A    between atoms: C_1  and  C_2
REMARK    2  A    between atoms: C_4  and  C_7
REMARK    3  A    between atoms: C_7  and  N_12
REMARK    4  A    between atoms: N_12  and  C_13
REMARK    5  A    between atoms: C_13  and  C_14
REMARK    6  A    between atoms: N_19  and  C_20
REMARK    7  A    between atoms: C_20  and  C_21
REMARK                            x       y       z     vdW  Elec       q    Type
REMARK                         _______ _______ _______ _____ _____    ______ ____
ROOT
ATOM      1  N   UNL     1      -2.470  -3.204  -1.181  0.00  0.00    +0.393 N 
ATOM      2  H   UNL     1      -1.913  -3.228  -2.022  0.00  0.00    -0.084 HD
ATOM      3  H   UNL     1      -3.093  -3.997  -1.168  0.00  0.00    -0.084 HD
ENDROOT
BRANCH   1   4
ATOM      4  C   UNL     1      -1.588  -3.254  -0.008  0.00  0.00    -0.003 C 
ATOM      5  C   UNL     1      -2.428  -3.272   1.286  0.00  0.00    -0.005 C 
ATOM      6  C   UNL     1      -2.542  -4.775   1.644  0.00  0.00    -0.001 C 
ATOM      7  C   UNL     1      -1.142  -5.322   1.268  0.00  0.00    -0.001 C 
ATOM      8  C   UNL     1      -0.770  -4.558  -0.019  0.00  0.00    -0.005 C 
BRANCH   4  12
ATOM      9  C   UNL     1      -0.018   1.503   0.010  0.00  0.00    +0.112 C 
ATOM     10  C   UNL     1       0.002  -0.004   0.002  0.00  0.00    +0.224 A 
ATOM     11  N   UNL     1      -1.044  -0.783   0.003  0.00  0.00    -0.198 NA
ATOM     12  C   UNL     1      -0.663  -2.065  -0.006  0.00  0.00    +0.161 A 
ATOM     13  N   UNL     1       0.638  -2.118  -0.012  0.00  0.00    -0.063 NA
ATOM     14  O   UNL     1       1.097  -0.774  -0.013  0.00  0.00    -0.338 OA
ENDBRANCH   4  12
ENDBRANCH   1   4
BRANCH   1  15
ATOM     15  C   UNL     1      -3.256  -1.963  -1.150  0.00  0.00    +0.017 C 
BRANCH  15  16
ATOM     16  C   UNL     1      -4.161  -1.911  -2.354  0.00  0.00    +0.203 C 
ATOM     17  O   UNL     1      -4.152  -2.818  -3.159  0.00  0.00    -0.277 OA
ATOM     18  N   UNL     1      -4.980  -0.856  -2.536  0.00  0.00    -0.242 N 
ATOM     19  C   UNL     1      -5.789  -0.810  -3.613  0.00  0.00    +0.306 C 
ATOM     20  O   UNL     1      -5.780  -1.719  -4.420  0.00  0.00    -0.252 OA
ATOM     21  N   UNL     1      -6.608   0.245  -3.795  0.00  0.00    -0.296 N 
ATOM     22  H   UNL     1      -4.987  -0.131  -1.892  0.00  0.00    +0.159 HD
ATOM     23  H   UNL     1      -6.616   0.970  -3.151  0.00  0.00    +0.151 HD
BRANCH  21  24
ATOM     24  C   UNL     1      -7.488   0.295  -4.966  0.00  0.00    +0.132 C 
BRANCH  24  25
ATOM     25  C   UNL     1      -8.294   1.568  -4.933  0.00  0.00    -0.016 C 
ATOM     26  C   UNL     1      -8.271   2.385  -5.957  0.00  0.00    +0.005 C 
ENDBRANCH  24  25
ENDBRANCH  21  24
ENDBRANCH  15  16
ENDBRANCH   1  15
TORSDOF 6
