REMARK  Name = ZINC52546731
REMARK  11 active torsions:
REMARK  status: ('A' for Active; 'I' for Inactive)
REMARK    1  A    between atoms: C_1  and  C_2
REMARK    2  A    between atoms: C_8  and  N_10
REMARK    3  A    between atoms: N_10  and  C_11
REMARK    4  A    between atoms: N_10  and  C_12
REMARK    5  A    between atoms: C_12  and  C_13
REMARK    6  A    between atoms: C_15  and  C_18
REMARK    7  A    between atoms: C_18  and  N_19
REMARK    8  A    between atoms: N_19  and  C_20
REMARK    9  A    between atoms: C_20  and  C_21
REMARK   10  A    between atoms: C_20  and  C_22
REMARK   11  A    between atoms: C_20  and  C_23
REMARK                            x       y       z     vdW  Elec       q    Type
REMARK                         _______ _______ _______ _____ _____    ______ ____
ROOT
ATOM      1  C   UNL     1       3.769   1.798   1.346  0.00  0.00    +0.121 A 
ATOM      2  C   UNL     1       4.323   2.189   0.182  0.00  0.00    +0.067 A 
ATOM      3  C   UNL     1       5.665   2.530   0.429  0.00  0.00    +0.067 A 
ATOM      4  N   UNL     1       5.902   2.347   1.697  0.00  0.00    -0.085 NA
ATOM      5  O   UNL     1       4.707   1.886   2.302  0.00  0.00    -0.361 OA
ENDROOT
BRANCH   1   6
ATOM      6  C   UNL     1       2.345   1.347   1.542  0.00  0.00    -0.000 C 
BRANCH   6   7
ATOM      7  N   UNL     1       2.261  -0.107   1.353  0.00  0.00    +0.385 N 
ATOM      8  C   UNL     1       3.009  -0.784   2.421  0.00  0.00    -0.095 C 
ATOM      9  H   UNL     1       2.657  -0.353   0.458  0.00  0.00    -0.081 HD
BRANCH   7  16
ATOM     10  C   UNL     1       1.317  -2.265  -0.337  0.00  0.00    +0.006 C 
ATOM     11  C   UNL     1       0.756  -2.017   1.065  0.00  0.00    -0.028 C 
ATOM     12  C   UNL     1      -0.710  -2.454   1.111  0.00  0.00    +0.002 C 
ATOM     13  C   UNL     1      -1.271  -2.207   2.513  0.00  0.00    +0.000 C 
ATOM     14  C   UNL     1      -1.173  -0.717   2.846  0.00  0.00    -0.002 C 
ATOM     15  C   UNL     1       0.293  -0.280   2.799  0.00  0.00    -0.015 C 
ATOM     16  C   UNL     1       0.854  -0.527   1.397  0.00  0.00    -0.065 C 
ENDBRANCH   7  16
ENDBRANCH   6   7
ENDBRANCH   1   6
BRANCH   3  17
ATOM     17  C   UNL     1       6.656   3.020  -0.595  0.00  0.00    -0.022 C 
BRANCH  17  18
ATOM     18  N   UNL     1       6.686   4.488  -0.584  0.00  0.00    +0.386 N 
ATOM     19  H   UNL     1       5.769   4.845  -0.806  0.00  0.00    -0.085 HD
ATOM     20  H   UNL     1       6.960   4.812   0.332  0.00  0.00    -0.085 HD
BRANCH  18  21
ATOM     21  C   UNL     1       7.652   4.966  -1.582  0.00  0.00    -0.076 C 
ATOM     22  C   UNL     1       7.237   4.474  -2.970  0.00  0.00    -0.011 C 
ATOM     23  C   UNL     1       7.683   6.496  -1.570  0.00  0.00    -0.011 C 
ATOM     24  C   UNL     1       9.043   4.425  -1.244  0.00  0.00    -0.011 C 
ENDBRANCH  18  21
ENDBRANCH  17  18
ENDBRANCH   3  17
TORSDOF 6
