REMARK  Name = ZINC44739914
REMARK  7 active torsions:
REMARK  status: ('A' for Active; 'I' for Inactive)
REMARK    1  A    between atoms: C_1  and  C_2
REMARK    2  A    between atoms: C_2  and  N_3
REMARK    3  A    between atoms: C_4  and  C_6
REMARK    4  A    between atoms: C_6  and  N_7
REMARK    5  A    between atoms: N_10  and  C_13
REMARK    6  A    between atoms: C_13  and  C_15
REMARK    7  A    between atoms: C_13  and  C_16
REMARK                            x       y       z     vdW  Elec       q    Type
REMARK                         _______ _______ _______ _____ _____    ______ ____
ROOT
ATOM      1  N   UNL     1       1.442  -3.682  -2.921  0.00  0.00    -0.298 NA
ATOM      2  C   UNL     1       0.109  -4.301  -2.891  0.00  0.00    +0.066 C 
ATOM      3  C   UNL     1       0.257  -5.819  -2.767  0.00  0.00    -0.062 C 
ATOM      4  N   UNL     1       1.027  -6.331  -3.908  0.00  0.00    +0.389 N 
ATOM      5  C   UNL     1       2.364  -5.723  -3.912  0.00  0.00    -0.062 C 
ATOM      6  C   UNL     1       2.234  -4.204  -4.045  0.00  0.00    +0.066 C 
ATOM      7  H   UNL     1       0.550  -6.098  -4.767  0.00  0.00    -0.081 HD
ENDROOT
BRANCH   4   8
ATOM      8  C   UNL     1       1.153  -7.790  -3.799  0.00  0.00    +0.016 C 
ATOM      9  C   UNL     1       2.041  -8.312  -4.931  0.00  0.00    -0.004 C 
BRANCH   8  10
ATOM     10  C   UNL     1      -0.211  -8.421  -3.899  0.00  0.00    +0.202 C 
ATOM     11  O   UNL     1      -1.119  -7.822  -4.436  0.00  0.00    -0.277 OA
ATOM     12  N   UNL     1      -0.424  -9.652  -3.392  0.00  0.00    -0.303 N 
ATOM     13  C   UNL     1      -1.766 -10.188  -3.412  0.00  0.00    +0.107 C 
ATOM     14  C   UNL     1      -2.508  -9.780  -2.115  0.00  0.00    +0.019 C 
ATOM     15  C   UNL     1      -1.966 -10.518  -0.963  0.00  0.00    +0.002 C 
ATOM     16  C   UNL     1      -0.498 -10.228  -0.666  0.00  0.00    +0.002 C 
ATOM     17  C   UNL     1       0.371 -11.115  -1.524  0.00  0.00    +0.019 C 
ATOM     18  C   UNL     1       0.725 -10.399  -2.844  0.00  0.00    +0.107 C 
ENDBRANCH   8  10
ENDBRANCH   4   8
BRANCH   1  19
ATOM     19  C   UNL     1       1.342  -2.218  -2.983  0.00  0.00    +0.180 C 
BRANCH  19  21
ATOM     20  N   UNL     1       0.554  -0.378  -1.530  0.00  0.00    -0.315 N 
ATOM     21  C   UNL     1       0.743  -1.702  -1.700  0.00  0.00    +0.227 C 
ATOM     22  O   UNL     1       0.430  -2.477  -0.822  0.00  0.00    -0.274 OA
ATOM     23  H   UNL     1       0.805   0.242  -2.232  0.00  0.00    +0.149 HD
BRANCH  20  25
ATOM     24  C   UNL     1      -0.133   1.649  -0.347  0.00  0.00    +0.024 C 
ATOM     25  C   UNL     1      -0.028   0.124  -0.283  0.00  0.00    +0.101 C 
ENDBRANCH  20  25
ENDBRANCH  19  21
ENDBRANCH   1  19
TORSDOF 5
