REMARK  Name = ZINC63175899
REMARK  6 active torsions:
REMARK  status: ('A' for Active; 'I' for Inactive)
REMARK    1  A    between atoms: C_1  and  N_2
REMARK    2  A    between atoms: C_4  and  S_11
REMARK    3  A    between atoms: N_7  and  C_10
REMARK    4  A    between atoms: S_11  and  N_14
REMARK    5  A    between atoms: N_14  and  C_15
REMARK    6  A    between atoms: C_20  and  N_22
REMARK                            x       y       z     vdW  Elec       q    Type
REMARK                         _______ _______ _______ _____ _____    ______ ____
ROOT
ATOM      1  S   UNL     1      -2.666  -2.961  -0.001  0.00  0.00    +0.065 S 
ATOM      2  O   UNL     1      -2.499  -4.017   0.935  0.00  0.00    -0.153 OA
ATOM      3  O   UNL     1      -3.717  -2.011   0.102  0.00  0.00    -0.153 OA
ENDROOT
BRANCH   1   7
ATOM      4  C   UNL     1      -0.018   1.461   0.010  0.00  0.00    +0.153 C 
ATOM      5  N   UNL     1       0.002  -0.004   0.002  0.00  0.00    -0.301 N 
ATOM      6  C   UNL     1      -1.177  -0.698   0.004  0.00  0.00    +0.124 A 
ATOM      7  C   UNL     1      -1.159  -2.048  -0.004  0.00  0.00    +0.186 A 
ATOM      8  C   UNL     1       0.087  -2.720  -0.014  0.00  0.00    +0.283 A 
ATOM      9  O   UNL     1       0.129  -3.937  -0.022  0.00  0.00    -0.265 OA
ATOM     10  N   UNL     1       1.227  -2.000  -0.016  0.00  0.00    -0.262 N 
ATOM     11  C   UNL     1       1.180  -0.654  -0.013  0.00  0.00    +0.332 A 
ATOM     12  O   UNL     1       2.216  -0.018  -0.019  0.00  0.00    -0.246 OA
ATOM     13  C   UNL     1       2.522  -2.684  -0.026  0.00  0.00    +0.157 C 
ENDBRANCH   1   7
BRANCH   1  14
ATOM     14  N   UNL     1      -2.812  -3.669  -1.491  0.00  0.00    -0.188 NA
ATOM     15  H   UNL     1      -3.535  -3.409  -2.083  0.00  0.00    +0.148 HD
BRANCH  14  16
ATOM     16  C   UNL     1      -1.849  -4.689  -1.915  0.00  0.00    +0.062 C 
ATOM     17  C   UNL     1      -0.754  -4.048  -2.793  0.00  0.00    +0.019 C 
ATOM     18  C   UNL     1      -0.454  -5.121  -3.869  0.00  0.00    -0.000 C 
ATOM     19  C   UNL     1      -1.856  -5.710  -4.165  0.00  0.00    -0.015 C 
ATOM     20  C   UNL     1      -2.550  -5.746  -2.787  0.00  0.00    -0.056 C 
BRANCH  20  21
ATOM     21  N   UNL     1      -3.974  -5.415  -2.931  0.00  0.00    +0.381 N 
ATOM     22  H   UNL     1      -4.066  -4.510  -3.369  0.00  0.00    -0.090 HD
ATOM     23  H   UNL     1      -4.425  -6.113  -3.504  0.00  0.00    -0.090 HD
ATOM     24  H   UNL     1      -4.408  -5.394  -2.021  0.00  0.00    -0.090 HD
ENDBRANCH  20  21
ENDBRANCH  14  16
ENDBRANCH   1  14
TORSDOF 4
