REMARK  Name = ZINC14923013
REMARK  16 active torsions:
REMARK  status: ('A' for Active; 'I' for Inactive)
REMARK    1  A    between atoms: C_1  and  O_2
REMARK    2  A    between atoms: O_2  and  C_3
REMARK    3  A    between atoms: C_5  and  C_24
REMARK    4  A    between atoms: C_8  and  O_9
REMARK    5  A    between atoms: O_9  and  C_10
REMARK    6  A    between atoms: C_10  and  C_12
REMARK    7  A    between atoms: C_14  and  O_22
REMARK    8  A    between atoms: C_15  and  O_20
REMARK    9  A    between atoms: C_16  and  O_18
REMARK   10  A    between atoms: O_18  and  C_19
REMARK   11  A    between atoms: O_20  and  C_21
REMARK   12  A    between atoms: O_22  and  C_23
REMARK   13  A    between atoms: N_25  and  N_26
REMARK   14  A    between atoms: C_27  and  C_29
REMARK   15  A    between atoms: C_29  and  N_30
REMARK   16  A    between atoms: C_31  and  C_33
REMARK                            x       y       z     vdW  Elec       q    Type
REMARK                         _______ _______ _______ _____ _____    ______ ____
ROOT
ATOM      1  C   UNL     1      -0.030   1.386  -0.021  0.00  0.00    +0.163 A 
ATOM      2  C   UNL     1      -0.020   0.004  -0.030  0.00  0.00    +0.059 A 
ATOM      3  C   UNL     1       1.197  -0.683  -0.018  0.00  0.00    -0.002 A 
ATOM      4  C   UNL     1       2.398   0.031   0.004  0.00  0.00    +0.013 A 
ATOM      5  C   UNL     1       2.380   1.409   0.013  0.00  0.00    +0.051 A 
ATOM      6  C   UNL     1       1.172   2.091   0.001  0.00  0.00    +0.173 A 
ENDROOT
BRANCH   1   8
ATOM      7  C   UNL     1      -2.405   1.271  -0.066  0.00  0.00    +0.277 C 
ATOM      8  O   UNL     1      -1.212   2.058  -0.038  0.00  0.00    -0.491 OA
ENDBRANCH   1   8
BRANCH   3   9
ATOM      9  C   UNL     1       1.213  -2.157  -0.028  0.00  0.00    +0.138 C 
ATOM     10  N   UNL     1       2.345  -2.793  -0.016  0.00  0.00    -0.188 NA
BRANCH  10  11
ATOM     11  N   UNL     1       2.361  -4.194  -0.026  0.00  0.00    -0.206 N 
ATOM     12  C   UNL     1       3.535  -4.855  -0.014  0.00  0.00    +0.249 C 
ATOM     13  O   UNL     1       4.579  -4.237   0.005  0.00  0.00    -0.272 OA
ATOM     14  H   UNL     1       1.526  -4.689  -0.041  0.00  0.00    +0.177 HD
BRANCH  12  15
ATOM     15  C   UNL     1       3.552  -6.362  -0.025  0.00  0.00    +0.202 C 
BRANCH  15  16
ATOM     16  N   UNL     1       4.939  -6.835  -0.008  0.00  0.00    -0.300 N 
ATOM     17  C   UNL     1       5.200  -8.157  -0.014  0.00  0.00    +0.280 C 
ATOM     18  O   UNL     1       4.284  -8.958  -0.032  0.00  0.00    -0.267 OA
ATOM     19  H   UNL     1       5.669  -6.196   0.007  0.00  0.00    +0.150 HD
BRANCH  17  20
ATOM     20  C   UNL     1       6.588  -8.630   0.002  0.00  0.00    +0.189 A 
ATOM     21  C   UNL     1       6.991  -9.935  -0.001  0.00  0.00    +0.054 A 
ATOM     22  C   UNL     1       8.394  -9.924   0.018  0.00  0.00    +0.042 A 
ATOM     23  C   UNL     1       8.782  -8.629   0.033  0.00  0.00    +0.196 A 
ATOM     24  O   UNL     1       7.691  -7.853   0.018  0.00  0.00    -0.458 OA
ENDBRANCH  17  20
ENDBRANCH  15  16
ENDBRANCH  12  15
ENDBRANCH  10  11
ENDBRANCH   3   9
BRANCH   6  25
ATOM     25  O   UNL     1       1.160   3.450   0.009  0.00  0.00    -0.419 OA
BRANCH  25  26
ATOM     26  C   UNL     1       0.954   4.053   1.196  0.00  0.00    +0.345 C 
ATOM     27  O   UNL     1       0.887   3.388   2.212  0.00  0.00    -0.245 OA
BRANCH  26  28
ATOM     28  C   UNL     1       0.809   5.519   1.264  0.00  0.00    +0.067 A 
ATOM     29  C   UNL     1       0.891   6.285   0.098  0.00  0.00    +0.064 A 
ATOM     30  C   UNL     1       0.750   7.658   0.164  0.00  0.00    +0.166 A 
ATOM     31  C   UNL     1       0.537   8.280   1.392  0.00  0.00    +0.204 A 
ATOM     32  C   UNL     1       0.460   7.519   2.556  0.00  0.00    +0.166 A 
ATOM     33  C   UNL     1       0.595   6.145   2.495  0.00  0.00    +0.064 A 
BRANCH  32  34
ATOM     34  O   UNL     1       0.252   8.130   3.753  0.00  0.00    -0.491 OA
ATOM     35  C   UNL     1       0.185   7.289   4.907  0.00  0.00    +0.277 C 
ENDBRANCH  32  34
BRANCH  31  36
ATOM     36  O   UNL     1       0.404   9.631   1.454  0.00  0.00    -0.488 OA
ATOM     37  C   UNL     1       1.598  10.392   1.643  0.00  0.00    +0.277 C 
ENDBRANCH  31  36
BRANCH  30  38
ATOM     38  O   UNL     1       0.823   8.404  -0.971  0.00  0.00    -0.491 OA
ATOM     39  C   UNL     1       1.043   7.701  -2.196  0.00  0.00    +0.277 C 
ENDBRANCH  30  38
ENDBRANCH  26  28
ENDBRANCH  25  26
ENDBRANCH   6  25
TORSDOF 12
