REMARK  Name = ZINC49117596
REMARK  6 active torsions:
REMARK  status: ('A' for Active; 'I' for Inactive)
REMARK    1  A    between atoms: C_1  and  C_2
REMARK    2  A    between atoms: C_2  and  C_3
REMARK    3  A    between atoms: C_9  and  N_11
REMARK    4  A    between atoms: N_11  and  S_12
REMARK    5  A    between atoms: S_12  and  C_15
REMARK    6  A    between atoms: C_19  and  N_21
REMARK                            x       y       z     vdW  Elec       q    Type
REMARK                         _______ _______ _______ _____ _____    ______ ____
ROOT
ATOM      1  S   UNL     1       0.232  -3.988  -0.813  0.00  0.00    +0.059 S 
ATOM      2  O   UNL     1       0.772  -4.301  -2.089  0.00  0.00    -0.153 OA
ATOM      3  O   UNL     1       1.050  -3.761   0.326  0.00  0.00    -0.153 OA
ENDROOT
BRANCH   1   4
ATOM      4  C   UNL     1      -0.863  -5.303  -0.394  0.00  0.00    +0.107 A 
ATOM      5  C   UNL     1      -1.163  -5.556   0.933  0.00  0.00    +0.030 A 
ATOM      6  C   UNL     1      -2.021  -6.587   1.267  0.00  0.00    +0.024 A 
ATOM      7  C   UNL     1      -2.581  -7.370   0.275  0.00  0.00    +0.062 A 
ATOM      8  C   UNL     1      -2.282  -7.118  -1.059  0.00  0.00    +0.045 A 
ATOM      9  C   UNL     1      -1.424  -6.078  -1.390  0.00  0.00    +0.052 A 
ATOM     10 CL   UNL     1      -3.657  -8.666   0.695  0.00  0.00    -0.082 Cl
BRANCH   8  11
ATOM     11  N   UNL     1      -2.847  -7.908  -2.064  0.00  0.00    -0.357 N 
ATOM     12  H   UNL     1      -3.449  -8.632  -1.832  0.00  0.00    +0.142 HD
ATOM     13  H   UNL     1      -2.637  -7.731  -2.995  0.00  0.00    +0.142 HD
ENDBRANCH   8  11
ENDBRANCH   1   4
BRANCH   1  14
ATOM     14  N   UNL     1      -0.692  -2.627  -1.011  0.00  0.00    -0.187 NA
ATOM     15  H   UNL     1      -0.755  -2.207  -1.883  0.00  0.00    +0.148 HD
BRANCH  14  21
ATOM     16  C   UNL     1      -1.433  -0.534   0.013  0.00  0.00    +0.007 C 
ATOM     17  C   UNL     1      -2.135  -0.131  -1.286  0.00  0.00    +0.005 C 
ATOM     18  C   UNL     1      -3.571  -0.661  -1.275  0.00  0.00    +0.000 C 
ATOM     19  C   UNL     1      -3.551  -2.186  -1.157  0.00  0.00    +0.002 C 
ATOM     20  C   UNL     1      -2.849  -2.589   0.141  0.00  0.00    +0.020 C 
ATOM     21  C   UNL     1      -1.413  -2.059   0.130  0.00  0.00    +0.080 C 
BRANCH  16  23
ATOM     22  C   UNL     1      -0.019   1.526   0.010  0.00  0.00    +0.004 C 
ATOM     23  C   UNL     1       0.002  -0.004   0.002  0.00  0.00    +0.002 C 
ENDBRANCH  16  23
ENDBRANCH  14  21
ENDBRANCH   1  14
TORSDOF 5
