REMARK  Name = ZINC58246844
REMARK  7 active torsions:
REMARK  status: ('A' for Active; 'I' for Inactive)
REMARK    1  A    between atoms: C_1  and  C_2
REMARK    2  A    between atoms: C_2  and  N_3
REMARK    3  A    between atoms: C_9  and  C_16
REMARK    4  A    between atoms: N_18  and  C_19
REMARK    5  A    between atoms: N_18  and  C_21
REMARK    6  A    between atoms: C_19  and  C_20
REMARK    7  A    between atoms: C_21  and  C_22
REMARK                            x       y       z     vdW  Elec       q    Type
REMARK                         _______ _______ _______ _____ _____    ______ ____
ROOT
ATOM      1  N   UNL     1      -0.889  -2.773   0.378  0.00  0.00    -0.261 N 
ATOM      2  C   UNL     1      -1.668  -2.004   1.169  0.00  0.00    +0.264 A 
ATOM      3  O   UNL     1      -1.180  -1.147   1.881  0.00  0.00    -0.267 OA
ATOM      4  C   UNL     1      -3.127  -2.230   1.147  0.00  0.00    +0.063 A 
ATOM      5  C   UNL     1      -3.993  -1.476   1.935  0.00  0.00    +0.016 A 
ATOM      6  C   UNL     1      -5.348  -1.719   1.885  0.00  0.00    +0.014 A 
ATOM      7  C   UNL     1      -5.854  -2.718   1.048  0.00  0.00    +0.039 A 
ATOM      8  C   UNL     1      -4.994  -3.476   0.258  0.00  0.00    +0.039 A 
ATOM      9  C   UNL     1      -3.630  -3.235   0.304  0.00  0.00    +0.056 A 
ATOM     10  N   UNL     1      -2.738  -3.967  -0.468  0.00  0.00    -0.307 N 
ATOM     11  H   UNL     1      -3.071  -4.664  -1.055  0.00  0.00    +0.170 HD
ATOM     12  C   UNL     1      -1.419  -3.717  -0.414  0.00  0.00    +0.330 A 
ATOM     13  O   UNL     1      -0.673  -4.378  -1.111  0.00  0.00    -0.246 OA
ENDROOT
BRANCH   7  14
ATOM     14  C   UNL     1      -7.312  -2.972   1.002  0.00  0.00    +0.247 C 
ATOM     15  O   UNL     1      -7.878  -3.074  -0.069  0.00  0.00    -0.270 OA
ATOM     16  N   UNL     1      -8.012  -3.089   2.148  0.00  0.00    -0.297 N 
BRANCH  16  17
ATOM     17  C   UNL     1      -9.431  -3.451   2.106  0.00  0.00    +0.105 C 
ATOM     18  C   UNL     1      -9.579  -4.960   2.308  0.00  0.00    +0.024 C 
ENDBRANCH  16  17
BRANCH  16  19
ATOM     19  C   UNL     1      -7.354  -2.855   3.436  0.00  0.00    +0.114 C 
BRANCH  19  20
ATOM     20  C   UNL     1      -7.654  -1.431   3.910  0.00  0.00    +0.034 C 
ATOM     21  C   UNL     1      -6.830  -1.098   5.178  0.00  0.00    +0.035 C 
ATOM     22  C   UNL     1      -7.858  -0.317   6.036  0.00  0.00    +0.160 C 
ATOM     23  O   UNL     1      -9.104  -0.997   5.772  0.00  0.00    -0.379 OA
ATOM     24  C   UNL     1      -9.121  -1.313   4.367  0.00  0.00    +0.165 C 
ENDBRANCH  19  20
ENDBRANCH  16  19
ENDBRANCH   7  14
BRANCH   1  26
ATOM     25  C   UNL     1       0.932  -1.530  -0.680  0.00  0.00    +0.027 C 
ATOM     26  C   UNL     1       0.562  -2.568   0.381  0.00  0.00    +0.126 C 
ENDBRANCH   1  26
TORSDOF 5
