REMARK  Name = ZINC44713650
REMARK  10 active torsions:
REMARK  status: ('A' for Active; 'I' for Inactive)
REMARK    1  A    between atoms: C_1  and  C_2
REMARK    2  A    between atoms: C_3  and  C_9
REMARK    3  A    between atoms: C_4  and  C_8
REMARK    4  A    between atoms: C_9  and  C_11
REMARK    5  A    between atoms: C_9  and  N_12
REMARK    6  A    between atoms: C_13  and  C_15
REMARK    7  A    between atoms: C_26  and  C_28
REMARK    8  A    between atoms: C_33  and  O_34
REMARK    9  A    between atoms: O_34  and  C_35
REMARK   10  A    between atoms: C_35  and  C_37
REMARK                            x       y       z     vdW  Elec       q    Type
REMARK                         _______ _______ _______ _____ _____    ______ ____
ROOT
ATOM      1  C   UNL     1       2.535  -1.598  -5.621  0.00  0.00    +0.100 C 
ATOM      2  C   UNL     1       3.741  -1.682  -4.660  0.00  0.00    +0.121 C 
ATOM      3  N   UNL     1       4.923  -1.438  -5.520  0.00  0.00    -0.296 N 
ATOM      4  C   UNL     1       4.485  -0.375  -6.456  0.00  0.00    +0.115 C 
ATOM      5  C   UNL     1       3.027  -0.739  -6.798  0.00  0.00    -0.004 C 
ATOM      6  C   UNL     1       2.183   0.526  -6.918  0.00  0.00    -0.010 C 
ATOM      7  C   UNL     1       2.653   1.335  -8.131  0.00  0.00    -0.082 C 
ATOM      8  N   UNL     1       2.525   0.520  -9.345  0.00  0.00    +0.379 N 
ATOM      9  C   UNL     1       3.411  -0.647  -9.260  0.00  0.00    -0.082 C 
ATOM     10  C   UNL     1       2.973  -1.540  -8.095  0.00  0.00    -0.010 C 
ATOM     11  C   UNL     1       6.125  -2.046  -5.464  0.00  0.00    +0.250 C 
ATOM     12  O   UNL     1       7.031  -1.669  -6.181  0.00  0.00    -0.270 OA
ATOM     13  H   UNL     1       1.569   0.209  -9.440  0.00  0.00    -0.086 HD
ATOM     14  H   UNL     1       2.777   1.074 -10.149  0.00  0.00    -0.086 HD
ENDROOT
BRANCH  11  15
ATOM     15  C   UNL     1       6.340  -3.170  -4.532  0.00  0.00    +0.079 A 
ATOM     16  C   UNL     1       5.713  -3.178  -3.284  0.00  0.00    +0.017 A 
ATOM     17  C   UNL     1       5.919  -4.231  -2.418  0.00  0.00    +0.001 A 
ATOM     18  C   UNL     1       6.745  -5.282  -2.781  0.00  0.00    +0.004 A 
ATOM     19  C   UNL     1       7.370  -5.287  -4.011  0.00  0.00    +0.047 A 
ATOM     20  C   UNL     1       7.171  -4.238  -4.897  0.00  0.00    +0.144 A 
BRANCH  20  21
ATOM     21  O   UNL     1       7.781  -4.244  -6.109  0.00  0.00    -0.425 OA
BRANCH  21  22
ATOM     22  C   UNL     1       7.110  -4.762  -7.150  0.00  0.00    +0.309 C 
ATOM     23  O   UNL     1       5.964  -5.120  -7.013  0.00  0.00    -0.251 OA
ATOM     24  C   UNL     1       7.786  -4.896  -8.491  0.00  0.00    +0.136 C 
ENDBRANCH  21  22
ENDBRANCH  20  21
ENDBRANCH  11  15
BRANCH   1  26
ATOM     25  N   UNL     1       0.111  -1.172  -5.370  0.00  0.00    -0.308 N 
ATOM     26  C   UNL     1       1.366  -0.934  -4.940  0.00  0.00    +0.219 C 
ATOM     27  O   UNL     1       1.554  -0.186  -4.004  0.00  0.00    -0.275 OA
ATOM     28  H   UNL     1      -0.040  -1.770  -6.118  0.00  0.00    +0.149 HD
BRANCH  25  29
ATOM     29  C   UNL     1      -1.025  -0.527  -4.708  0.00  0.00    +0.104 C 
ATOM     30  C   UNL     1      -1.241   0.865  -5.306  0.00  0.00    +0.033 C 
BRANCH  29  33
ATOM     31  C   UNL     1      -3.130  -1.265  -2.515  0.00  0.00    +0.065 C 
ATOM     32  C   UNL     1      -3.175  -1.678  -3.963  0.00  0.00    +0.038 A 
ATOM     33  C   UNL     1      -2.265  -1.359  -4.912  0.00  0.00    +0.015 A 
ATOM     34  C   UNL     1      -2.678  -1.938  -6.117  0.00  0.00    +0.065 A 
ATOM     35  N   UNL     1      -3.796  -2.581  -5.899  0.00  0.00    -0.179 NA
ATOM     36  N   UNL     1      -4.128  -2.436  -4.545  0.00  0.00    -0.281 N 
ATOM     37  H   UNL     1      -4.906  -2.812  -4.105  0.00  0.00    +0.189 HD
ATOM     38  C   UNL     1      -1.959  -1.838  -7.438  0.00  0.00    +0.068 C 
ENDBRANCH  29  33
ENDBRANCH  25  29
ENDBRANCH   1  26
TORSDOF 6
