REMARK  Name = ZINC55064020
REMARK  9 active torsions:
REMARK  status: ('A' for Active; 'I' for Inactive)
REMARK    1  A    between atoms: C_1  and  C_2
REMARK    2  A    between atoms: C_2  and  C_3
REMARK    3  A    between atoms: C_3  and  C_5
REMARK    4  A    between atoms: C_3  and  N_6
REMARK    5  A    between atoms: N_9  and  C_12
REMARK    6  A    between atoms: C_12  and  C_14
REMARK    7  A    between atoms: C_12  and  C_21
REMARK    8  A    between atoms: C_21  and  C_23
REMARK    9  A    between atoms: C_21  and  N_24
REMARK                            x       y       z     vdW  Elec       q    Type
REMARK                         _______ _______ _______ _____ _____    ______ ____
ROOT
ATOM      1  C   UNL     1      -4.790   2.113  -3.493  0.00  0.00    +0.075 C 
ENDROOT
BRANCH   1   5
ATOM      2  N   UNL     1      -1.853   0.241  -1.096  0.00  0.00    +0.383 N 
ATOM      3  C   UNL     1      -3.252  -0.168  -0.919  0.00  0.00    -0.063 C 
ATOM      4  C   UNL     1      -4.061   0.229  -2.156  0.00  0.00    +0.066 C 
ATOM      5  N   UNL     1      -3.978   1.684  -2.345  0.00  0.00    -0.300 NA
ATOM      6  C   UNL     1      -2.581   2.112  -2.499  0.00  0.00    +0.066 C 
ATOM      7  C   UNL     1      -1.784   1.699  -1.260  0.00  0.00    -0.063 C 
ATOM      8  H   UNL     1      -1.473  -0.207  -1.917  0.00  0.00    -0.081 HD
BRANCH   2   9
ATOM      9  C   UNL     1      -1.073  -0.157   0.084  0.00  0.00    -0.072 C 
ATOM     10  C   UNL     1      -1.736   0.403   1.344  0.00  0.00    -0.013 C 
BRANCH   9  12
ATOM     11  C   UNL     1      -0.249  -2.236  -1.031  0.00  0.00    +0.002 C 
ATOM     12  C   UNL     1      -1.021  -1.683   0.170  0.00  0.00    -0.019 C 
ENDBRANCH   9  12
ENDBRANCH   2   9
ENDBRANCH   1   5
BRANCH   1  13
ATOM     13  C   UNL     1      -4.147   1.634  -4.769  0.00  0.00    +0.003 A 
ATOM     14  C   UNL     1      -3.309   2.473  -5.478  0.00  0.00    +0.008 A 
ATOM     15  C   UNL     1      -2.719   2.034  -6.649  0.00  0.00    +0.000 A 
ATOM     16  C   UNL     1      -2.968   0.756  -7.112  0.00  0.00    +0.003 A 
ATOM     17  C   UNL     1      -3.805  -0.085  -6.404  0.00  0.00    +0.038 A 
ATOM     18  C   UNL     1      -4.392   0.351  -5.229  0.00  0.00    +0.128 A 
ATOM     19  F   UNL     1      -5.208  -0.472  -4.534  0.00  0.00    -0.205 F 
ENDBRANCH   1  13
BRANCH   1  20
ATOM     20  C   UNL     1      -4.882   3.640  -3.510  0.00  0.00    -0.056 C 
ATOM     21  C   UNL     1      -5.727   4.086  -4.705  0.00  0.00    -0.012 C 
BRANCH  20  22
ATOM     22  N   UNL     1      -5.508   4.107  -2.265  0.00  0.00    +0.381 N 
ATOM     23  H   UNL     1      -4.951   3.812  -1.478  0.00  0.00    -0.090 HD
ATOM     24  H   UNL     1      -5.569   5.114  -2.277  0.00  0.00    -0.090 HD
ATOM     25  H   UNL     1      -6.435   3.714  -2.188  0.00  0.00    -0.090 HD
ENDBRANCH  20  22
ENDBRANCH   1  20
TORSDOF 6
