REMARK  Name = ZINC32069843
REMARK  7 active torsions:
REMARK  status: ('A' for Active; 'I' for Inactive)
REMARK    1  A    between atoms: C_1  and  C_2
REMARK    2  A    between atoms: C_6  and  N_8
REMARK    3  A    between atoms: N_11  and  C_14
REMARK    4  A    between atoms: C_14  and  C_16
REMARK    5  A    between atoms: C_14  and  C_18
REMARK    6  A    between atoms: C_16  and  N_17
REMARK    7  A    between atoms: C_23  and  O_24
REMARK                            x       y       z     vdW  Elec       q    Type
REMARK                         _______ _______ _______ _____ _____    ______ ____
ROOT
ATOM      1  C   UNL     1       3.501   2.017   1.237  0.00  0.00    +0.073 C 
ENDROOT
BRANCH   1   5
ATOM      2  N   UNL     1      -0.165   0.454  -0.167  0.00  0.00    -0.327 N 
ATOM      3  C   UNL     1      -0.071   1.905   0.047  0.00  0.00    +0.120 C 
ATOM      4  C   UNL     1       1.401   2.321   0.068  0.00  0.00    +0.104 C 
ATOM      5  N   UNL     1       2.099   1.588   1.134  0.00  0.00    -0.294 NA
ATOM      6  C   UNL     1       2.006   0.138   0.920  0.00  0.00    +0.104 C 
ATOM      7  C   UNL     1       0.533  -0.279   0.899  0.00  0.00    +0.120 C 
BRANCH   2  13
ATOM      8  C   UNL     1      -3.454  -3.146  -0.785  0.00  0.00    +0.044 C 
ATOM      9  C   UNL     1      -3.121  -1.692  -0.564  0.00  0.00    -0.049 A 
ATOM     10  C   UNL     1      -4.137  -0.760  -0.456  0.00  0.00    +0.003 A 
ATOM     11  C   UNL     1      -3.837   0.574  -0.253  0.00  0.00    +0.002 A 
ATOM     12  C   UNL     1      -2.520   0.980  -0.152  0.00  0.00    +0.023 A 
ATOM     13  C   UNL     1      -1.497   0.047  -0.265  0.00  0.00    +0.030 A 
ATOM     14  C   UNL     1      -1.803  -1.293  -0.468  0.00  0.00    +0.026 A 
ENDBRANCH   2  13
ENDBRANCH   1   5
BRANCH   1  15
ATOM     15  C   UNL     1       3.578   3.296   2.029  0.00  0.00    +0.009 A 
ATOM     16  C   UNL     1       2.440   4.051   2.237  0.00  0.00    +0.009 A 
ATOM     17  C   UNL     1       2.511   5.225   2.963  0.00  0.00    +0.001 A 
ATOM     18  C   UNL     1       3.720   5.646   3.485  0.00  0.00    +0.004 A 
ATOM     19  C   UNL     1       4.861   4.895   3.280  0.00  0.00    +0.046 A 
ATOM     20  C   UNL     1       4.792   3.714   2.555  0.00  0.00    +0.121 A 
BRANCH  20  21
ATOM     21  O   UNL     1       5.912   2.970   2.357  0.00  0.00    -0.506 OA
ATOM     22  H   UNL     1       6.874   3.303   2.775  0.00  0.00    +0.292 HD
ENDBRANCH  20  21
ENDBRANCH   1  15
BRANCH   1  23
ATOM     23  C   UNL     1       4.066   2.250  -0.166  0.00  0.00    -0.062 C 
BRANCH  23  24
ATOM     24  N   UNL     1       3.923   1.024  -0.962  0.00  0.00    +0.379 N 
ATOM     25  H   UNL     1       4.330   1.191  -1.970  0.00  0.00    -0.090 HD
ATOM     26  H   UNL     1       2.859   0.756  -1.035  0.00  0.00    -0.090 HD
ATOM     27  H   UNL     1       4.474   0.205  -0.476  0.00  0.00    -0.090 HD
ENDBRANCH  23  24
ENDBRANCH   1  23
TORSDOF 6
