REMARK  Name = ZINC67605451
REMARK  4 active torsions:
REMARK  status: ('A' for Active; 'I' for Inactive)
REMARK    1  A    between atoms: C_1  and  C_2
REMARK    2  A    between atoms: C_5  and  C_10
REMARK    3  A    between atoms: N_15  and  C_24
REMARK    4  A    between atoms: N_20  and  C_23
REMARK                            x       y       z     vdW  Elec       q    Type
REMARK                         _______ _______ _______ _____ _____    ______ ____
ROOT
ATOM      1  C   UNL     1       0.058  -4.226   0.011  0.00  0.00    +0.252 C 
ATOM      2  O   UNL     1      -0.034  -4.846  -1.032  0.00  0.00    -0.270 OA
ATOM      3  N   UNL     1       0.174  -4.887   1.181  0.00  0.00    -0.294 N 
ATOM      4  C   UNL     1       0.179  -4.158   2.457  0.00  0.00    +0.123 C 
ATOM      5  C   UNL     1      -0.829  -4.809   3.408  0.00  0.00    +0.103 C 
ATOM      6  N   UNL     1      -0.584  -6.253   3.495  0.00  0.00    -0.297 NA
ATOM      7  C   UNL     1      -0.711  -6.919   2.202  0.00  0.00    +0.034 C 
ATOM      8  C   UNL     1       0.305  -6.351   1.207  0.00  0.00    +0.130 C 
ATOM      9  C   UNL     1      -2.125  -6.689   1.647  0.00  0.00    +0.005 C 
ATOM     10  C   UNL     1      -3.143  -7.317   2.600  0.00  0.00    -0.077 C 
ATOM     11  N   UNL     1      -2.902  -8.760   2.704  0.00  0.00    +0.378 N 
ATOM     12  C   UNL     1      -1.570  -9.008   3.268  0.00  0.00    -0.077 C 
ATOM     13  C   UNL     1      -0.503  -8.430   2.336  0.00  0.00    +0.005 C 
ATOM     14  C   UNL     1      -3.920  -9.365   3.573  0.00  0.00    -0.096 C 
ATOM     15  C   UNL     1       0.672  -6.542   4.188  0.00  0.00    +0.105 C 
ATOM     16  H   UNL     1      -2.958  -9.176   1.785  0.00  0.00    -0.082 HD
ENDROOT
BRANCH   1  21
ATOM     17  C   UNL     1      -0.057   1.502  -0.059  0.00  0.00    +0.063 C 
ATOM     18  C   UNL     1      -0.019  -0.005  -0.039  0.00  0.00    +0.016 A 
ATOM     19  C   UNL     1       1.164  -0.638   0.165  0.00  0.00    +0.022 A 
ATOM     20  C   UNL     1       1.218  -2.032   0.186  0.00  0.00    +0.020 A 
ATOM     21  C   UNL     1       0.043  -2.755  -0.004  0.00  0.00    +0.101 A 
ATOM     22  C   UNL     1      -1.170  -2.048  -0.214  0.00  0.00    +0.261 A 
ATOM     23  O   UNL     1      -2.212  -2.657  -0.383  0.00  0.00    -0.267 OA
ATOM     24  N   UNL     1      -1.166  -0.701  -0.220  0.00  0.00    -0.326 N 
ATOM     25  H   UNL     1      -1.998  -0.223  -0.360  0.00  0.00    +0.169 HD
ENDBRANCH   1  21
TORSDOF 1
