REMARK  Name = ZINC39660224
REMARK  8 active torsions:
REMARK  status: ('A' for Active; 'I' for Inactive)
REMARK    1  A    between atoms: C_1  and  C_2
REMARK    2  A    between atoms: C_2  and  C_3
REMARK    3  A    between atoms: C_3  and  C_4
REMARK    4  A    between atoms: C_4  and  C_5
REMARK    5  A    between atoms: C_5  and  C_6
REMARK    6  A    between atoms: C_6  and  N_7
REMARK    7  A    between atoms: C_8  and  C_10
REMARK    8  A    between atoms: C_21  and  C_23
REMARK                            x       y       z     vdW  Elec       q    Type
REMARK                         _______ _______ _______ _____ _____    ______ ____
ROOT
ATOM      1  C   UNL     1      -6.535  -6.457   0.047  0.00  0.00    +0.100 C 
ATOM      2  C   UNL     1      -6.986  -5.857  -1.304  0.00  0.00    +0.121 C 
ATOM      3  N   UNL     1      -6.787  -6.951  -2.284  0.00  0.00    -0.296 N 
ATOM      4  C   UNL     1      -7.210  -8.175  -1.562  0.00  0.00    +0.115 C 
ATOM      5  C   UNL     1      -6.687  -7.978  -0.126  0.00  0.00    -0.004 C 
ATOM      6  C   UNL     1      -5.335  -8.666   0.041  0.00  0.00    -0.010 C 
ATOM      7  C   UNL     1      -5.521 -10.181  -0.079  0.00  0.00    -0.082 C 
ATOM      8  N   UNL     1      -6.459 -10.644   0.951  0.00  0.00    +0.379 N 
ATOM      9  C   UNL     1      -7.782 -10.048   0.729  0.00  0.00    -0.082 C 
ATOM     10  C   UNL     1      -7.691  -8.527   0.882  0.00  0.00    -0.010 C 
ATOM     11  C   UNL     1      -6.326  -6.854  -3.547  0.00  0.00    +0.247 C 
ATOM     12  O   UNL     1      -5.898  -5.793  -3.958  0.00  0.00    -0.270 OA
ATOM     13  H   UNL     1      -6.533 -11.649   0.910  0.00  0.00    -0.086 HD
ATOM     14  H   UNL     1      -6.118 -10.372   1.861  0.00  0.00    -0.086 HD
ENDROOT
BRANCH  11  15
ATOM     15  C   UNL     1      -6.340  -8.038  -4.431  0.00  0.00    +0.038 A 
ATOM     16  C   UNL     1      -7.193  -9.108  -4.156  0.00  0.00    +0.014 A 
ATOM     17  C   UNL     1      -7.202 -10.210  -4.984  0.00  0.00    +0.022 A 
ATOM     18  C   UNL     1      -6.367 -10.258  -6.088  0.00  0.00    +0.059 A 
ATOM     19  C   UNL     1      -5.517  -9.199  -6.367  0.00  0.00    +0.060 A 
ATOM     20  C   UNL     1      -5.504  -8.088  -5.548  0.00  0.00    +0.034 A 
ATOM     21 CL   UNL     1      -4.474  -9.267  -7.753  0.00  0.00    -0.082 Cl
ATOM     22 CL   UNL     1      -6.383 -11.649  -7.126  0.00  0.00    -0.082 Cl
ENDBRANCH  11  15
BRANCH   1  24
ATOM     23  N   UNL     1      -4.638  -6.090   1.592  0.00  0.00    -0.315 N 
ATOM     24  C   UNL     1      -5.097  -6.102   0.325  0.00  0.00    +0.218 C 
ATOM     25  O   UNL     1      -4.353  -5.826  -0.592  0.00  0.00    -0.275 OA
ATOM     26  H   UNL     1      -5.234  -6.310   2.325  0.00  0.00    +0.149 HD
BRANCH  23  27
ATOM     27  C   UNL     1      -3.241  -5.744   1.862  0.00  0.00    +0.104 C 
BRANCH  27  28
ATOM     28  C   UNL     1      -2.982  -5.806   3.369  0.00  0.00    +0.019 C 
BRANCH  28  29
ATOM     29  C   UNL     1      -1.522  -5.445   3.651  0.00  0.00    +0.002 C 
BRANCH  29  30
ATOM     30  C   UNL     1      -1.263  -5.506   5.157  0.00  0.00    -0.000 C 
BRANCH  30  32
ATOM     31  C   UNL     1       0.455  -5.207   6.946  0.00  0.00    +0.004 C 
ATOM     32  C   UNL     1       0.196  -5.145   5.439  0.00  0.00    -0.003 C 
ENDBRANCH  30  32
ENDBRANCH  29  30
ENDBRANCH  28  29
ENDBRANCH  27  28
ENDBRANCH  23  27
ENDBRANCH   1  24
TORSDOF 7
