REMARK  Name = ZINC49159425
REMARK  8 active torsions:
REMARK  status: ('A' for Active; 'I' for Inactive)
REMARK    1  A    between atoms: C_1  and  C_2
REMARK    2  A    between atoms: C_5  and  C_7
REMARK    3  A    between atoms: C_7  and  C_9
REMARK    4  A    between atoms: C_7  and  N_10
REMARK    5  A    between atoms: N_10  and  C_11
REMARK    6  A    between atoms: C_11  and  C_12
REMARK    7  A    between atoms: C_17  and  O_18
REMARK    8  A    between atoms: O_18  and  C_19
REMARK                            x       y       z     vdW  Elec       q    Type
REMARK                         _______ _______ _______ _____ _____    ______ ____
ROOT
ATOM      1  N   UNL     1       2.213  -4.147   0.857  0.00  0.00    +0.386 N 
ATOM      2  H   UNL     1       2.957  -3.576   0.487  0.00  0.00    -0.085 HD
ATOM      3  H   UNL     1       1.963  -3.819   1.778  0.00  0.00    -0.085 HD
ENDROOT
BRANCH   1   4
ATOM      4  C   UNL     1       1.043  -4.062  -0.027  0.00  0.00    -0.037 C 
ATOM      5  C   UNL     1       1.452  -4.441  -1.452  0.00  0.00    -0.008 C 
BRANCH   4  10
ATOM      6  C   UNL     1      -0.018   1.503   0.010  0.00  0.00    +0.051 C 
ATOM      7  C   UNL     1       0.002  -0.004   0.002  0.00  0.00    -0.013 A 
ATOM      8  C   UNL     1      -1.039  -0.872   0.002  0.00  0.00    +0.011 A 
ATOM      9  C   UNL     1      -0.780  -2.230  -0.007  0.00  0.00    +0.010 A 
ATOM     10  C   UNL     1       0.507  -2.653  -0.016  0.00  0.00    -0.024 A 
ATOM     11  S   UNL     1       1.404  -1.109  -0.018  0.00  0.00    -0.100 S 
ENDBRANCH   4  10
ENDBRANCH   1   4
BRANCH   1  12
ATOM     12  C   UNL     1       2.663  -5.544   0.941  0.00  0.00    -0.042 C 
BRANCH  12  13
ATOM     13  C   UNL     1       3.863  -5.632   1.848  0.00  0.00    -0.022 A 
ATOM     14  C   UNL     1       5.133  -5.697   1.309  0.00  0.00    +0.020 A 
ATOM     15  C   UNL     1       6.235  -5.778   2.141  0.00  0.00    +0.018 A 
ATOM     16  C   UNL     1       6.067  -5.793   3.515  0.00  0.00    +0.019 A 
ATOM     17  C   UNL     1       4.799  -5.727   4.057  0.00  0.00    +0.047 A 
ATOM     18  C   UNL     1       3.693  -5.641   3.224  0.00  0.00    +0.121 A 
ATOM     19 BR   UNL     1       7.973  -5.869   1.401  0.00  0.00    -0.050 Br
BRANCH  18  20
ATOM     20  O   UNL     1       2.444  -5.571   3.757  0.00  0.00    -0.495 OA
ATOM     21  C   UNL     1       2.345  -5.585   5.182  0.00  0.00    +0.277 C 
ENDBRANCH  18  20
ENDBRANCH  12  13
ENDBRANCH   1  12
TORSDOF 5
