REMARK  Name = ZINC31973886
REMARK  6 active torsions:
REMARK  status: ('A' for Active; 'I' for Inactive)
REMARK    1  A    between atoms: C_1  and  C_2
REMARK    2  A    between atoms: C_2  and  C_3
REMARK    3  A    between atoms: C_4  and  C_23
REMARK    4  A    between atoms: C_8  and  C_21
REMARK    5  A    between atoms: C_9  and  C_11
REMARK    6  A    between atoms: C_21  and  N_22
REMARK                            x       y       z     vdW  Elec       q    Type
REMARK                         _______ _______ _______ _____ _____    ______ ____
ROOT
ATOM      1  C   UNL     1      -6.902  -1.920   1.092  0.00  0.00    +0.035 A 
ATOM      2  C   UNL     1      -7.484  -3.045   0.679  0.00  0.00    +0.010 A 
ATOM      3  S   UNL     1      -6.307  -3.653  -0.518  0.00  0.00    -0.054 S 
ATOM      4  C   UNL     1      -5.118  -2.339  -0.368  0.00  0.00    +0.178 A 
ATOM      5  N   UNL     1      -5.686  -1.524   0.577  0.00  0.00    -0.296 N 
ATOM      6  C   UNL     1      -4.787  -0.475   0.736  0.00  0.00    +0.034 A 
ATOM      7  C   UNL     1      -3.748  -0.696  -0.106  0.00  0.00    +0.092 A 
ATOM      8  N   UNL     1      -3.981  -1.849  -0.766  0.00  0.00    -0.221 NA
ATOM      9  C   UNL     1      -8.796  -3.648   1.111  0.00  0.00    +0.053 C 
ENDROOT
BRANCH   7  10
ATOM     10  C   UNL     1      -2.558   0.176  -0.268  0.00  0.00    +0.006 A 
ATOM     11  C   UNL     1      -2.050   0.435  -1.539  0.00  0.00    +0.014 A 
ATOM     12  C   UNL     1      -0.942   1.242  -1.688  0.00  0.00    +0.050 A 
ATOM     13  C   UNL     1      -0.333   1.805  -0.575  0.00  0.00    +0.162 A 
ATOM     14  C   UNL     1      -0.837   1.552   0.697  0.00  0.00    +0.163 A 
ATOM     15  C   UNL     1      -1.947   0.739   0.851  0.00  0.00    +0.059 A 
ATOM     16  O   UNL     1      -0.253   2.097   1.799  0.00  0.00    -0.485 OA
ATOM     17  C   UNL     1       1.078   2.601   1.639  0.00  0.00    +0.270 C 
ATOM     18  C   UNL     1       1.122   3.441   0.356  0.00  0.00    +0.270 C 
ATOM     19  O   UNL     1       0.761   2.599  -0.744  0.00  0.00    -0.485 OA
ENDBRANCH   7  10
BRANCH   1  21
ATOM     20  C   UNL     1      -8.489  -0.048   1.448  0.00  0.00    +0.010 C 
ATOM     21  C   UNL     1      -7.580  -1.070   2.135  0.00  0.00    +0.051 C 
ENDBRANCH   1  21
BRANCH   6  22
ATOM     22  C   UNL     1      -4.941   0.696   1.672  0.00  0.00    -0.029 C 
BRANCH  22  23
ATOM     23  N   UNL     1      -4.417   0.336   2.996  0.00  0.00    +0.382 N 
ATOM     24  H   UNL     1      -4.530   1.191   3.679  0.00  0.00    -0.090 HD
ATOM     25  H   UNL     1      -3.353   0.074   2.910  0.00  0.00    -0.090 HD
ATOM     26  H   UNL     1      -4.977  -0.525   3.391  0.00  0.00    -0.090 HD
ENDBRANCH  22  23
ENDBRANCH   6  22
TORSDOF 4
