REMARK  Name = ZINC42169983
REMARK  6 active torsions:
REMARK  status: ('A' for Active; 'I' for Inactive)
REMARK    1  A    between atoms: C_6  and  C_7
REMARK    2  A    between atoms: C_7  and  N_8
REMARK    3  A    between atoms: N_8  and  C_9
REMARK    4  A    between atoms: C_9  and  C_10
REMARK    5  A    between atoms: C_13  and  C_15
REMARK    6  A    between atoms: C_15  and  C_16
REMARK                            x       y       z     vdW  Elec       q    Type
REMARK                         _______ _______ _______ _____ _____    ______ ____
ROOT
ATOM      1  N   UNL     1      -1.726  -1.017  -1.368  0.00  0.00    -0.288 N 
ATOM      2  C   UNL     1      -2.522  -0.126  -1.991  0.00  0.00    +0.215 C 
ATOM      3  O   UNL     1      -2.880   0.877  -1.411  0.00  0.00    -0.276 OA
ENDROOT
BRANCH   1   4
ATOM      4  C   UNL     1      -1.293  -0.775   0.010  0.00  0.00    +0.143 C 
BRANCH   4  10
ATOM      5  C   UNL     1      -0.017   1.378   0.010  0.00  0.00    +0.006 A 
ATOM      6  C   UNL     1       1.171   2.086   0.002  0.00  0.00    +0.015 A 
ATOM      7  C   UNL     1       2.378   1.411  -0.013  0.00  0.00    +0.018 A 
ATOM      8  C   UNL     1       2.396   0.027  -0.021  0.00  0.00    +0.015 A 
ATOM      9  C   UNL     1       1.208  -0.679  -0.013  0.00  0.00    +0.006 A 
ATOM     10  C   UNL     1       0.002  -0.004   0.002  0.00  0.00    -0.030 A 
ATOM     11 BR   UNL     1       4.003   2.378  -0.024  0.00  0.00    -0.050 Br
ENDBRANCH   4  10
ENDBRANCH   1   4
BRANCH   1  12
ATOM     12  C   UNL     1      -1.293  -2.229  -2.070  0.00  0.00    +0.203 C 
BRANCH  12  13
ATOM     13  C   UNL     1      -2.291  -3.332  -1.829  0.00  0.00    +0.228 C 
ATOM     14  O   UNL     1      -3.268  -3.127  -1.140  0.00  0.00    -0.274 OA
ATOM     15  N   UNL     1      -2.099  -4.547  -2.380  0.00  0.00    -0.328 N 
ATOM     16  H   UNL     1      -1.317  -4.711  -2.931  0.00  0.00    +0.145 HD
ATOM     17  H   UNL     1      -2.741  -5.257  -2.225  0.00  0.00    +0.145 HD
ENDBRANCH  12  13
ENDBRANCH   1  12
BRANCH   2  18
ATOM     18  C   UNL     1      -2.967  -0.375  -3.409  0.00  0.00    +0.080 C 
BRANCH  18  19
ATOM     19  C   UNL     1      -3.855   0.780  -3.875  0.00  0.00    -0.063 C 
ATOM     20  C   UNL     1      -4.284   0.570  -5.349  0.00  0.00    -0.017 C 
ATOM     21  C   UNL     1      -5.590   1.404  -5.418  0.00  0.00    -0.021 C 
ATOM     22  C   UNL     1      -6.213   1.190  -4.022  0.00  0.00    -0.082 C 
ATOM     23  N   UNL     1      -5.121   0.797  -3.111  0.00  0.00    +0.381 N 
ATOM     24  H   UNL     1      -5.304  -0.123  -2.738  0.00  0.00    -0.086 HD
ATOM     25  H   UNL     1      -5.052   1.461  -2.354  0.00  0.00    -0.086 HD
ENDBRANCH  18  19
ENDBRANCH   2  18
TORSDOF 6
