REMARK  Name = ZINC06468301
REMARK  6 active torsions:
REMARK  status: ('A' for Active; 'I' for Inactive)
REMARK    1  A    between atoms: C_1  and  C_2
REMARK    2  A    between atoms: C_11  and  O_25
REMARK    3  A    between atoms: C_13  and  C_16
REMARK    4  A    between atoms: C_20  and  O_23
REMARK    5  A    between atoms: C_21  and  O_22
REMARK    6  A    between atoms: O_23  and  C_24
REMARK                            x       y       z     vdW  Elec       q    Type
REMARK                         _______ _______ _______ _____ _____    ______ ____
ROOT
ATOM      1  C   UNL     1      -0.211   0.847   2.494  0.00  0.00    +0.008 C 
ATOM      2  C   UNL     1      -0.742   1.586   1.264  0.00  0.00    -0.009 C 
ATOM      3  C   UNL     1      -2.241   1.310   1.104  0.00  0.00    +0.008 C 
ATOM      4  C   UNL     1      -2.828   2.233   0.035  0.00  0.00    +0.037 C 
ATOM      5  C   UNL     1      -1.996   2.105  -1.236  0.00  0.00    -0.023 A 
ATOM      6  C   UNL     1      -0.747   1.587  -1.197  0.00  0.00    -0.004 A 
ATOM      7  S   UNL     1      -0.180   1.634  -2.877  0.00  0.00    -0.078 S 
ATOM      8  C   UNL     1      -1.565   2.325  -3.605  0.00  0.00    +0.080 A 
ATOM      9  C   UNL     1      -2.464   2.515  -2.548  0.00  0.00    +0.068 A 
ATOM     10  C   UNL     1      -3.786   3.107  -2.876  0.00  0.00    +0.220 C 
ATOM     11  N   UNL     1      -4.104   3.225  -4.136  0.00  0.00    -0.223 NA
ATOM     12  C   UNL     1      -3.300   2.728  -5.246  0.00  0.00    +0.227 C 
ATOM     13  N   UNL     1      -1.867   2.674  -4.900  0.00  0.00    -0.313 N 
ATOM     14  C   UNL     1      -0.013   1.086   0.008  0.00  0.00    +0.046 C 
ATOM     15  H   UNL     1      -1.108   2.905  -5.662  0.00  0.00    +0.149 HD
ENDROOT
BRANCH  12  16
ATOM     16  C   UNL     1      -3.770   1.344  -5.612  0.00  0.00    +0.040 A 
ATOM     17  C   UNL     1      -2.861   0.397  -6.048  0.00  0.00    +0.011 A 
ATOM     18  C   UNL     1      -3.288  -0.875  -6.379  0.00  0.00    +0.004 A 
ATOM     19  C   UNL     1      -4.628  -1.203  -6.287  0.00  0.00    +0.049 A 
ATOM     20  C   UNL     1      -5.545  -0.258  -5.856  0.00  0.00    +0.162 A 
ATOM     21  C   UNL     1      -5.114   1.021  -5.517  0.00  0.00    +0.165 A 
BRANCH  21  22
ATOM     22  O   UNL     1      -6.010   1.952  -5.095  0.00  0.00    -0.503 OA
ATOM     23  H   UNL     1      -7.077   1.695  -5.020  0.00  0.00    +0.292 HD
ENDBRANCH  21  22
BRANCH  20  24
ATOM     24  O   UNL     1      -6.863  -0.580  -5.766  0.00  0.00    -0.491 OA
ATOM     25  C   UNL     1      -7.232  -1.911  -6.130  0.00  0.00    +0.277 C 
ENDBRANCH  20  24
ENDBRANCH  12  16
BRANCH  10  26
ATOM     26  O   UNL     1      -4.633   3.511  -1.901  0.00  0.00    -0.492 OA
ATOM     27  H   UNL     1      -5.608   3.947  -2.165  0.00  0.00    +0.294 HD
ENDBRANCH  10  26
TORSDOF 4
