REMARK  Name = ZINC06301466
REMARK  10 active torsions:
REMARK  status: ('A' for Active; 'I' for Inactive)
REMARK    1  A    between atoms: C_1  and  C_2
REMARK    2  A    between atoms: C_4  and  C_38
REMARK    3  A    between atoms: C_7  and  C_14
REMARK    4  A    between atoms: C_14  and  N_67
REMARK    5  A    between atoms: C_15  and  C_16
REMARK    6  A    between atoms: C_15  and  N_67
REMARK    7  A    between atoms: C_25  and  C_26
REMARK    8  A    between atoms: C_25  and  N_67
REMARK    9  A    between atoms: N_30  and  C_31
REMARK   10  A    between atoms: C_31  and  C_32
REMARK                            x       y       z     vdW  Elec       q    Type
REMARK                         _______ _______ _______ _____ _____    ______ ____
ROOT
ATOM      1  N   UNL     1      -2.677   0.402   1.150  0.00  0.00    +0.390 N 
ATOM      2  H   UNL     1      -3.019   1.300   1.512  0.00  0.00    -0.080 HD
ENDROOT
BRANCH   1   3
ATOM      3  C   UNL     1      -1.593  -0.089   2.027  0.00  0.00    -0.036 C 
BRANCH   3  10
ATOM      4  C   UNL     1       1.432  -6.927  -0.749  0.00  0.00    +0.044 C 
ATOM      5  C   UNL     1       1.027  -5.531  -0.352  0.00  0.00    -0.048 A 
ATOM      6  C   UNL     1       1.730  -4.443  -0.851  0.00  0.00    +0.007 A 
ATOM      7  C   UNL     1       1.379  -3.170  -0.503  0.00  0.00    -0.041 A 
ATOM      8  C   UNL     1       0.302  -2.960   0.364  0.00  0.00    +0.002 A 
ATOM      9  C   UNL     1      -0.104  -1.608   0.754  0.00  0.00    +0.017 A 
ATOM     10  C   UNL     1      -1.152  -1.466   1.602  0.00  0.00    +0.001 A 
ATOM     11  C   UNL     1      -1.836  -2.603   2.084  0.00  0.00    +0.251 A 
ATOM     12  O   UNL     1      -2.779  -2.452   2.842  0.00  0.00    -0.268 OA
ATOM     13  N   UNL     1      -1.474  -3.848   1.728  0.00  0.00    -0.322 N 
ATOM     14  H   UNL     1      -1.966  -4.607   2.077  0.00  0.00    +0.169 HD
ATOM     15  C   UNL     1      -0.413  -4.060   0.873  0.00  0.00    +0.050 A 
ATOM     16  C   UNL     1      -0.037  -5.348   0.504  0.00  0.00    +0.029 A 
ATOM     17  C   UNL     1       2.149  -1.996  -1.052  0.00  0.00    +0.044 C 
ENDBRANCH   3  10
ENDBRANCH   1   3
BRANCH   1  18
ATOM     18  C   UNL     1      -2.166   0.601  -0.222  0.00  0.00    -0.042 C 
BRANCH  18  19
ATOM     19  C   UNL     1      -1.354   1.870  -0.256  0.00  0.00    -0.060 A 
ATOM     20  C   UNL     1      -0.007   1.835   0.055  0.00  0.00    +0.005 A 
ATOM     21  C   UNL     1       0.744   2.996   0.020  0.00  0.00    +0.050 A 
ATOM     22  C   UNL     1       0.146   4.198  -0.322  0.00  0.00    +0.166 A 
ATOM     23  C   UNL     1      -1.212   4.234  -0.629  0.00  0.00    +0.166 A 
ATOM     24  C   UNL     1      -1.958   3.067  -0.592  0.00  0.00    +0.051 A 
ATOM     25  O   UNL     1      -1.558   5.520  -0.930  0.00  0.00    -0.453 OA
ATOM     26  C   UNL     1      -0.317   6.198  -1.201  0.00  0.00    +0.466 C 
ATOM     27  O   UNL     1       0.651   5.462  -0.429  0.00  0.00    -0.453 OA
ENDBRANCH  18  19
ENDBRANCH   1  18
BRANCH   1  28
ATOM     28  C   UNL     1      -3.794  -0.567   1.137  0.00  0.00    +0.001 C 
BRANCH  28  29
ATOM     29  C   UNL     1      -4.978   0.067   0.453  0.00  0.00    +0.135 A 
ATOM     30  N   UNL     1      -5.307  -0.051  -0.810  0.00  0.00    -0.115 NA
ATOM     31  N   UNL     1      -6.378   0.636  -1.008  0.00  0.00    -0.023 NA
ATOM     32  N   UNL     1      -6.741   1.190   0.096  0.00  0.00    -0.044 NA
ATOM     33  N   UNL     1      -5.906   0.858   1.022  0.00  0.00    -0.229 N 
BRANCH  33  34
ATOM     34  C   UNL     1      -5.956   1.269   2.428  0.00  0.00    +0.178 C 
BRANCH  34  35
ATOM     35  C   UNL     1      -5.307   2.645   2.580  0.00  0.00    +0.140 C 
ATOM     36  C   UNL     1      -5.340   3.094   4.063  0.00  0.00    +0.035 C 
ATOM     37  C   UNL     1      -4.141   4.083   4.097  0.00  0.00    +0.031 C 
ATOM     38  C   UNL     1      -3.157   3.442   3.095  0.00  0.00    +0.160 C 
ATOM     39  O   UNL     1      -3.913   2.580   2.237  0.00  0.00    -0.375 OA
ENDBRANCH  34  35
ENDBRANCH  33  34
ENDBRANCH  28  29
ENDBRANCH   1  28
TORSDOF 8
