REMARK  Name = ZINC35050959
REMARK  9 active torsions:
REMARK  status: ('A' for Active; 'I' for Inactive)
REMARK    1  A    between atoms: C_1  and  C_2
REMARK    2  A    between atoms: C_5  and  C_36
REMARK    3  A    between atoms: C_14  and  C_24
REMARK    4  A    between atoms: C_17  and  O_23
REMARK    5  A    between atoms: C_19  and  C_21
REMARK    6  A    between atoms: C_21  and  O_22
REMARK    7  A    between atoms: C_26  and  C_29
REMARK    8  A    between atoms: C_29  and  C_30
REMARK    9  A    between atoms: C_36  and  C_38
REMARK                            x       y       z     vdW  Elec       q    Type
REMARK                         _______ _______ _______ _____ _____    ______ ____
ROOT
ATOM      1  C   UNL     1      -0.019   1.517   0.010  0.00  0.00    +0.010 C 
ATOM      2  C   UNL     1       0.002  -0.004   0.002  0.00  0.00    +0.023 C 
ATOM      3  C   UNL     1       0.643  -0.455  -1.287  0.00  0.00    +0.048 C 
ATOM      4  C   UNL     1       1.455  -1.716  -1.200  0.00  0.00    +0.123 C 
ATOM      5  C   UNL     1       1.250  -2.658  -0.030  0.00  0.00    +0.170 C 
ATOM      6  C   UNL     1       0.356  -2.077   1.098  0.00  0.00    +0.077 C 
ATOM      7  C   UNL     1       0.742  -0.614   1.218  0.00  0.00    +0.096 C 
ATOM      8  C   UNL     1       0.228   0.150   2.445  0.00  0.00    +0.085 C 
ATOM      9  C   UNL     1       1.220   1.328   2.594  0.00  0.00    -0.011 C 
ATOM     10  C   UNL     1       2.217   0.982   3.420  0.00  0.00    -0.009 C 
ATOM     11  C   UNL     1       2.013  -0.393   3.936  0.00  0.00    +0.191 C 
ATOM     12  O   UNL     1       2.810  -1.180   4.399  0.00  0.00    -0.289 OA
ATOM     13  C   UNL     1       0.546  -0.527   3.788  0.00  0.00    +0.140 C 
ATOM     14  C   UNL     1      -0.249  -1.714   4.178  0.00  0.00    +0.076 C 
ATOM     15  C   UNL     1       0.316  -2.913   3.463  0.00  0.00    -0.045 C 
ATOM     16  C   UNL     1       0.557  -2.990   2.246  0.00  0.00    -0.016 C 
ATOM     17  C   UNL     1       3.383   1.870   3.772  0.00  0.00    +0.047 C 
ATOM     18  O   UNL     1       2.146  -0.438   1.113  0.00  0.00    -0.318 OA
ATOM     19  C   UNL     1       2.985  -1.339   0.415  0.00  0.00    +0.291 C 
ATOM     20  O   UNL     1       2.554  -2.707   0.636  0.00  0.00    -0.319 OA
ATOM     21  O   UNL     1       2.824  -1.220  -1.015  0.00  0.00    -0.313 OA
ENDROOT
BRANCH   4  22
ATOM     22  C   UNL     1       1.360  -2.481  -2.494  0.00  0.00    -0.046 C 
ATOM     23  C   UNL     1       2.441  -2.721  -3.194  0.00  0.00    +0.010 C 
ATOM     24  C   UNL     1       0.021  -2.970  -2.983  0.00  0.00    +0.041 C 
ENDBRANCH   4  22
BRANCH  13  25
ATOM     25  O   UNL     1       0.072   0.471   4.693  0.00  0.00    -0.380 OA
ATOM     26  H   UNL     1       0.181   0.239   5.625  0.00  0.00    +0.211 HD
ENDBRANCH  13  25
BRANCH  15  27
ATOM     27  C   UNL     1       0.603  -4.122   4.301  0.00  0.00    +0.186 C 
BRANCH  27  28
ATOM     28  O   UNL     1       1.131  -5.160   3.473  0.00  0.00    -0.391 OA
ATOM     29  H   UNL     1       1.340  -5.975   3.950  0.00  0.00    +0.210 HD
ENDBRANCH  27  28
ENDBRANCH  15  27
BRANCH  19  30
ATOM     30  C   UNL     1       4.448  -1.155   0.819  0.00  0.00    +0.133 C 
BRANCH  30  31
ATOM     31  C   UNL     1       5.306  -2.130   0.055  0.00  0.00    -0.040 A 
ATOM     32  C   UNL     1       5.556  -3.386   0.576  0.00  0.00    +0.004 A 
ATOM     33  C   UNL     1       6.343  -4.281  -0.124  0.00  0.00    +0.000 A 
ATOM     34  C   UNL     1       6.881  -3.920  -1.345  0.00  0.00    +0.000 A 
ATOM     35  C   UNL     1       6.630  -2.665  -1.867  0.00  0.00    +0.000 A 
ATOM     36  C   UNL     1       5.840  -1.772  -1.169  0.00  0.00    +0.004 A 
ENDBRANCH  30  31
ENDBRANCH  19  30
TORSDOF 6
