REMARK  Name = ZINC41845305
REMARK  9 active torsions:
REMARK  status: ('A' for Active; 'I' for Inactive)
REMARK    1  A    between atoms: C_1  and  C_2
REMARK    2  A    between atoms: C_2  and  C_3
REMARK    3  A    between atoms: C_2  and  C_4
REMARK    4  A    between atoms: C_2  and  C_5
REMARK    5  A    between atoms: C_10  and  C_13
REMARK    6  A    between atoms: N_15  and  C_16
REMARK    7  A    between atoms: C_16  and  C_17
REMARK    8  A    between atoms: C_17  and  N_18
REMARK    9  A    between atoms: N_21  and  C_24
REMARK                            x       y       z     vdW  Elec       q    Type
REMARK                         _______ _______ _______ _____ _____    ______ ____
ROOT
ATOM      1  C   UNL     1       1.396  -6.021  -1.013  0.00  0.00    +0.216 C 
ATOM      2  O   UNL     1       1.838  -6.229   0.097  0.00  0.00    -0.276 OA
ATOM      3  N   UNL     1       1.656  -6.885  -2.015  0.00  0.00    -0.314 N 
ATOM      4  H   UNL     1       1.302  -6.719  -2.902  0.00  0.00    +0.149 HD
ENDROOT
BRANCH   1  10
ATOM      5  C   UNL     1       0.363  -0.695  -1.238  0.00  0.00    +0.221 C 
ATOM      6  O   UNL     1       0.920  -0.101  -2.138  0.00  0.00    -0.275 OA
ATOM      7  N   UNL     1       0.093  -2.009  -1.364  0.00  0.00    -0.301 N 
ATOM      8  C   UNL     1      -0.470  -2.768  -0.239  0.00  0.00    +0.108 C 
ATOM      9  C   UNL     1       0.414  -3.992   0.021  0.00  0.00    +0.032 C 
ATOM     10  C   UNL     1       0.555  -4.798  -1.273  0.00  0.00    +0.078 C 
ATOM     11  C   UNL     1       1.228  -3.934  -2.343  0.00  0.00    +0.032 C 
ATOM     12  C   UNL     1       0.348  -2.708  -2.631  0.00  0.00    +0.108 C 
BRANCH   5  14
ATOM     13  C   UNL     1       0.221   1.537  -0.166  0.00  0.00    +0.020 C 
ATOM     14  C   UNL     1      -0.025   0.038   0.020  0.00  0.00    +0.039 C 
ATOM     15  C   UNL     1       0.816  -0.476   1.190  0.00  0.00    +0.020 C 
ATOM     16  C   UNL     1      -1.507  -0.203   0.313  0.00  0.00    +0.020 C 
ENDBRANCH   5  14
ENDBRANCH   1  10
BRANCH   3  17
ATOM     17  C   UNL     1       2.474  -8.074  -1.762  0.00  0.00    +0.119 C 
BRANCH  17  18
ATOM     18  C   UNL     1       2.615  -8.880  -3.055  0.00  0.00    +0.103 C 
BRANCH  18  19
ATOM     19  N   UNL     1       3.435 -10.072  -2.802  0.00  0.00    -0.304 NA
ATOM     20  C   UNL     1       4.818  -9.701  -2.475  0.00  0.00    +0.066 C 
ATOM     21  C   UNL     1       5.622 -10.964  -2.160  0.00  0.00    -0.064 C 
ATOM     22  N   UNL     1       5.600 -11.861  -3.324  0.00  0.00    +0.379 N 
ATOM     23  C   UNL     1       4.214 -12.243  -3.623  0.00  0.00    -0.064 C 
ATOM     24  C   UNL     1       3.398 -10.990  -3.950  0.00  0.00    +0.066 C 
ATOM     25  C   UNL     1       6.386 -13.066  -3.028  0.00  0.00    -0.096 C 
ATOM     26  H   UNL     1       5.998 -11.387  -4.121  0.00  0.00    -0.082 HD
ENDBRANCH  18  19
ENDBRANCH  17  18
ENDBRANCH   3  17
TORSDOF 5
