REMARK  Name = ZINC62233216
REMARK  5 active torsions:
REMARK  status: ('A' for Active; 'I' for Inactive)
REMARK    1  A    between atoms: C_1  and  C_2
REMARK    2  A    between atoms: C_2  and  N_3
REMARK    3  A    between atoms: N_3  and  C_4
REMARK    4  A    between atoms: C_4  and  C_6
REMARK    5  A    between atoms: C_4  and  C_17
REMARK                            x       y       z     vdW  Elec       q    Type
REMARK                         _______ _______ _______ _____ _____    ______ ____
ROOT
ATOM      1  C   UNL     1       0.733  -1.960   1.184  0.00  0.00    -0.034 C 
ENDROOT
BRANCH   1   2
ATOM      2  C   UNL     1       1.543  -2.445   0.010  0.00  0.00    -0.039 A 
ATOM      3  C   UNL     1       2.526  -1.637  -0.531  0.00  0.00    +0.052 A 
ATOM      4  C   UNL     1       3.275  -2.081  -1.610  0.00  0.00    +0.162 A 
ATOM      5  C   UNL     1       3.035  -3.341  -2.147  0.00  0.00    +0.163 A 
ATOM      6  C   UNL     1       2.046  -4.146  -1.602  0.00  0.00    +0.069 A 
ATOM      7  C   UNL     1       1.306  -3.699  -0.522  0.00  0.00    +0.046 A 
ATOM      8 CL   UNL     1       0.074  -4.712   0.163  0.00  0.00    -0.083 Cl
ATOM      9  O   UNL     1       3.763  -3.799  -3.202  0.00  0.00    -0.485 OA
ATOM     10  C   UNL     1       4.488  -2.821  -3.956  0.00  0.00    +0.270 C 
ATOM     11  C   UNL     1       5.216  -1.897  -2.970  0.00  0.00    +0.270 C 
ATOM     12  O   UNL     1       4.237  -1.272  -2.134  0.00  0.00    -0.485 OA
ENDBRANCH   1   2
BRANCH   1  13
ATOM     13  C   UNL     1       1.361  -2.468   2.483  0.00  0.00    +0.005 C 
ATOM     14  C   UNL     1       1.380  -4.000   2.477  0.00  0.00    +0.007 C 
ATOM     15  C   UNL     1       1.940  -4.498   3.813  0.00  0.00    +0.028 C 
ATOM     16  C   UNL     1       1.092  -3.931   4.955  0.00  0.00    +0.160 C 
ATOM     17  O   UNL     1       1.092  -2.504   4.884  0.00  0.00    -0.380 OA
ATOM     18  C   UNL     1       0.537  -1.979   3.676  0.00  0.00    +0.162 C 
ENDBRANCH   1  13
BRANCH   1  19
ATOM     19  N   UNL     1       0.713  -0.491   1.192  0.00  0.00    +0.384 N 
ATOM     20  H   UNL     1       1.659  -0.141   1.185  0.00  0.00    -0.085 HD
ATOM     21  H   UNL     1       0.240  -0.165   2.022  0.00  0.00    -0.085 HD
BRANCH  19  23
ATOM     22  C   UNL     1      -0.019   1.526   0.010  0.00  0.00    -0.017 C 
ATOM     23  C   UNL     1       0.002  -0.004   0.002  0.00  0.00    -0.085 C 
ENDBRANCH  19  23
ENDBRANCH   1  19
TORSDOF 4
