REMARK  Name = ZINC59680126
REMARK  4 active torsions:
REMARK  status: ('A' for Active; 'I' for Inactive)
REMARK    1  A    between atoms: C_4  and  N_7
REMARK    2  A    between atoms: C_17  and  N_18
REMARK    3  A    between atoms: N_18  and  N_19
REMARK    4  A    between atoms: C_20  and  C_22
REMARK                            x       y       z     vdW  Elec       q    Type
REMARK                         _______ _______ _______ _____ _____    ______ ____
ROOT
ATOM      1  N   UNL     1       3.621  -0.656  -0.111  0.00  0.00    -0.216 N 
ATOM      2  C   UNL     1       3.631  -2.004  -0.032  0.00  0.00    +0.263 C 
ATOM      3  O   UNL     1       2.594  -2.641  -0.018  0.00  0.00    -0.269 OA
ATOM      4  C   UNL     1       4.940  -2.679   0.037  0.00  0.00    +0.116 C 
ATOM      5  C   UNL     1       6.135  -1.823   0.014  0.00  0.00    +0.276 C 
ATOM      6  O   UNL     1       7.371  -2.361   0.073  0.00  0.00    -0.268 OA
ATOM      7  N   UNL     1       5.970  -0.513  -0.066  0.00  0.00    -0.153 NA
ATOM      8  C   UNL     1       4.764   0.044  -0.132  0.00  0.00    +0.171 C 
ATOM      9  S   UNL     1       4.666   1.750  -0.242  0.00  0.00    -0.016 S 
ATOM     10  C   UNL     1       5.040  -4.059   0.121  0.00  0.00    +0.106 C 
ENDROOT
BRANCH   1  14
ATOM     11  C   UNL     1      -0.022   1.357  -0.312  0.00  0.00    +0.000 A 
ATOM     12  C   UNL     1       0.621   0.977  -1.475  0.00  0.00    +0.002 A 
ATOM     13  C   UNL     1       1.829   0.310  -1.412  0.00  0.00    +0.024 A 
ATOM     14  C   UNL     1       2.397   0.021  -0.179  0.00  0.00    +0.043 A 
ATOM     15  C   UNL     1       1.748   0.403   0.988  0.00  0.00    +0.024 A 
ATOM     16  C   UNL     1       0.541   1.070   0.918  0.00  0.00    +0.002 A 
ENDBRANCH   1  14
BRANCH  10  18
ATOM     17  H   UNL     1       3.058  -4.402  -0.005  0.00  0.00    +0.169 HD
ATOM     18  N   UNL     1       3.926  -4.816   0.126  0.00  0.00    -0.270 N 
BRANCH  18  19
ATOM     19  N   UNL     1       4.021  -6.200   0.320  0.00  0.00    -0.230 N 
ATOM     20  C   UNL     1       2.906  -6.957   0.325  0.00  0.00    +0.295 C 
ATOM     21  O   UNL     1       1.817  -6.439   0.161  0.00  0.00    -0.265 OA
ATOM     22  H   UNL     1       4.888  -6.613   0.451  0.00  0.00    +0.173 HD
BRANCH  20  23
ATOM     23  C   UNL     1       3.005  -8.410   0.528  0.00  0.00    +0.192 A 
ATOM     24  C   UNL     1       1.954  -9.270   0.547  0.00  0.00    +0.063 A 
ATOM     25  C   UNL     1       2.522 -10.598   0.776  0.00  0.00    +0.021 A 
ATOM     26  C   UNL     1       1.981 -11.880   0.898  0.00  0.00    +0.011 A 
ATOM     27  C   UNL     1       2.807 -12.946   1.116  0.00  0.00    +0.001 A 
ATOM     28  C   UNL     1       4.180 -12.762   1.217  0.00  0.00    +0.004 A 
ATOM     29  C   UNL     1       4.733 -11.506   1.100  0.00  0.00    +0.047 A 
ATOM     30  C   UNL     1       3.912 -10.406   0.877  0.00  0.00    +0.136 A 
ATOM     31  O   UNL     1       4.154  -9.090   0.719  0.00  0.00    -0.450 OA
ENDBRANCH  20  23
ENDBRANCH  18  19
ENDBRANCH  10  18
TORSDOF 4
