REMARK  Name = ZINC51550075
REMARK  8 active torsions:
REMARK  status: ('A' for Active; 'I' for Inactive)
REMARK    1  A    between atoms: C_1  and  C_2
REMARK    2  A    between atoms: C_7  and  O_8
REMARK    3  A    between atoms: O_8  and  C_9
REMARK    4  A    between atoms: C_12  and  C_15
REMARK    5  A    between atoms: C_15  and  N_16
REMARK    6  A    between atoms: N_16  and  C_17
REMARK    7  A    between atoms: C_17  and  C_18
REMARK    8  A    between atoms: C_17  and  C_19
REMARK                            x       y       z     vdW  Elec       q    Type
REMARK                         _______ _______ _______ _____ _____    ______ ____
ROOT
ATOM      1  C   UNL     1      -0.059  -0.757   3.525  0.00  0.00    +0.240 A 
ATOM      2  C   UNL     1      -0.172  -0.111   4.754  0.00  0.00    +0.071 A 
ATOM      3  C   UNL     1      -0.254  -0.896   5.894  0.00  0.00    +0.028 A 
ATOM      4  C   UNL     1      -0.219  -2.275   5.741  0.00  0.00    +0.047 A 
ATOM      5  N   UNL     1      -0.111  -2.801   4.537  0.00  0.00    -0.153 NA
ATOM      6  N   UNL     1      -0.040  -2.079   3.478  0.00  0.00    -0.111 NA
ENDROOT
BRANCH   1   7
ATOM      7  O   UNL     1       0.025  -0.033   2.381  0.00  0.00    -0.436 OA
BRANCH   7  14
ATOM      8  C   UNL     1       2.528  -0.940   1.438  0.00  0.00    +0.047 C 
ATOM      9  C   UNL     1       1.243  -1.175   0.686  0.00  0.00    -0.007 A 
ATOM     10  C   UNL     1       1.258  -1.864  -0.511  0.00  0.00    +0.027 A 
ATOM     11  C   UNL     1       0.079  -2.080  -1.201  0.00  0.00    +0.041 A 
ATOM     12  C   UNL     1      -1.119  -1.607  -0.694  0.00  0.00    +0.023 A 
ATOM     13  C   UNL     1      -1.139  -0.918   0.503  0.00  0.00    +0.048 A 
ATOM     14  C   UNL     1       0.043  -0.706   1.200  0.00  0.00    +0.133 A 
ATOM     15 CL   UNL     1       0.101  -2.944  -2.707  0.00  0.00    -0.084 Cl
ENDBRANCH   7  14
ENDBRANCH   1   7
BRANCH   4  16
ATOM     16  C   UNL     1      -0.305  -3.170   6.950  0.00  0.00    -0.024 C 
BRANCH  16  17
ATOM     17  N   UNL     1      -1.700  -3.580   7.158  0.00  0.00    +0.384 N 
ATOM     18  H   UNL     1      -2.273  -2.762   7.303  0.00  0.00    -0.085 HD
ATOM     19  H   UNL     1      -2.028  -4.080   6.345  0.00  0.00    -0.085 HD
BRANCH  17  20
ATOM     20  C   UNL     1      -1.784  -4.453   8.336  0.00  0.00    -0.078 C 
ATOM     21  C   UNL     1      -1.405  -3.658   9.587  0.00  0.00    -0.014 C 
ATOM     22  C   UNL     1      -3.213  -4.980   8.480  0.00  0.00    -0.014 C 
ENDBRANCH  17  20
ENDBRANCH  16  17
ENDBRANCH   4  16
TORSDOF 5
