REMARK  Name = ZINC24677991
REMARK  9 active torsions:
REMARK  status: ('A' for Active; 'I' for Inactive)
REMARK    1  A    between atoms: C_1  and  C_2
REMARK    2  A    between atoms: C_2  and  C_4
REMARK    3  A    between atoms: C_2  and  N_15
REMARK    4  A    between atoms: N_6  and  C_7
REMARK    5  A    between atoms: C_8  and  C_12
REMARK    6  A    between atoms: N_19  and  C_22
REMARK    7  A    between atoms: C_22  and  C_23
REMARK    8  A    between atoms: N_25  and  C_26
REMARK    9  A    between atoms: N_25  and  C_27
REMARK                            x       y       z     vdW  Elec       q    Type
REMARK                         _______ _______ _______ _____ _____    ______ ____
ROOT
ATOM      1  C   UNL     1      -1.562  -6.449  -2.291  0.00  0.00    +0.034 C 
ATOM      2  C   UNL     1      -2.278  -6.393  -0.939  0.00  0.00    +0.140 C 
ENDROOT
BRANCH   2   3
ATOM      3  N   UNL     1      -2.231  -5.020  -0.418  0.00  0.00    -0.294 NA
ATOM      4  C   UNL     1      -0.878  -4.440  -0.571  0.00  0.00    +0.083 C 
ATOM      5  C   UNL     1      -0.705  -3.135   0.222  0.00  0.00    -0.003 C 
ATOM      6  C   UNL     1      -1.919  -2.246   0.123  0.00  0.00    -0.077 C 
ATOM      7  N   UNL     1      -2.813  -2.544   1.262  0.00  0.00    +0.386 N 
ATOM      8  C   UNL     1      -3.599  -3.689   1.087  0.00  0.00    -0.063 C 
ATOM      9  C   UNL     1      -2.743  -4.962   0.933  0.00  0.00    +0.066 C 
ATOM     10  H   UNL     1      -2.181  -2.820   2.119  0.00  0.00    -0.081 HD
BRANCH   7  11
ATOM     11  C   UNL     1      -3.646  -1.380   1.597  0.00  0.00    +0.019 C 
BRANCH  11  12
ATOM     12  C   UNL     1      -2.761  -0.234   2.017  0.00  0.00    +0.199 C 
ATOM     13  O   UNL     1      -1.557  -0.373   2.035  0.00  0.00    -0.278 OA
ATOM     14  N   UNL     1      -3.309   0.945   2.371  0.00  0.00    -0.309 N 
ATOM     15  C   UNL     1      -2.450   2.059   2.779  0.00  0.00    +0.131 C 
ATOM     16  C   UNL     1      -4.764   1.115   2.342  0.00  0.00    +0.131 C 
ENDBRANCH  11  12
ENDBRANCH   7  11
ENDBRANCH   2   3
BRANCH   2  17
ATOM     17  C   UNL     1      -1.594  -7.322   0.030  0.00  0.00    +0.235 C 
ATOM     18  O   UNL     1      -0.738  -6.897   0.777  0.00  0.00    -0.274 OA
ATOM     19  N   UNL     1      -1.934  -8.626   0.068  0.00  0.00    -0.278 N 
ATOM     20  H   UNL     1      -2.711  -9.011  -0.609  0.00  0.00    +0.155 HD
BRANCH  19  21
ATOM     21  C   UNL     1      -1.305  -9.481   0.960  0.00  0.00    +0.084 A 
ATOM     22  C   UNL     1      -1.520 -10.841   1.150  0.00  0.00    +0.065 A 
ATOM     23  C   UNL     1      -0.714 -11.492   2.155  0.00  0.00    +0.022 A 
ATOM     24  C   UNL     1       0.166 -10.727   2.826  0.00  0.00    +0.048 A 
ATOM     25  S   UNL     1      -0.067  -9.112   2.113  0.00  0.00    -0.081 S 
BRANCH  22  26
ATOM     26  C   UNL     1      -2.514 -11.579   0.365  0.00  0.00    +0.244 C 
ATOM     27  O   UNL     1      -3.176 -11.001  -0.477  0.00  0.00    -0.270 OA
ATOM     28  N   UNL     1      -2.696 -12.898   0.577  0.00  0.00    -0.325 N 
ATOM     29  H   UNL     1      -3.442 -13.452  -0.012  0.00  0.00    +0.145 HD
ATOM     30  H   UNL     1      -2.098 -13.420   1.338  0.00  0.00    +0.145 HD
ENDBRANCH  22  26
ENDBRANCH  19  21
ENDBRANCH   2  17
TORSDOF 6
