REMARK  Name = ZINC66652673
REMARK  5 active torsions:
REMARK  status: ('A' for Active; 'I' for Inactive)
REMARK    1  A    between atoms: C_1  and  N_2
REMARK    2  A    between atoms: C_5  and  C_8
REMARK    3  A    between atoms: C_8  and  N_9
REMARK    4  A    between atoms: C_10  and  C_12
REMARK    5  A    between atoms: C_12  and  N_13
REMARK                            x       y       z     vdW  Elec       q    Type
REMARK                         _______ _______ _______ _____ _____    ______ ____
ROOT
ATOM      1  N   UNL     1      -0.531  -3.421   3.308  0.00  0.00    -0.314 N 
ATOM      2  C   UNL     1      -0.131  -4.560   3.907  0.00  0.00    +0.227 C 
ATOM      3  O   UNL     1       1.027  -4.912   3.829  0.00  0.00    -0.274 OA
ATOM      4  H   UNL     1      -1.458  -3.139   3.370  0.00  0.00    +0.149 HD
ENDROOT
BRANCH   1   5
ATOM      5  C   UNL     1       0.432  -2.608   2.562  0.00  0.00    +0.105 C 
BRANCH   5  10
ATOM      6  C   UNL     1      -0.018   1.465   0.010  0.00  0.00    -0.096 C 
ATOM      7  N   UNL     1       0.002  -0.004   0.002  0.00  0.00    +0.378 N 
ATOM      8  C   UNL     1      -1.383  -0.521   0.034  0.00  0.00    -0.079 C 
ATOM      9  C   UNL     1      -1.309  -1.797   0.908  0.00  0.00    -0.016 C 
ATOM     10  C   UNL     1      -0.274  -1.379   1.986  0.00  0.00    -0.012 C 
ATOM     11  C   UNL     1       0.714  -0.497   1.195  0.00  0.00    -0.074 C 
ATOM     12  H   UNL     1       0.466  -0.334  -0.831  0.00  0.00    -0.082 HD
ENDBRANCH   5  10
ENDBRANCH   1   5
BRANCH   2  13
ATOM     13  C   UNL     1      -1.123  -5.396   4.675  0.00  0.00    +0.180 C 
BRANCH  13  14
ATOM     14  N   UNL     1      -0.444  -6.576   5.228  0.00  0.00    -0.291 NA
ATOM     15  C   UNL     1       0.053  -7.445   4.159  0.00  0.00    +0.107 C 
ATOM     16  C   UNL     1       1.108  -8.405   4.717  0.00  0.00    +0.181 C 
ATOM     17  S   UNL     1       0.325  -9.457   5.977  0.00  0.00    -0.029 S 
ATOM     18  O   UNL     1      -0.688 -10.234   5.351  0.00  0.00    -0.174 OA
ATOM     19  O   UNL     1       1.344 -10.114   6.717  0.00  0.00    -0.174 OA
ATOM     20  C   UNL     1      -0.471  -8.221   7.047  0.00  0.00    +0.181 C 
ATOM     21  C   UNL     1      -1.311  -7.286   6.171  0.00  0.00    +0.107 C 
ENDBRANCH  13  14
ENDBRANCH   2  13
TORSDOF 4
