REMARK  Name = ZINC49979329
REMARK  10 active torsions:
REMARK  status: ('A' for Active; 'I' for Inactive)
REMARK    1  A    between atoms: C_1  and  C_2
REMARK    2  A    between atoms: C_4  and  C_21
REMARK    3  A    between atoms: C_6  and  N_8
REMARK    4  A    between atoms: N_8  and  C_9
REMARK    5  A    between atoms: N_8  and  C_10
REMARK    6  A    between atoms: C_10  and  C_11
REMARK    7  A    between atoms: C_11  and  O_12
REMARK    8  A    between atoms: O_12  and  C_13
REMARK    9  A    between atoms: C_16  and  C_19
REMARK   10  A    between atoms: C_19  and  N_20
REMARK                            x       y       z     vdW  Elec       q    Type
REMARK                         _______ _______ _______ _____ _____    ______ ____
ROOT
ATOM      1  C   UNL     1      -1.396  -1.841   4.115  0.00  0.00    +0.248 C 
ENDROOT
BRANCH   1   2
ATOM      2  C   UNL     1       0.048  -2.073   3.665  0.00  0.00    +0.145 C 
BRANCH   2   3
ATOM      3  N   UNL     1       0.051  -2.796   2.390  0.00  0.00    -0.330 N 
ATOM      4  C   UNL     1       0.071  -4.261   2.380  0.00  0.00    +0.129 C 
BRANCH   3  10
ATOM      5  C   UNL     1      -0.018   1.503   0.010  0.00  0.00    +0.044 C 
ATOM      6  C   UNL     1       0.002  -0.004   0.002  0.00  0.00    -0.048 A 
ATOM      7  C   UNL     1       0.006  -0.688  -1.200  0.00  0.00    +0.006 A 
ATOM      8  C   UNL     1       0.024  -2.071  -1.212  0.00  0.00    -0.048 A 
ATOM      9  C   UNL     1       0.039  -2.773  -0.023  0.00  0.00    +0.026 A 
ATOM     10  C   UNL     1       0.036  -2.089   1.186  0.00  0.00    +0.030 A 
ATOM     11  C   UNL     1       0.023  -0.700   1.195  0.00  0.00    +0.026 A 
ATOM     12  C   UNL     1       0.027  -2.812  -2.524  0.00  0.00    +0.044 C 
ENDBRANCH   3  10
ENDBRANCH   2   3
ENDBRANCH   1   2
BRANCH   1  13
ATOM     13  O   UNL     1      -2.017  -3.098   4.392  0.00  0.00    -0.490 OA
BRANCH  13  14
ATOM     14  C   UNL     1      -3.310  -3.069   4.807  0.00  0.00    +0.121 A 
ATOM     15  C   UNL     1      -3.970  -1.856   4.939  0.00  0.00    +0.046 A 
ATOM     16  C   UNL     1      -5.286  -1.829   5.361  0.00  0.00    +0.005 A 
ATOM     17  C   UNL     1      -5.944  -3.009   5.651  0.00  0.00    -0.065 A 
ATOM     18  C   UNL     1      -5.288  -4.220   5.521  0.00  0.00    +0.005 A 
ATOM     19  C   UNL     1      -3.975  -4.252   5.093  0.00  0.00    +0.046 A 
BRANCH  17  20
ATOM     20  C   UNL     1      -7.379  -2.977   6.111  0.00  0.00    -0.051 C 
BRANCH  20  21
ATOM     21  N   UNL     1      -8.269  -3.054   4.945  0.00  0.00    +0.381 N 
ATOM     22  H   UNL     1      -8.093  -2.269   4.336  0.00  0.00    -0.090 HD
ATOM     23  H   UNL     1      -8.095  -3.913   4.445  0.00  0.00    -0.090 HD
ATOM     24  H   UNL     1      -9.229  -3.032   5.253  0.00  0.00    -0.090 HD
ENDBRANCH  20  21
ENDBRANCH  17  20
ENDBRANCH  13  14
ENDBRANCH   1  13
TORSDOF 7
