REMARK  Name = ZINC58893319
REMARK  10 active torsions:
REMARK  status: ('A' for Active; 'I' for Inactive)
REMARK    1  A    between atoms: C_1  and  C_2
REMARK    2  A    between atoms: C_5  and  C_23
REMARK    3  A    between atoms: C_7  and  N_8
REMARK    4  A    between atoms: N_11  and  C_12
REMARK    5  A    between atoms: C_12  and  C_13
REMARK    6  A    between atoms: C_13  and  C_15
REMARK    7  A    between atoms: C_13  and  N_20
REMARK    8  A    between atoms: N_20  and  C_21
REMARK    9  A    between atoms: N_20  and  C_22
REMARK   10  A    between atoms: N_25  and  C_26
REMARK                            x       y       z     vdW  Elec       q    Type
REMARK                         _______ _______ _______ _____ _____    ______ ____
ROOT
ATOM      1  N   UNL     1       0.223   0.010   2.455  0.00  0.00    -0.269 N 
ATOM      2  C   UNL     1       0.044  -0.670   3.604  0.00  0.00    +0.304 C 
ATOM      3  O   UNL     1      -0.019  -1.885   3.589  0.00  0.00    -0.253 OA
ATOM      4  N   UNL     1      -0.065  -0.005   4.771  0.00  0.00    -0.300 N 
ATOM      5  H   UNL     1       0.342   0.972   2.474  0.00  0.00    +0.156 HD
ATOM      6  H   UNL     1      -0.015   0.964   4.784  0.00  0.00    +0.150 HD
ENDROOT
BRANCH   1  13
ATOM      7  C   UNL     1      -0.866   1.320   0.180  0.00  0.00    +0.045 C 
ATOM      8  C   UNL     1      -0.287  -0.069   0.095  0.00  0.00    -0.029 A 
ATOM      9  C   UNL     1      -0.272  -0.736  -1.116  0.00  0.00    +0.006 A 
ATOM     10  C   UNL     1       0.257  -2.008  -1.202  0.00  0.00    +0.013 A 
ATOM     11  C   UNL     1       0.778  -2.625  -0.063  0.00  0.00    +0.038 A 
ATOM     12  C   UNL     1       0.763  -1.952   1.158  0.00  0.00    +0.036 A 
ATOM     13  C   UNL     1       0.235  -0.672   1.232  0.00  0.00    +0.038 A 
BRANCH  11  14
ATOM     14  C   UNL     1       1.344  -3.988  -0.152  0.00  0.00    +0.244 C 
ATOM     15  O   UNL     1       1.798  -4.524   0.841  0.00  0.00    -0.270 OA
ATOM     16  N   UNL     1       1.357  -4.637  -1.333  0.00  0.00    -0.314 N 
ATOM     17  C   UNL     1       1.918  -5.987  -1.421  0.00  0.00    +0.128 C 
ATOM     18  H   UNL     1       0.995  -4.210  -2.125  0.00  0.00    +0.149 HD
ENDBRANCH  11  14
ENDBRANCH   1  13
BRANCH   4  19
ATOM     19  C   UNL     1      -0.259  -0.745   6.021  0.00  0.00    +0.098 C 
BRANCH  19  20
ATOM     20  C   UNL     1      -0.474   0.242   7.170  0.00  0.00    +0.016 C 
BRANCH  20  21
ATOM     21  C   UNL     1      -1.760   0.997   6.949  0.00  0.00    +0.093 A 
ATOM     22  C   UNL     1      -2.937   0.736   7.546  0.00  0.00    +0.043 A 
ATOM     23  C   UNL     1      -3.866   1.681   7.050  0.00  0.00    +0.041 A 
ATOM     24  C   UNL     1      -3.200   2.462   6.181  0.00  0.00    +0.195 A 
ATOM     25  O   UNL     1      -1.924   2.047   6.128  0.00  0.00    -0.469 OA
ENDBRANCH  20  21
BRANCH  20  26
ATOM     26  N   UNL     1       0.647   1.190   7.218  0.00  0.00    +0.384 N 
ATOM     27  C   UNL     1       0.494   2.070   8.384  0.00  0.00    -0.096 C 
ATOM     28  C   UNL     1       1.910   0.448   7.326  0.00  0.00    -0.096 C 
ATOM     29  H   UNL     1       0.654   1.746   6.376  0.00  0.00    -0.082 HD
ENDBRANCH  20  26
ENDBRANCH  19  20
ENDBRANCH   4  19
TORSDOF 6
