REMARK  Name = ZINC41036916
REMARK  5 active torsions:
REMARK  status: ('A' for Active; 'I' for Inactive)
REMARK    1  A    between atoms: C_1  and  C_2
REMARK    2  A    between atoms: C_7  and  C_9
REMARK    3  A    between atoms: C_7  and  N_19
REMARK    4  A    between atoms: C_9  and  O_11
REMARK    5  A    between atoms: O_11  and  C_12
REMARK                            x       y       z     vdW  Elec       q    Type
REMARK                         _______ _______ _______ _____ _____    ______ ____
ROOT
ATOM      1  C   UNL     1      -0.019   1.526   0.010  0.00  0.00    +0.007 C 
ATOM      2  C   UNL     1       0.002  -0.004   0.002  0.00  0.00    -0.015 C 
ATOM      3  C   UNL     1      -1.433  -0.534   0.013  0.00  0.00    +0.003 C 
ATOM      4  C   UNL     1      -1.413  -2.063   0.004  0.00  0.00    -0.001 C 
ATOM      5  C   UNL     1      -0.673  -2.570   1.244  0.00  0.00    -0.002 C 
ATOM      6  C   UNL     1       0.763  -2.041   1.233  0.00  0.00    +0.029 C 
ATOM      7  C   UNL     1       0.742  -0.511   1.242  0.00  0.00    +0.001 C 
ENDROOT
BRANCH   6   8
ATOM      8  N   UNL     1       1.450  -2.514   0.025  0.00  0.00    +0.389 N 
ATOM      9  H   UNL     1       0.962  -2.180  -0.793  0.00  0.00    -0.088 HD
ATOM     10  H   UNL     1       2.397  -2.165   0.017  0.00  0.00    -0.088 HD
ATOM     11  H   UNL     1       1.464  -3.523   0.019  0.00  0.00    -0.088 HD
ENDBRANCH   6   8
BRANCH   6  12
ATOM     12  C   UNL     1       1.492  -2.540   2.454  0.00  0.00    +0.296 C 
ATOM     13  O   UNL     1       1.552  -1.852   3.445  0.00  0.00    -0.252 OA
BRANCH  12  14
ATOM     14  O   UNL     1       2.074  -3.749   2.440  0.00  0.00    -0.462 OA
BRANCH  14  15
ATOM     15  C   UNL     1       2.748  -4.158   3.632  0.00  0.00    +0.176 C 
ATOM     16  C   UNL     1       4.199  -3.638   3.590  0.00  0.00    +0.044 C 
ATOM     17  C   UNL     1       4.737  -3.608   4.995  0.00  0.00    +0.004 C 
ATOM     18  C   UNL     1       5.511  -4.890   5.357  0.00  0.00    +0.000 C 
ATOM     19  C   UNL     1       4.822  -6.169   4.844  0.00  0.00    +0.000 C 
ATOM     20  C   UNL     1       3.329  -6.134   5.034  0.00  0.00    +0.004 C 
ATOM     21  C   UNL     1       2.682  -5.609   3.737  0.00  0.00    +0.044 C 
ENDBRANCH  14  15
ENDBRANCH  12  14
ENDBRANCH   6  12
TORSDOF 4
