REMARK  Name = ZINC58034630
REMARK  7 active torsions:
REMARK  status: ('A' for Active; 'I' for Inactive)
REMARK    1  A    between atoms: C_1  and  C_2
REMARK    2  A    between atoms: C_5  and  C_8
REMARK    3  A    between atoms: N_17  and  C_19
REMARK    4  A    between atoms: C_19  and  C_20
REMARK    5  A    between atoms: C_20  and  C_21
REMARK    6  A    between atoms: C_20  and  C_22
REMARK    7  A    between atoms: C_20  and  N_23
REMARK                            x       y       z     vdW  Elec       q    Type
REMARK                         _______ _______ _______ _____ _____    ______ ____
ROOT
ATOM      1  C   UNL     1       0.058  -4.254  -0.021  0.00  0.00    +0.099 A 
ATOM      2  C   UNL     1       0.179  -4.996   1.242  0.00  0.00    +0.015 A 
ATOM      3  C   UNL     1       0.278  -4.345   2.470  0.00  0.00    +0.011 A 
ATOM      4  C   UNL     1       0.389  -5.085   3.626  0.00  0.00    +0.001 A 
ATOM      5  C   UNL     1       0.404  -6.473   3.581  0.00  0.00    +0.001 A 
ATOM      6  C   UNL     1       0.308  -7.138   2.378  0.00  0.00    +0.014 A 
ATOM      7  C   UNL     1       0.194  -6.408   1.196  0.00  0.00    +0.050 A 
ATOM      8  C   UNL     1       0.087  -7.063  -0.114  0.00  0.00    +0.275 A 
ATOM      9  O   UNL     1       0.095  -8.278  -0.200  0.00  0.00    -0.266 OA
ATOM     10  N   UNL     1      -0.021  -6.298  -1.220  0.00  0.00    -0.230 N 
ATOM     11  N   UNL     1      -0.038  -4.905  -1.152  0.00  0.00    -0.168 NA
ENDROOT
BRANCH   1  16
ATOM     12  C   UNL     1      -0.018   1.503   0.012  0.00  0.00    +0.044 C 
ATOM     13  C   UNL     1       0.003  -0.004   0.003  0.00  0.00    -0.050 A 
ATOM     14  C   UNL     1      -0.849  -0.699  -0.837  0.00  0.00    +0.004 A 
ATOM     15  C   UNL     1      -0.835  -2.079  -0.850  0.00  0.00    +0.010 A 
ATOM     16  C   UNL     1       0.039  -2.773  -0.013  0.00  0.00    +0.003 A 
ATOM     17  C   UNL     1       0.895  -2.066   0.831  0.00  0.00    +0.010 A 
ATOM     18  C   UNL     1       0.876  -0.686   0.831  0.00  0.00    +0.004 A 
ENDBRANCH   1  16
BRANCH  10  19
ATOM     19  C   UNL     1      -0.127  -6.949  -2.528  0.00  0.00    +0.134 C 
BRANCH  19  20
ATOM     20  C   UNL     1      -1.600  -7.195  -2.857  0.00  0.00    -0.057 C 
ATOM     21  C   UNL     1      -2.319  -5.854  -3.013  0.00  0.00    -0.009 C 
ATOM     22  C   UNL     1      -1.706  -7.986  -4.163  0.00  0.00    -0.009 C 
BRANCH  20  23
ATOM     23  N   UNL     1      -2.224  -7.961  -1.769  0.00  0.00    +0.383 N 
ATOM     24  H   UNL     1      -2.154  -7.440  -0.908  0.00  0.00    -0.089 HD
ATOM     25  H   UNL     1      -3.196  -8.123  -1.986  0.00  0.00    -0.089 HD
ATOM     26  H   UNL     1      -1.750  -8.846  -1.666  0.00  0.00    -0.089 HD
ENDBRANCH  20  23
ENDBRANCH  19  20
ENDBRANCH  10  19
TORSDOF 4
