REMARK  Name = ZINC66391475
REMARK  8 active torsions:
REMARK  status: ('A' for Active; 'I' for Inactive)
REMARK    1  A    between atoms: C_1  and  C_2
REMARK    2  A    between atoms: C_2  and  C_4
REMARK    3  A    between atoms: C_2  and  N_12
REMARK    4  A    between atoms: N_12  and  C_13
REMARK    5  A    between atoms: C_13  and  C_15
REMARK    6  A    between atoms: C_13  and  C_16
REMARK    7  A    between atoms: N_21  and  C_22
REMARK    8  A    between atoms: C_22  and  C_23
REMARK                            x       y       z     vdW  Elec       q    Type
REMARK                         _______ _______ _______ _____ _____    ______ ____
ROOT
ATOM      1  C   UNL     1      -1.873  -0.809  -1.301  0.00  0.00    +0.138 C 
ATOM      2  C   UNL     1      -2.445   0.515  -1.812  0.00  0.00    +0.034 C 
ENDROOT
BRANCH   1   3
ATOM      3  C   UNL     1      -2.964  -1.848  -1.268  0.00  0.00    +0.237 C 
ATOM      4  O   UNL     1      -3.265  -2.378  -0.220  0.00  0.00    -0.274 OA
ATOM      5  N   UNL     1      -3.606  -2.187  -2.404  0.00  0.00    -0.239 N 
ATOM      6  C   UNL     1      -4.581  -3.117  -2.374  0.00  0.00    +0.306 C 
ATOM      7  O   UNL     1      -4.883  -3.649  -1.324  0.00  0.00    -0.252 OA
ATOM      8  N   UNL     1      -5.223  -3.457  -3.510  0.00  0.00    -0.291 N 
ATOM      9  H   UNL     1      -3.365  -1.763  -3.242  0.00  0.00    +0.159 HD
ATOM     10  H   UNL     1      -4.983  -3.032  -4.348  0.00  0.00    +0.151 HD
BRANCH   8  11
ATOM     11  C   UNL     1      -6.283  -4.467  -3.478  0.00  0.00    +0.219 C 
BRANCH  11  12
ATOM     12  C   UNL     1      -6.843  -4.664  -4.889  0.00  0.00    +0.405 C 
ATOM     13  F   UNL     1      -5.818  -5.090  -5.741  0.00  0.00    -0.169 F 
ATOM     14  F   UNL     1      -7.855  -5.629  -4.858  0.00  0.00    -0.169 F 
ATOM     15  F   UNL     1      -7.366  -3.454  -5.356  0.00  0.00    -0.169 F 
ENDBRANCH  11  12
ENDBRANCH   8  11
ENDBRANCH   1   3
BRANCH   1  16
ATOM     16  N   UNL     1      -1.337  -0.619   0.053  0.00  0.00    -0.299 NA
ATOM     17  H   UNL     1      -1.376  -1.478   0.581  0.00  0.00    +0.123 HD
BRANCH  16  19
ATOM     18  C   UNL     1       0.355   0.610   1.328  0.00  0.00    +0.029 C 
ATOM     19  C   UNL     1       0.034  -0.093   0.007  0.00  0.00    +0.081 C 
BRANCH  19  20
ATOM     20  C   UNL     1       1.002  -1.228  -0.206  0.00  0.00    -0.029 A 
ATOM     21  C   UNL     1       0.803  -2.435   0.438  0.00  0.00    +0.008 A 
ATOM     22  C   UNL     1       1.689  -3.478   0.243  0.00  0.00    +0.040 A 
ATOM     23  C   UNL     1       2.776  -3.313  -0.598  0.00  0.00    +0.142 A 
ATOM     24  C   UNL     1       2.975  -2.104  -1.243  0.00  0.00    +0.076 A 
ATOM     25  C   UNL     1       2.084  -1.064  -1.050  0.00  0.00    +0.028 A 
ATOM     26 CL   UNL     1       4.338  -1.895  -2.298  0.00  0.00    -0.081 Cl
ATOM     27  F   UNL     1       3.643  -4.332  -0.788  0.00  0.00    -0.204 F 
ENDBRANCH  19  20
ENDBRANCH  16  19
ENDBRANCH   1  16
TORSDOF 6
