REMARK  Name = ZINC32244098
REMARK  14 active torsions:
REMARK  status: ('A' for Active; 'I' for Inactive)
REMARK    1  A    between atoms: C_1  and  C_2
REMARK    2  A    between atoms: C_7  and  C_9
REMARK    3  A    between atoms: C_7  and  C_10
REMARK    4  A    between atoms: N_13  and  C_17
REMARK    5  A    between atoms: C_17  and  C_18
REMARK    6  A    between atoms: N_20  and  C_21
REMARK    7  A    between atoms: C_21  and  C_22
REMARK    8  A    between atoms: C_22  and  N_23
REMARK    9  A    between atoms: N_23  and  C_24
REMARK   10  A    between atoms: N_23  and  C_27
REMARK   11  A    between atoms: C_24  and  C_25
REMARK   12  A    between atoms: C_24  and  C_26
REMARK   13  A    between atoms: C_27  and  C_28
REMARK   14  A    between atoms: C_27  and  C_29
REMARK                            x       y       z     vdW  Elec       q    Type
REMARK                         _______ _______ _______ _____ _____    ______ ____
ROOT
ATOM      1  C   UNL     1      -7.852  -1.775  -4.002  0.00  0.00    +0.007 C 
ATOM      2  C   UNL     1      -7.024  -2.954  -3.481  0.00  0.00    -0.011 C 
ATOM      3  C   UNL     1      -7.720  -4.264  -3.858  0.00  0.00    +0.038 C 
ATOM      4  C   UNL     1      -6.881  -5.444  -3.388  0.00  0.00    +0.113 C 
ATOM      5  C   UNL     1      -6.547  -5.378  -1.911  0.00  0.00    +0.041 C 
ATOM      6  C   UNL     1      -6.095  -4.021  -1.402  0.00  0.00    -0.032 C 
ATOM      7  C   UNL     1      -6.931  -2.875  -1.959  0.00  0.00    +0.009 C 
ATOM      8  C   UNL     1      -4.613  -3.789  -1.714  0.00  0.00    +0.011 C 
ATOM      9  C   UNL     1      -6.249  -4.011   0.135  0.00  0.00    +0.011 C 
ATOM     10  C   UNL     1      -5.650  -5.604  -4.245  0.00  0.00    +0.247 C 
ATOM     11  O   UNL     1      -4.800  -4.778  -4.500  0.00  0.00    -0.273 OA
ATOM     12  N   UNL     1      -5.688  -6.872  -4.710  0.00  0.00    -0.215 N 
ATOM     13  C   UNL     1      -6.829  -7.483  -4.372  0.00  0.00    +0.310 C 
ATOM     14  O   UNL     1      -7.103  -8.625  -4.687  0.00  0.00    -0.252 OA
ATOM     15  N   UNL     1      -7.635  -6.693  -3.643  0.00  0.00    -0.285 N 
ATOM     16  H   UNL     1      -8.533  -6.887  -3.337  0.00  0.00    +0.151 HD
ENDROOT
BRANCH  12  17
ATOM     17  C   UNL     1      -4.614  -7.497  -5.485  0.00  0.00    +0.213 C 
BRANCH  17  18
ATOM     18  C   UNL     1      -3.644  -8.170  -4.548  0.00  0.00    +0.231 C 
ATOM     19  O   UNL     1      -3.833  -8.132  -3.351  0.00  0.00    -0.274 OA
ATOM     20  N   UNL     1      -2.568  -8.815  -5.041  0.00  0.00    -0.316 N 
ATOM     21  H   UNL     1      -2.418  -8.845  -5.999  0.00  0.00    +0.149 HD
BRANCH  20  22
ATOM     22  C   UNL     1      -1.626  -9.469  -4.131  0.00  0.00    +0.086 C 
BRANCH  22  23
ATOM     23  C   UNL     1      -0.504 -10.121  -4.941  0.00  0.00    -0.059 C 
BRANCH  23  24
ATOM     24  N   UNL     1       0.385 -10.864  -4.037  0.00  0.00    +0.384 N 
ATOM     25  H   UNL     1      -0.169 -11.367  -3.360  0.00  0.00    -0.081 HD
BRANCH  24  26
ATOM     26  C   UNL     1       1.191 -11.815  -4.814  0.00  0.00    -0.074 C 
ATOM     27  C   UNL     1       2.229 -12.469  -3.901  0.00  0.00    -0.014 C 
ATOM     28  C   UNL     1       0.280 -12.892  -5.405  0.00  0.00    -0.014 C 
ENDBRANCH  24  26
BRANCH  24  29
ATOM     29  C   UNL     1       1.273  -9.923  -3.341  0.00  0.00    -0.074 C 
ATOM     30  C   UNL     1       1.904  -8.970  -4.358  0.00  0.00    -0.014 C 
ATOM     31  C   UNL     1       0.465  -9.118  -2.321  0.00  0.00    -0.014 C 
ENDBRANCH  24  29
ENDBRANCH  23  24
ENDBRANCH  22  23
ENDBRANCH  20  22
ENDBRANCH  17  18
ENDBRANCH  12  17
TORSDOF 7
