REMARK  Name = ZINC41080279
REMARK  4 active torsions:
REMARK  status: ('A' for Active; 'I' for Inactive)
REMARK    1  A    between atoms: C_3  and  S_11
REMARK    2  A    between atoms: C_4  and  C_8
REMARK    3  A    between atoms: C_6  and  N_7
REMARK    4  A    between atoms: S_11  and  C_12
REMARK                            x       y       z     vdW  Elec       q    Type
REMARK                         _______ _______ _______ _____ _____    ______ ____
ROOT
ATOM      1  C   UNL     1       0.703   0.207   1.181  0.00  0.00    +0.024 A 
ATOM      2  C   UNL     1       1.883   0.921   1.174  0.00  0.00    +0.018 A 
ATOM      3  C   UNL     1       2.382   1.433  -0.017  0.00  0.00    +0.028 A 
ATOM      4  C   UNL     1       1.682   1.221  -1.215  0.00  0.00    +0.052 A 
ATOM      5  C   UNL     1       0.487   0.497  -1.198  0.00  0.00    +0.037 A 
ATOM      6  C   UNL     1       0.003  -0.006  -0.003  0.00  0.00    +0.025 A 
ENDROOT
BRANCH   4   7
ATOM      7  C   UNL     1       2.203   1.761  -2.484  0.00  0.00    +0.243 C 
ATOM      8  O   UNL     1       3.243   2.391  -2.495  0.00  0.00    -0.270 OA
ATOM      9  N   UNL     1       1.528   1.555  -3.632  0.00  0.00    -0.325 N 
ATOM     10  H   UNL     1       0.699   1.052  -3.623  0.00  0.00    +0.145 HD
ATOM     11  H   UNL     1       1.871   1.911  -4.467  0.00  0.00    +0.145 HD
ENDBRANCH   4   7
BRANCH   6  12
ATOM     12  N   UNL     1      -1.193  -0.732   0.015  0.00  0.00    -0.358 N 
ATOM     13  H   UNL     1      -1.534  -1.086   0.851  0.00  0.00    +0.142 HD
ATOM     14  H   UNL     1      -1.682  -0.882  -0.810  0.00  0.00    +0.142 HD
ENDBRANCH   6  12
BRANCH   3  15
ATOM     15  S   UNL     1       3.889   2.345  -0.024  0.00  0.00    -0.049 S 
BRANCH  15  16
ATOM     16  C   UNL     1       3.371   4.024  -0.159  0.00  0.00    +0.196 A 
ATOM     17  N   UNL     1       2.133   4.466  -0.136  0.00  0.00    -0.122 NA
ATOM     18  N   UNL     1       2.124   5.748  -0.253  0.00  0.00    -0.134 NA
ATOM     19  C   UNL     1       3.342   6.193  -0.353  0.00  0.00    +0.134 A 
ATOM     20  N   UNL     1       4.175   5.112  -0.303  0.00  0.00    -0.306 N 
ATOM     21  C   UNL     1       5.635   5.134  -0.403  0.00  0.00    +0.125 C 
ATOM     22  C   UNL     1       6.159   6.474   0.121  0.00  0.00    +0.022 C 
ATOM     23  C   UNL     1       6.217   7.486  -1.022  0.00  0.00    +0.002 C 
ATOM     24  C   UNL     1       4.826   7.731  -1.596  0.00  0.00    +0.008 C 
ATOM     25  C   UNL     1       3.782   7.628  -0.487  0.00  0.00    +0.076 C 
ENDBRANCH  15  16
ENDBRANCH   3  15
TORSDOF 4
