REMARK  Name = ZINC38762532
REMARK  9 active torsions:
REMARK  status: ('A' for Active; 'I' for Inactive)
REMARK    1  A    between atoms: C_1  and  C_2
REMARK    2  A    between atoms: C_4  and  C_8
REMARK    3  A    between atoms: C_8  and  O_9
REMARK    4  A    between atoms: O_9  and  C_10
REMARK    5  A    between atoms: C_10  and  C_12
REMARK    6  A    between atoms: C_12  and  C_14
REMARK    7  A    between atoms: C_12  and  N_24
REMARK    8  A    between atoms: C_14  and  C_15
REMARK    9  A    between atoms: C_25  and  C_27
REMARK                            x       y       z     vdW  Elec       q    Type
REMARK                         _______ _______ _______ _____ _____    ______ ____
ROOT
ATOM      1  C   UNL     1      -0.450  -2.120   4.868  0.00  0.00    +0.186 C 
ENDROOT
BRANCH   1   2
ATOM      2  N   UNL     1      -1.312  -2.500   5.991  0.00  0.00    -0.298 N 
ATOM      3  C   UNL     1      -1.476  -3.800   6.304  0.00  0.00    +0.251 C 
ATOM      4  O   UNL     1      -0.910  -4.659   5.653  0.00  0.00    -0.270 OA
ATOM      5  H   UNL     1      -1.763  -1.816   6.509  0.00  0.00    +0.150 HD
BRANCH   3   6
ATOM      6  C   UNL     1      -2.338  -4.181   7.427  0.00  0.00    +0.074 A 
ATOM      7  C   UNL     1      -2.634  -5.446   7.912  0.00  0.00    +0.021 A 
ATOM      8  C   UNL     1      -3.484  -5.487   8.991  0.00  0.00    +0.008 A 
ATOM      9  C   UNL     1      -3.965  -4.324   9.497  0.00  0.00    +0.046 A 
ATOM     10  S   UNL     1      -3.272  -3.138   8.530  0.00  0.00    -0.092 S 
ENDBRANCH   3   6
ENDBRANCH   1   2
BRANCH   1  11
ATOM     11  C   UNL     1      -0.979  -2.735   3.599  0.00  0.00    +0.328 C 
ATOM     12  O   UNL     1      -1.725  -3.685   3.652  0.00  0.00    -0.249 OA
BRANCH  11  13
ATOM     13  O   UNL     1      -0.623  -2.229   2.408  0.00  0.00    -0.459 OA
BRANCH  13  14
ATOM     14  C   UNL     1      -1.162  -2.862   1.246  0.00  0.00    +0.288 C 
BRANCH  14  18
ATOM     15  C   UNL     1      -0.018   1.503   0.010  0.00  0.00    +0.085 C 
ATOM     16  C   UNL     1       0.002  -0.004   0.002  0.00  0.00    +0.100 C 
ATOM     17  N   UNL     1      -1.054  -0.741   0.003  0.00  0.00    -0.344 N 
ATOM     18  C   UNL     1      -0.646  -2.151  -0.007  0.00  0.00    +0.280 C 
ATOM     19  O   UNL     1       0.790  -2.128  -0.015  0.00  0.00    -0.245 OA
ATOM     20  N   UNL     1       1.142  -0.754  -0.013  0.00  0.00    -0.252 N 
ATOM     21  H   UNL     1       2.047  -0.404  -0.020  0.00  0.00    +0.195 HD
ATOM     22  H   UNL     1      -1.968  -0.417   0.010  0.00  0.00    +0.163 HD
ENDBRANCH  14  18
ENDBRANCH  13  14
ENDBRANCH  11  13
ENDBRANCH   1  11
BRANCH   1  23
ATOM     23  C   UNL     1       0.972  -2.622   5.124  0.00  0.00    +0.071 C 
BRANCH  23  24
ATOM     24  C   UNL     1       1.546  -1.914   6.324  0.00  0.00    -0.020 A 
ATOM     25  C   UNL     1       1.368  -2.294   7.728  0.00  0.00    +0.003 A 
ATOM     26  C   UNL     1       0.685  -3.325   8.374  0.00  0.00    +0.010 A 
ATOM     27  C   UNL     1       0.714  -3.408   9.738  0.00  0.00    +0.001 A 
ATOM     28  C   UNL     1       1.417  -2.474  10.486  0.00  0.00    +0.002 A 
ATOM     29  C   UNL     1       2.099  -1.448   9.868  0.00  0.00    +0.026 A 
ATOM     30  C   UNL     1       2.083  -1.345   8.482  0.00  0.00    +0.047 A 
ATOM     31  N   UNL     1       2.649  -0.461   7.590  0.00  0.00    -0.360 N 
ATOM     32  C   UNL     1       2.323  -0.819   6.310  0.00  0.00    +0.087 A 
ATOM     33  H   UNL     1       3.199   0.299   7.833  0.00  0.00    +0.165 HD
ENDBRANCH  23  24
ENDBRANCH   1  23
TORSDOF 8
