REMARK  Name = ZINC19996935
REMARK  4 active torsions:
REMARK  status: ('A' for Active; 'I' for Inactive)
REMARK    1  A    between atoms: C_1  and  O_2
REMARK    2  A    between atoms: O_2  and  C_3
REMARK    3  A    between atoms: C_8  and  N_9
REMARK    4  A    between atoms: C_16  and  N_20
REMARK                            x       y       z     vdW  Elec       q    Type
REMARK                         _______ _______ _______ _____ _____    ______ ____
ROOT
ATOM      1  N   UNL     1      -0.517   3.625   0.026  0.00  0.00    -0.199 N 
ATOM      2  C   UNL     1       0.825   3.535   0.013  0.00  0.00    +0.258 C 
ATOM      3  O   UNL     1       1.599   4.472   0.010  0.00  0.00    -0.269 OA
ATOM      4  C   UNL     1       1.200   2.106   0.002  0.00  0.00    +0.052 A 
ATOM      5  C   UNL     1       2.402   1.421  -0.013  0.00  0.00    +0.014 A 
ATOM      6  C   UNL     1       2.409   0.033  -0.020  0.00  0.00    +0.003 A 
ATOM      7  C   UNL     1       1.227  -0.675  -0.013  0.00  0.00    +0.023 A 
ATOM      8  C   UNL     1       0.002  -0.004   0.002  0.00  0.00    +0.038 A 
ATOM      9  C   UNL     1      -0.017   1.390   0.010  0.00  0.00    +0.070 A 
ATOM     10  C   UNL     1      -1.084   2.405   0.019  0.00  0.00    +0.260 C 
ATOM     11  O   UNL     1      -2.277   2.178   0.023  0.00  0.00    -0.269 OA
ENDROOT
BRANCH   1  17
ATOM     12  C   UNL     1      -1.577   5.427   1.249  0.00  0.00    +0.142 A 
ATOM     13  C   UNL     1      -2.283   6.619   1.256  0.00  0.00    +0.049 A 
ATOM     14  C   UNL     1      -2.643   7.216   0.063  0.00  0.00    +0.024 A 
ATOM     15  C   UNL     1      -2.301   6.626  -1.141  0.00  0.00    +0.043 A 
ATOM     16  C   UNL     1      -1.593   5.439  -1.156  0.00  0.00    +0.047 A 
ATOM     17  C   UNL     1      -1.232   4.832   0.038  0.00  0.00    +0.087 A 
ATOM     18 CL   UNL     1      -2.758   7.381  -2.636  0.00  0.00    -0.083 Cl
BRANCH  12  20
ATOM     19  C   UNL     1      -1.610   5.505   3.626  0.00  0.00    +0.277 C 
ATOM     20  O   UNL     1      -1.222   4.838   2.423  0.00  0.00    -0.493 OA
ENDBRANCH  12  20
ENDBRANCH   1  17
BRANCH   8  21
ATOM     21  N   UNL     1      -1.187  -0.719   0.010  0.00  0.00    -0.357 N 
ATOM     22  H   UNL     1      -2.149  -0.186   0.022  0.00  0.00    +0.142 HD
ATOM     23  H   UNL     1      -1.167  -1.819   0.004  0.00  0.00    +0.142 HD
ENDBRANCH   8  21
TORSDOF 3
