REMARK  Name = ZINC00213798
REMARK  5 active torsions:
REMARK  status: ('A' for Active; 'I' for Inactive)
REMARK    1  A    between atoms: C_1  and  C_2
REMARK    2  A    between atoms: C_5  and  N_12
REMARK    3  A    between atoms: C_8  and  C_10
REMARK    4  A    between atoms: C_8  and  C_11
REMARK    5  A    between atoms: N_12  and  C_13
REMARK                            x       y       z     vdW  Elec       q    Type
REMARK                         _______ _______ _______ _____ _____    ______ ____
ROOT
ATOM      1  N   UNL     1      -0.692   1.552   1.220  0.00  0.00    -0.324 N 
ATOM      2  H   UNL     1      -0.045   1.601   1.981  0.00  0.00    +0.148 HD
ENDROOT
BRANCH   1   3
ATOM      3  C   UNL     1      -1.746   0.846   1.727  0.00  0.00    +0.150 A 
ATOM      4  C   UNL     1      -2.420   1.287   2.872  0.00  0.00    +0.147 A 
ATOM      5  N   UNL     1      -2.292   2.331   3.707  0.00  0.00    -0.231 NA
ATOM      6  C   UNL     1      -3.222   2.235   4.633  0.00  0.00    +0.198 A 
ATOM      7  N   UNL     1      -3.962   1.153   4.434  0.00  0.00    -0.329 N 
ATOM      8  C   UNL     1      -3.514   0.522   3.350  0.00  0.00    +0.163 A 
ATOM      9  N   UNL     1      -3.873  -0.596   2.691  0.00  0.00    -0.216 NA
ATOM     10  C   UNL     1      -3.216  -0.994   1.640  0.00  0.00    +0.225 A 
ATOM     11  N   UNL     1      -2.165  -0.299   1.135  0.00  0.00    -0.219 NA
ATOM     12  H   UNL     1      -4.730   0.859   5.003  0.00  0.00    +0.168 HD
ENDBRANCH   1   3
BRANCH   1  16
ATOM     13  C   UNL     1      -0.755   1.557  -3.724  0.00  0.00    +0.007 C 
ATOM     14  C   UNL     1      -0.015   1.066  -2.478  0.00  0.00    -0.012 C 
ATOM     15  C   UNL     1      -0.739   1.565  -1.226  0.00  0.00    +0.025 C 
ATOM     16  C   UNL     1       0.001   1.074   0.020  0.00  0.00    +0.073 C 
ATOM     17  C   UNL     1       1.433   1.613   0.009  0.00  0.00    +0.028 C 
ATOM     18  C   UNL     1       2.156   1.113  -1.243  0.00  0.00    -0.033 C 
ATOM     19  C   UNL     1       1.417   1.605  -2.489  0.00  0.00    +0.009 C 
ATOM     20  C   UNL     1       3.588   1.652  -1.254  0.00  0.00    +0.011 C 
ATOM     21  C   UNL     1       2.187  -0.416  -1.238  0.00  0.00    +0.011 C 
ENDBRANCH   1  16
TORSDOF 2
