REMARK  Name = ZINC39436201
REMARK  6 active torsions:
REMARK  status: ('A' for Active; 'I' for Inactive)
REMARK    1  A    between atoms: C_2  and  C_3
REMARK    2  A    between atoms: C_3  and  O_4
REMARK    3  A    between atoms: O_4  and  C_5
REMARK    4  A    between atoms: C_10  and  C_11
REMARK    5  A    between atoms: C_12  and  C_13
REMARK    6  A    between atoms: C_12  and  C_15
REMARK                            x       y       z     vdW  Elec       q    Type
REMARK                         _______ _______ _______ _____ _____    ______ ____
ROOT
ATOM      1  C   UNL     1       4.007   2.988   0.235  0.00  0.00    +0.030 C 
ATOM      2  C   UNL     1       5.187   3.533  -0.130  0.00  0.00    +0.072 C 
ENDROOT
BRANCH   2   3
ATOM      3  C   UNL     1       5.360   5.030  -0.124  0.00  0.00    +0.216 C 
ATOM      4  N   UNL     1       5.942   5.475  -1.397  0.00  0.00    -0.359 N 
ATOM      5  C   UNL     1       7.077   6.051  -1.126  0.00  0.00    +0.060 A 
ATOM      6  C   UNL     1       8.101   6.686  -1.968  0.00  0.00    +0.027 A 
ATOM      7  C   UNL     1       9.202   7.211  -1.394  0.00  0.00    +0.002 A 
ATOM      8  C   UNL     1       9.421   7.179  -0.005  0.00  0.00    +0.002 A 
ATOM      9  C   UNL     1       8.547   6.622   0.857  0.00  0.00    +0.027 A 
ATOM     10  C   UNL     1       7.309   6.018   0.344  0.00  0.00    +0.060 A 
ATOM     11  N   UNL     1       6.308   5.423   0.925  0.00  0.00    -0.359 N 
ATOM     12  H   UNL     1       5.552   5.361  -2.277  0.00  0.00    +0.162 HD
ATOM     13  H   UNL     1       6.207   5.269   1.878  0.00  0.00    +0.162 HD
ENDBRANCH   2   3
BRANCH   1  19
ATOM     14  C   UNL     1       1.614   3.663   0.390  0.00  0.00    +0.129 A 
ATOM     15  C   UNL     1       0.622   4.467   0.928  0.00  0.00    +0.047 A 
ATOM     16  C   UNL     1       0.944   5.441   1.852  0.00  0.00    +0.019 A 
ATOM     17  C   UNL     1       2.259   5.623   2.251  0.00  0.00    +0.019 A 
ATOM     18  C   UNL     1       3.260   4.833   1.727  0.00  0.00    +0.026 A 
ATOM     19  C   UNL     1       2.946   3.839   0.794  0.00  0.00    +0.019 A 
ATOM     20 BR   UNL     1       2.682   6.962   3.517  0.00  0.00    -0.050 Br
BRANCH  14  21
ATOM     21  O   UNL     1       1.298   2.706  -0.519  0.00  0.00    -0.479 OA
BRANCH  21  22
ATOM     22  C   UNL     1      -0.079   2.585  -0.882  0.00  0.00    +0.317 C 
BRANCH  22  24
ATOM     23  C   UNL     1      -0.356   0.644  -2.658  0.00  0.00    +0.007 C 
ATOM     24  C   UNL     1      -0.233   1.505  -1.870  0.00  0.00    -0.065 C 
ENDBRANCH  22  24
ENDBRANCH  21  22
ENDBRANCH  14  21
ENDBRANCH   1  19
BRANCH   2  25
ATOM     25  C   UNL     1       6.274   2.688  -0.524  0.00  0.00    +0.099 C 
ATOM     26  N   UNL     1       7.136   2.018  -0.836  0.00  0.00    -0.191 NA
ENDBRANCH   2  25
TORSDOF 6
