REMARK  Name = ZINC62351682
REMARK  7 active torsions:
REMARK  status: ('A' for Active; 'I' for Inactive)
REMARK    1  A    between atoms: C_6  and  C_7
REMARK    2  A    between atoms: C_7  and  C_9
REMARK    3  A    between atoms: C_7  and  O_20
REMARK    4  A    between atoms: C_9  and  N_10
REMARK    5  A    between atoms: C_15  and  C_17
REMARK    6  A    between atoms: C_17  and  C_18
REMARK    7  A    between atoms: C_18  and  O_19
REMARK                            x       y       z     vdW  Elec       q    Type
REMARK                         _______ _______ _______ _____ _____    ______ ____
ROOT
ATOM      1  C   UNL     1      -1.768  -0.638  -0.276  0.00  0.00    +0.128 C 
ENDROOT
BRANCH   1   7
ATOM      2  C   UNL     1      -0.598   1.571  -0.384  0.00  0.00    +0.010 A 
ATOM      3  C   UNL     1       0.539   2.337  -0.560  0.00  0.00    +0.050 A 
ATOM      4  C   UNL     1       1.755   1.725  -0.822  0.00  0.00    +0.162 A 
ATOM      5  C   UNL     1       1.828   0.340  -0.905  0.00  0.00    +0.162 A 
ATOM      6  C   UNL     1       0.684  -0.423  -0.727  0.00  0.00    +0.055 A 
ATOM      7  C   UNL     1      -0.526   0.194  -0.468  0.00  0.00    -0.017 A 
ATOM      8  O   UNL     1       3.013  -0.282  -1.153  0.00  0.00    -0.485 OA
ATOM      9  C   UNL     1       4.063   0.528  -1.693  0.00  0.00    +0.270 C 
ATOM     10  C   UNL     1       4.130   1.831  -0.885  0.00  0.00    +0.270 C 
ATOM     11  O   UNL     1       2.865   2.493  -0.998  0.00  0.00    -0.485 OA
ENDBRANCH   1   7
BRANCH   1  12
ATOM     12  O   UNL     1      -2.873   0.002  -0.917  0.00  0.00    -0.389 OA
ATOM     13  H   UNL     1      -3.067   0.887  -0.577  0.00  0.00    +0.210 HD
ENDBRANCH   1  12
BRANCH   1  14
ATOM     14  C   UNL     1      -2.060  -0.782   1.219  0.00  0.00    -0.042 C 
BRANCH  14  15
ATOM     15  N   UNL     1      -3.199  -1.690   1.411  0.00  0.00    +0.384 N 
ATOM     16  C   UNL     1      -2.831  -3.036   0.957  0.00  0.00    -0.078 C 
ATOM     17  C   UNL     1      -4.040  -3.967   1.079  0.00  0.00    -0.019 C 
ATOM     18  C   UNL     1      -4.488  -4.024   2.542  0.00  0.00    -0.003 C 
ATOM     19  C   UNL     1      -4.797  -2.605   3.026  0.00  0.00    -0.015 C 
ATOM     20  C   UNL     1      -3.561  -1.724   2.833  0.00  0.00    -0.066 C 
ATOM     21  H   UNL     1      -3.985  -1.359   0.872  0.00  0.00    -0.081 HD
BRANCH  20  22
ATOM     22  C   UNL     1      -3.865  -0.305   3.316  0.00  0.00    +0.012 C 
BRANCH  22  23
ATOM     23  C   UNL     1      -4.179  -0.332   4.813  0.00  0.00    +0.154 C 
BRANCH  23  24
ATOM     24  O   UNL     1      -4.562   0.976   5.243  0.00  0.00    -0.395 OA
ATOM     25  H   UNL     1      -4.776   1.033   6.184  0.00  0.00    +0.209 HD
ENDBRANCH  23  24
ENDBRANCH  22  23
ENDBRANCH  20  22
ENDBRANCH  14  15
ENDBRANCH   1  14
TORSDOF 7
