REMARK  Name = ZINC65322510
REMARK  5 active torsions:
REMARK  status: ('A' for Active; 'I' for Inactive)
REMARK    1  A    between atoms: C_1  and  C_2
REMARK    2  A    between atoms: C_2  and  N_3
REMARK    3  A    between atoms: C_5  and  C_12
REMARK    4  A    between atoms: N_23  and  C_26
REMARK    5  A    between atoms: C_26  and  C_27
REMARK                            x       y       z     vdW  Elec       q    Type
REMARK                         _______ _______ _______ _____ _____    ______ ____
ROOT
ATOM      1  C   UNL     1      -4.369  -1.781   1.734  0.00  0.00    +0.110 C 
ATOM      2  C   UNL     1      -4.296  -3.317   1.910  0.00  0.00    +0.077 C 
ATOM      3  C   UNL     1      -4.627  -3.488   3.382  0.00  0.00    +0.038 C 
ATOM      4  N   UNL     1      -4.518  -2.284   3.974  0.00  0.00    -0.283 N 
ATOM      5  N   UNL     1      -4.121  -1.303   3.114  0.00  0.00    -0.235 NA
ATOM      6  C   UNL     1      -4.979  -4.672   4.005  0.00  0.00    +0.119 C 
ATOM      7  C   UNL     1      -5.064  -5.943   3.257  0.00  0.00    +0.278 C 
ATOM      8  N   UNL     1      -5.412  -7.055   3.925  0.00  0.00    -0.123 NA
ATOM      9  C   UNL     1      -5.675  -7.039   5.208  0.00  0.00    +0.336 C 
ATOM     10  O   UNL     1      -6.017  -8.199   5.801  0.00  0.00    -0.250 OA
ATOM     11  N   UNL     1      -5.623  -5.918   5.974  0.00  0.00    -0.216 N 
ATOM     12  C   UNL     1      -5.282  -4.724   5.444  0.00  0.00    +0.261 C 
ATOM     13  O   UNL     1      -5.230  -3.723   6.134  0.00  0.00    -0.269 OA
ATOM     14  O   UNL     1      -4.824  -5.982   2.062  0.00  0.00    -0.268 OA
ATOM     15  H   UNL     1      -3.147  -1.077   3.248  0.00  0.00    +0.145 HD
ATOM     16  H   UNL     1      -4.703  -2.130   4.913  0.00  0.00    +0.166 HD
ENDROOT
BRANCH   1  19
ATOM     17  N   UNL     1      -1.372  -0.511   0.012  0.00  0.00    -0.347 N 
ATOM     18  C   UNL     1      -2.067  -0.875   1.133  0.00  0.00    +0.092 A 
ATOM     19  C   UNL     1      -3.296  -1.295   0.794  0.00  0.00    -0.003 A 
ATOM     20  C   UNL     1      -3.397  -1.191  -0.664  0.00  0.00    +0.005 A 
ATOM     21  C   UNL     1      -2.159  -0.687  -1.104  0.00  0.00    +0.049 A 
ATOM     22  C   UNL     1      -1.955  -0.473  -2.463  0.00  0.00    +0.026 A 
ATOM     23  C   UNL     1      -2.963  -0.753  -3.359  0.00  0.00    +0.002 A 
ATOM     24  C   UNL     1      -4.183  -1.247  -2.920  0.00  0.00    +0.001 A 
ATOM     25  C   UNL     1      -4.403  -1.473  -1.590  0.00  0.00    +0.010 A 
BRANCH  17  27
ATOM     26  C   UNL     1      -0.019   1.526   0.010  0.00  0.00    +0.027 C 
ATOM     27  C   UNL     1       0.002  -0.004   0.002  0.00  0.00    +0.118 C 
ENDBRANCH  17  27
ENDBRANCH   1  19
BRANCH  11  28
ATOM     28  C   UNL     1      -5.936  -6.009   7.402  0.00  0.00    +0.153 C 
BRANCH  28  29
ATOM     29  C   UNL     1      -4.675  -6.298   8.176  0.00  0.00    -0.030 A 
ATOM     30  C   UNL     1      -4.291  -7.605   8.408  0.00  0.00    +0.005 A 
ATOM     31  C   UNL     1      -3.134  -7.871   9.117  0.00  0.00    +0.000 A 
ATOM     32  C   UNL     1      -2.361  -6.828   9.594  0.00  0.00    +0.000 A 
ATOM     33  C   UNL     1      -2.745  -5.521   9.361  0.00  0.00    +0.000 A 
ATOM     34  C   UNL     1      -3.899  -5.256   8.648  0.00  0.00    +0.005 A 
ENDBRANCH  28  29
ENDBRANCH  11  28
TORSDOF 4
