REMARK  Name = ZINC49150077
REMARK  8 active torsions:
REMARK  status: ('A' for Active; 'I' for Inactive)
REMARK    1  A    between atoms: C_1  and  C_2
REMARK    2  A    between atoms: C_2  and  C_3
REMARK    3  A    between atoms: C_4  and  C_21
REMARK    4  A    between atoms: N_8  and  S_9
REMARK    5  A    between atoms: S_9  and  C_12
REMARK    6  A    between atoms: C_14  and  N_20
REMARK    7  A    between atoms: C_16  and  C_19
REMARK    8  A    between atoms: C_17  and  C_18
REMARK                            x       y       z     vdW  Elec       q    Type
REMARK                         _______ _______ _______ _____ _____    ______ ____
ROOT
ATOM      1  S   UNL     1       1.268  -1.814  -5.918  0.00  0.00    +0.101 S 
ATOM      2  O   UNL     1       2.220  -0.783  -6.141  0.00  0.00    -0.146 OA
ATOM      3  O   UNL     1       1.646  -3.132  -5.545  0.00  0.00    -0.146 OA
ENDROOT
BRANCH   1   9
ATOM      4  C   UNL     1       0.707  -0.490  -1.238  0.00  0.00    +0.027 A 
ATOM      5  C   UNL     1       2.004  -0.794  -1.188  0.00  0.00    +0.009 A 
ATOM      6  S   UNL     1       2.336  -1.301  -2.868  0.00  0.00    -0.053 S 
ATOM      7  C   UNL     1       0.690  -1.065  -3.523  0.00  0.00    +0.192 A 
ATOM      8  N   UNL     1       0.015  -0.623  -2.406  0.00  0.00    -0.336 N 
ATOM      9  N   UNL     1       0.244  -1.265  -4.739  0.00  0.00    -0.103 NA
ATOM     10  C   UNL     1       2.949  -0.726  -0.016  0.00  0.00    +0.053 C 
ATOM     11  H   UNL     1      -0.929  -0.408  -2.450  0.00  0.00    +0.168 HD
BRANCH   4  13
ATOM     12  C   UNL     1      -0.019   1.526   0.010  0.00  0.00    +0.010 C 
ATOM     13  C   UNL     1       0.002  -0.004   0.002  0.00  0.00    +0.050 C 
ENDBRANCH   4  13
ENDBRANCH   1   9
BRANCH   1  14
ATOM     14  C   UNL     1       0.327  -1.960  -7.400  0.00  0.00    +0.117 A 
ATOM     15  C   UNL     1       0.623  -1.161  -8.487  0.00  0.00    +0.052 A 
ATOM     16  C   UNL     1      -0.119  -1.277  -9.655  0.00  0.00    +0.027 A 
ATOM     17  C   UNL     1      -1.158  -2.197  -9.726  0.00  0.00    +0.026 A 
ATOM     18  C   UNL     1      -1.449  -2.993  -8.635  0.00  0.00    -0.044 A 
ATOM     19  C   UNL     1      -0.704  -2.878  -7.475  0.00  0.00    -0.021 A 
ATOM     20  C   UNL     1      -1.020  -3.753  -6.290  0.00  0.00    +0.046 C 
ATOM     21  C   UNL     1      -2.575  -3.991  -8.711  0.00  0.00    +0.044 C 
BRANCH  16  22
ATOM     22  N   UNL     1       0.178  -0.471 -10.756  0.00  0.00    -0.358 N 
ATOM     23  H   UNL     1       0.903   0.172 -10.705  0.00  0.00    +0.142 HD
ATOM     24  H   UNL     1      -0.342  -0.552 -11.571  0.00  0.00    +0.142 HD
ENDBRANCH  16  22
ENDBRANCH   1  14
TORSDOF 4
