REMARK  Name = ZINC39624496
REMARK  7 active torsions:
REMARK  status: ('A' for Active; 'I' for Inactive)
REMARK    1  A    between atoms: C_1  and  C_2
REMARK    2  A    between atoms: C_2  and  C_3
REMARK    3  A    between atoms: C_2  and  C_4
REMARK    4  A    between atoms: C_4  and  N_5
REMARK    5  A    between atoms: C_6  and  C_8
REMARK    6  A    between atoms: C_19  and  C_21
REMARK    7  A    between atoms: N_25  and  C_26
REMARK                            x       y       z     vdW  Elec       q    Type
REMARK                         _______ _______ _______ _____ _____    ______ ____
ROOT
ATOM      1  C   UNL     1      -3.990   0.340  -3.644  0.00  0.00    +0.100 C 
ATOM      2  C   UNL     1      -3.303  -0.525  -4.725  0.00  0.00    +0.121 C 
ATOM      3  N   UNL     1      -3.968  -1.846  -4.626  0.00  0.00    -0.295 N 
ATOM      4  C   UNL     1      -5.395  -1.522  -4.388  0.00  0.00    +0.115 C 
ATOM      5  C   UNL     1      -5.364  -0.316  -3.428  0.00  0.00    -0.004 C 
ATOM      6  C   UNL     1      -6.479   0.666  -3.778  0.00  0.00    -0.010 C 
ATOM      7  C   UNL     1      -7.835   0.011  -3.500  0.00  0.00    -0.082 C 
ATOM      8  N   UNL     1      -7.916  -0.368  -2.084  0.00  0.00    +0.379 N 
ATOM      9  C   UNL     1      -6.900  -1.383  -1.779  0.00  0.00    -0.082 C 
ATOM     10  C   UNL     1      -5.504  -0.787  -1.984  0.00  0.00    -0.010 C 
ATOM     11  C   UNL     1      -3.404  -3.065  -4.731  0.00  0.00    +0.263 C 
ATOM     12  O   UNL     1      -4.106  -4.055  -4.818  0.00  0.00    -0.268 OA
ATOM     13  H   UNL     1      -7.760   0.446  -1.509  0.00  0.00    -0.086 HD
ATOM     14  H   UNL     1      -8.832  -0.743  -1.890  0.00  0.00    -0.086 HD
ENDROOT
BRANCH  11  15
ATOM     15  C   UNL     1      -1.943  -3.199  -4.738  0.00  0.00    +0.104 A 
ATOM     16  C   UNL     1      -1.036  -2.256  -4.304  0.00  0.00    +0.032 A 
ATOM     17  C   UNL     1       0.240  -2.796  -4.491  0.00  0.00    +0.020 A 
ATOM     18  C   UNL     1       0.093  -4.032  -5.025  0.00  0.00    +0.086 A 
ATOM     19  N   UNL     1      -1.228  -4.291  -5.175  0.00  0.00    -0.346 N 
ATOM     20  C   UNL     1      -1.801  -5.527  -5.715  0.00  0.00    +0.149 C 
ENDBRANCH  11  15
BRANCH   1  22
ATOM     21  N   UNL     1      -3.200   1.385  -1.546  0.00  0.00    -0.315 N 
ATOM     22  C   UNL     1      -3.191   0.316  -2.367  0.00  0.00    +0.218 C 
ATOM     23  O   UNL     1      -2.539  -0.666  -2.077  0.00  0.00    -0.275 OA
ATOM     24  H   UNL     1      -3.720   2.170  -1.778  0.00  0.00    +0.149 HD
BRANCH  21  25
ATOM     25  C   UNL     1      -2.423   1.361  -0.304  0.00  0.00    +0.107 C 
BRANCH  25  27
ATOM     26  C   UNL     1      -4.064   2.831   0.874  0.00  0.00    +0.009 C 
ATOM     27  C   UNL     1      -2.605   2.688   0.436  0.00  0.00    -0.000 C 
ATOM     28  C   UNL     1      -1.698   2.713   1.668  0.00  0.00    +0.009 C 
ENDBRANCH  25  27
ENDBRANCH  21  25
ENDBRANCH   1  22
TORSDOF 4
