REMARK  Name = ZINC49563747
REMARK  6 active torsions:
REMARK  status: ('A' for Active; 'I' for Inactive)
REMARK    1  A    between atoms: C_1  and  O_2
REMARK    2  A    between atoms: O_2  and  C_3
REMARK    3  A    between atoms: C_8  and  N_9
REMARK    4  A    between atoms: N_9  and  S_10
REMARK    5  A    between atoms: S_10  and  C_13
REMARK    6  A    between atoms: C_18  and  N_19
REMARK                            x       y       z     vdW  Elec       q    Type
REMARK                         _______ _______ _______ _____ _____    ______ ____
ROOT
ATOM      1  S   UNL     1       0.731  -4.330   0.276  0.00  0.00    +0.074 S 
ATOM      2  O   UNL     1      -0.045  -5.018   1.247  0.00  0.00    -0.150 OA
ATOM      3  O   UNL     1       0.988  -4.867  -1.015  0.00  0.00    -0.150 OA
ENDROOT
BRANCH   1   4
ATOM      4  C   UNL     1       2.300  -4.019   1.014  0.00  0.00    +0.130 A 
ATOM      5  C   UNL     1       3.459  -4.347   0.338  0.00  0.00    +0.050 A 
ATOM      6  C   UNL     1       4.692  -4.103   0.916  0.00  0.00    +0.043 A 
ATOM      7  C   UNL     1       4.768  -3.529   2.174  0.00  0.00    +0.022 A 
ATOM      8  C   UNL     1       3.612  -3.199   2.854  0.00  0.00    +0.026 A 
ATOM      9  C   UNL     1       2.373  -3.438   2.273  0.00  0.00    +0.052 A 
ATOM     10 CL   UNL     1       6.147  -4.516   0.064  0.00  0.00    -0.083 Cl
BRANCH   9  11
ATOM     11  N   UNL     1       1.202  -3.099   2.957  0.00  0.00    -0.356 N 
ATOM     12  H   UNL     1       0.342  -3.181   2.515  0.00  0.00    +0.142 HD
ATOM     13  H   UNL     1       1.250  -2.783   3.872  0.00  0.00    +0.142 HD
ENDBRANCH   9  11
ENDBRANCH   1   4
BRANCH   1  14
ATOM     14  N   UNL     1       0.001  -2.862   0.040  0.00  0.00    -0.213 N 
ATOM     15  H   UNL     1      -0.848  -2.668   0.468  0.00  0.00    +0.174 HD
BRANCH  14  21
ATOM     16  C   UNL     1       0.501  -0.548  -0.463  0.00  0.00    +0.145 A 
ATOM     17  C   UNL     1       1.109   0.399  -1.271  0.00  0.00    +0.086 A 
ATOM     18  C   UNL     1       1.817   0.000  -2.392  0.00  0.00    +0.127 A 
ATOM     19  C   UNL     1       1.920  -1.344  -2.708  0.00  0.00    +0.040 A 
ATOM     20  C   UNL     1       1.315  -2.293  -1.905  0.00  0.00    +0.031 A 
ATOM     21  C   UNL     1       0.609  -1.901  -0.778  0.00  0.00    +0.090 A 
ATOM     22  F   UNL     1       2.409   0.925  -3.180  0.00  0.00    -0.205 F 
BRANCH  16  24
ATOM     23  C   UNL     1      -0.264   1.245   0.899  0.00  0.00    +0.277 C 
ATOM     24  O   UNL     1      -0.195  -0.158   0.638  0.00  0.00    -0.493 OA
ENDBRANCH  16  24
ENDBRANCH  14  21
ENDBRANCH   1  14
TORSDOF 5
