REMARK  Name = ZINC06244820
REMARK  10 active torsions:
REMARK  status: ('A' for Active; 'I' for Inactive)
REMARK    1  A    between atoms: C_1  and  C_2
REMARK    2  A    between atoms: C_5  and  C_41
REMARK    3  A    between atoms: C_9  and  C_14
REMARK    4  A    between atoms: C_14  and  C_16
REMARK    5  A    between atoms: C_14  and  N_74
REMARK    6  A    between atoms: N_20  and  C_21
REMARK    7  A    between atoms: C_21  and  C_22
REMARK    8  A    between atoms: N_30  and  C_33
REMARK    9  A    between atoms: C_38  and  O_39
REMARK   10  A    between atoms: O_39  and  C_40
REMARK                            x       y       z     vdW  Elec       q    Type
REMARK                         _______ _______ _______ _____ _____    ______ ____
ROOT
ATOM      1  C   UNL     1       2.821   4.777   1.890  0.00  0.00    +0.039 C 
ENDROOT
BRANCH   1  10
ATOM      2  C   UNL     1       5.324   0.543   3.602  0.00  0.00    +0.044 C 
ATOM      3  C   UNL     1       4.581   1.129   4.775  0.00  0.00    -0.041 A 
ATOM      4  C   UNL     1       4.656   0.533   6.003  0.00  0.00    +0.004 A 
ATOM      5  C   UNL     1       3.976   1.065   7.089  0.00  0.00    +0.005 A 
ATOM      6  C   UNL     1       3.212   2.204   6.952  0.00  0.00    -0.026 A 
ATOM      7  C   UNL     1       3.120   2.828   5.713  0.00  0.00    +0.052 A 
ATOM      8  C   UNL     1       3.811   2.285   4.613  0.00  0.00    +0.002 A 
ATOM      9  C   UNL     1       3.709   2.950   3.312  0.00  0.00    +0.018 A 
ATOM     10  C   UNL     1       2.948   4.068   3.214  0.00  0.00    +0.011 A 
ATOM     11  C   UNL     1       2.280   4.575   4.350  0.00  0.00    +0.251 A 
ATOM     12  O   UNL     1       1.606   5.585   4.241  0.00  0.00    -0.268 OA
ATOM     13  N   UNL     1       2.364   3.969   5.547  0.00  0.00    -0.322 N 
ATOM     14  H   UNL     1       1.888   4.341   6.306  0.00  0.00    +0.169 HD
ATOM     15  C   UNL     1       2.478   2.770   8.140  0.00  0.00    +0.046 C 
ENDBRANCH   1  10
BRANCH   1  21
ATOM     16  C   UNL     1       3.099   6.908   0.775  0.00  0.00    -0.058 C 
ATOM     17  C   UNL     1       3.420   8.387   1.001  0.00  0.00    +0.086 C 
ATOM     18  N   UNL     1       4.769   8.512   1.570  0.00  0.00    -0.331 N 
ATOM     19  C   UNL     1       4.868   7.791   2.847  0.00  0.00    +0.086 C 
ATOM     20  C   UNL     1       4.546   6.312   2.621  0.00  0.00    -0.058 C 
ATOM     21  N   UNL     1       3.179   6.200   2.070  0.00  0.00    +0.391 N 
ATOM     22  H   UNL     1       2.518   6.630   2.727  0.00  0.00    -0.080 HD
BRANCH  18  23
ATOM     23  C   UNL     1       5.127   9.856   1.724  0.00  0.00    +0.072 A 
ATOM     24  C   UNL     1       4.178  10.853   1.550  0.00  0.00    +0.027 A 
ATOM     25  C   UNL     1       4.534  12.180   1.702  0.00  0.00    +0.002 A 
ATOM     26  C   UNL     1       5.834  12.517   2.028  0.00  0.00    +0.004 A 
ATOM     27  C   UNL     1       6.786  11.529   2.203  0.00  0.00    +0.047 A 
ATOM     28  C   UNL     1       6.436  10.197   2.058  0.00  0.00    +0.141 A 
BRANCH  28  29
ATOM     29  O   UNL     1       7.370   9.223   2.235  0.00  0.00    -0.493 OA
ATOM     30  C   UNL     1       8.691   9.647   2.576  0.00  0.00    +0.277 C 
ENDBRANCH  28  29
ENDBRANCH  18  23
ENDBRANCH   1  21
BRANCH   1  31
ATOM     31  C   UNL     1       1.397   4.688   1.408  0.00  0.00    +0.143 A 
ATOM     32  N   UNL     1       0.372   5.366   1.865  0.00  0.00    -0.115 NA
ATOM     33  N   UNL     1      -0.670   5.010   1.197  0.00  0.00    -0.023 NA
ATOM     34  N   UNL     1      -0.337   4.126   0.322  0.00  0.00    -0.044 NA
ATOM     35  N   UNL     1       0.929   3.897   0.424  0.00  0.00    -0.228 N 
BRANCH  35  36
ATOM     36  C   UNL     1       1.711   2.957  -0.382  0.00  0.00    +0.178 C 
BRANCH  36  37
ATOM     37  C   UNL     1       1.723   1.587   0.300  0.00  0.00    +0.140 C 
ATOM     38  C   UNL     1       2.555   0.573  -0.526  0.00  0.00    +0.035 C 
ATOM     39  C   UNL     1       1.947  -0.781  -0.085  0.00  0.00    +0.031 C 
ATOM     40  C   UNL     1       0.560  -0.408   0.472  0.00  0.00    +0.160 C 
ATOM     41  O   UNL     1       0.399   1.010   0.305  0.00  0.00    -0.375 OA
ENDBRANCH  36  37
ENDBRANCH  35  36
ENDBRANCH   1  31
TORSDOF 7
