REMARK  Name = ZINC63234450
REMARK  3 active torsions:
REMARK  status: ('A' for Active; 'I' for Inactive)
REMARK    1  A    between atoms: C_6  and  C_7
REMARK    2  A    between atoms: C_7  and  S_8
REMARK    3  A    between atoms: S_8  and  C_9
REMARK                            x       y       z     vdW  Elec       q    Type
REMARK                         _______ _______ _______ _____ _____    ______ ____
ROOT
ATOM      1  C   UNL     1      -3.379  -1.999  -1.513  0.00  0.00    +0.236 C 
ATOM      2  N   UNL     1      -3.146  -3.227  -0.742  0.00  0.00    -0.355 N 
ATOM      3  C   UNL     1      -3.881  -3.162   0.330  0.00  0.00    +0.061 A 
ATOM      4  C   UNL     1      -4.074  -4.074   1.466  0.00  0.00    +0.029 A 
ATOM      5  C   UNL     1      -4.922  -3.733   2.456  0.00  0.00    +0.022 A 
ATOM      6  C   UNL     1      -5.644  -2.525   2.454  0.00  0.00    +0.043 A 
ATOM      7  C   UNL     1      -5.539  -1.617   1.460  0.00  0.00    +0.047 A 
ATOM      8  C   UNL     1      -4.644  -1.884   0.327  0.00  0.00    +0.062 A 
ATOM      9  N   UNL     1      -4.351  -1.208  -0.748  0.00  0.00    -0.355 N 
ATOM     10 CL   UNL     1      -6.709  -2.187   3.783  0.00  0.00    -0.083 Cl
ATOM     11  H   UNL     1      -2.552  -3.954  -0.987  0.00  0.00    +0.162 HD
ATOM     12  H   UNL     1      -4.708  -0.341  -0.997  0.00  0.00    +0.162 HD
ENDROOT
BRANCH   1  13
ATOM     13  S   UNL     1      -1.829  -1.075  -1.696  0.00  0.00    -0.110 S 
BRANCH  13  14
ATOM     14  C   UNL     1      -1.293  -0.775   0.011  0.00  0.00    +0.108 C 
BRANCH  14  20
ATOM     15  C   UNL     1      -0.017   1.378   0.010  0.00  0.00    +0.006 A 
ATOM     16  C   UNL     1       1.171   2.086   0.002  0.00  0.00    +0.022 A 
ATOM     17  C   UNL     1       2.378   1.412  -0.013  0.00  0.00    +0.059 A 
ATOM     18  C   UNL     1       2.397   0.027  -0.021  0.00  0.00    +0.060 A 
ATOM     19  C   UNL     1       1.208  -0.680  -0.013  0.00  0.00    +0.026 A 
ATOM     20  C   UNL     1       0.002  -0.004   0.002  0.00  0.00    -0.036 A 
ATOM     21 CL   UNL     1       3.912  -0.821  -0.040  0.00  0.00    -0.082 Cl
ATOM     22 CL   UNL     1       3.869   2.301  -0.023  0.00  0.00    -0.082 Cl
ENDBRANCH  14  20
ENDBRANCH  13  14
ENDBRANCH   1  13
TORSDOF 3
