REMARK  Name = ZINC40781154
REMARK  4 active torsions:
REMARK  status: ('A' for Active; 'I' for Inactive)
REMARK    1  A    between atoms: C_4  and  N_7
REMARK    2  A    between atoms: C_9  and  N_25
REMARK    3  A    between atoms: C_10  and  S_14
REMARK    4  A    between atoms: S_14  and  C_15
REMARK                            x       y       z     vdW  Elec       q    Type
REMARK                         _______ _______ _______ _____ _____    ______ ____
ROOT
ATOM      1  N   UNL     1       3.590  -0.650   0.279  0.00  0.00    -0.298 N 
ATOM      2  C   UNL     1       3.624  -2.038   0.339  0.00  0.00    +0.148 A 
ATOM      3  C   UNL     1       4.843  -2.720   0.326  0.00  0.00    +0.098 A 
ATOM      4  C   UNL     1       4.819  -4.114   0.389  0.00  0.00    +0.127 A 
ATOM      5  N   UNL     1       3.643  -4.737   0.458  0.00  0.00    -0.227 NA
ATOM      6  C   UNL     1       2.516  -4.056   0.467  0.00  0.00    +0.224 A 
ATOM      7  N   UNL     1       2.494  -2.739   0.415  0.00  0.00    -0.219 NA
ATOM      8  H   UNL     1       4.412  -0.150   0.150  0.00  0.00    +0.154 HD
ENDROOT
BRANCH   1  12
ATOM      9  C   UNL     1      -0.035   1.365   0.657  0.00  0.00    +0.000 A 
ATOM     10  C   UNL     1       0.171   0.181   1.341  0.00  0.00    +0.002 A 
ATOM     11  C   UNL     1       1.372  -0.490   1.218  0.00  0.00    +0.023 A 
ATOM     12  C   UNL     1       2.374   0.026   0.406  0.00  0.00    +0.032 A 
ATOM     13  C   UNL     1       2.164   1.216  -0.280  0.00  0.00    +0.023 A 
ATOM     14  C   UNL     1       0.961   1.882  -0.152  0.00  0.00    +0.002 A 
ENDBRANCH   1  12
BRANCH   3  15
ATOM     15  N   UNL     1       6.058  -2.022   0.252  0.00  0.00    -0.353 N 
ATOM     16  H   UNL     1       6.059  -1.053   0.209  0.00  0.00    +0.142 HD
ATOM     17  H   UNL     1       6.897  -2.508   0.244  0.00  0.00    +0.142 HD
ENDBRANCH   3  15
BRANCH   4  18
ATOM     18  S   UNL     1       6.320  -5.037   0.376  0.00  0.00    -0.066 S 
BRANCH  18  19
ATOM     19  C   UNL     1       5.789  -6.716   0.323  0.00  0.00    +0.040 A 
ATOM     20  C   UNL     1       5.875  -7.435  -0.850  0.00  0.00    +0.017 A 
ATOM     21  C   UNL     1       5.459  -8.761  -0.905  0.00  0.00    +0.002 A 
ATOM     22  C   UNL     1       4.955  -9.384   0.196  0.00  0.00    +0.010 A 
ATOM     23  C   UNL     1       4.851  -8.686   1.410  0.00  0.00    +0.001 A 
ATOM     24  C   UNL     1       5.276  -7.337   1.483  0.00  0.00    +0.085 A 
ATOM     25  N   UNL     1       5.183  -6.671   2.637  0.00  0.00    -0.254 NA
ATOM     26  C   UNL     1       4.708  -7.243   3.717  0.00  0.00    +0.111 A 
ATOM     27  C   UNL     1       4.277  -8.568   3.717  0.00  0.00    +0.020 A 
ATOM     28  C   UNL     1       4.334  -9.302   2.566  0.00  0.00    +0.011 A 
ENDBRANCH  18  19
ENDBRANCH   4  18
TORSDOF 4
