REMARK  Name = ZINC53474084
REMARK  9 active torsions:
REMARK  status: ('A' for Active; 'I' for Inactive)
REMARK    1  A    between atoms: C_1  and  C_2
REMARK    2  A    between atoms: C_2  and  C_3
REMARK    3  A    between atoms: C_2  and  C_4
REMARK    4  A    between atoms: C_2  and  N_17
REMARK    5  A    between atoms: N_6  and  C_7
REMARK    6  A    between atoms: C_7  and  C_8
REMARK    7  A    between atoms: N_14  and  C_15
REMARK    8  A    between atoms: N_14  and  C_16
REMARK    9  A    between atoms: N_20  and  C_21
REMARK                            x       y       z     vdW  Elec       q    Type
REMARK                         _______ _______ _______ _____ _____    ______ ____
ROOT
ATOM      1  C   UNL     1      -2.318  -1.178   0.551  0.00  0.00    +0.236 C 
ATOM      2  O   UNL     1      -3.031  -1.421   1.502  0.00  0.00    -0.273 OA
ATOM      3  N   UNL     1      -2.828  -1.197  -0.696  0.00  0.00    -0.309 N 
ATOM      4  H   UNL     1      -2.258  -1.003  -1.456  0.00  0.00    +0.149 HD
ENDROOT
BRANCH   1   6
ATOM      5  C   UNL     1      -0.680   0.664   0.824  0.00  0.00    +0.041 C 
ATOM      6  C   UNL     1      -0.862  -0.854   0.764  0.00  0.00    +0.106 C 
ATOM      7  C   UNL     1      -0.388  -1.477   2.079  0.00  0.00    +0.041 C 
BRANCH   6   8
ATOM      8  N   UNL     1      -0.073  -1.397  -0.345  0.00  0.00    -0.286 N 
ATOM      9  C   UNL     1       1.264  -1.228  -0.367  0.00  0.00    +0.300 C 
ATOM     10  O   UNL     1       1.815  -0.625   0.533  0.00  0.00    -0.253 OA
ATOM     11  N   UNL     1       1.989  -1.728  -1.388  0.00  0.00    -0.302 N 
ATOM     12  C   UNL     1       3.442  -1.544  -1.412  0.00  0.00    +0.129 C 
ATOM     13  H   UNL     1      -0.514  -1.878  -1.063  0.00  0.00    +0.151 HD
ATOM     14  H   UNL     1       1.549  -2.209  -2.106  0.00  0.00    +0.150 HD
ENDBRANCH   6   8
ENDBRANCH   1   6
BRANCH   3  15
ATOM     15  C   UNL     1      -4.244  -1.512  -0.903  0.00  0.00    +0.141 C 
BRANCH  15  16
ATOM     16  C   UNL     1      -4.558  -1.467  -2.377  0.00  0.00    -0.014 A 
ATOM     17  C   UNL     1      -4.971  -0.282  -2.970  0.00  0.00    +0.010 A 
ATOM     18  C   UNL     1      -5.249  -0.284  -4.325  0.00  0.00    +0.042 A 
ATOM     19  C   UNL     1      -5.107  -1.467  -5.043  0.00  0.00    +0.098 A 
ATOM     20  N   UNL     1      -4.711  -2.577  -4.441  0.00  0.00    -0.349 N 
ATOM     21  C   UNL     1      -4.433  -2.603  -3.151  0.00  0.00    +0.089 A 
ATOM     22  N   UNL     1      -5.384  -1.484  -6.405  0.00  0.00    -0.323 N 
ATOM     23  C   UNL     1      -5.974  -0.306  -7.047  0.00  0.00    +0.130 C 
ATOM     24  C   UNL     1      -5.085  -2.678  -7.199  0.00  0.00    +0.130 C 
ATOM     25  H   UNL     1      -4.619  -3.391  -4.961  0.00  0.00    +0.167 HD
ENDBRANCH  15  16
ENDBRANCH   3  15
TORSDOF 4
