REMARK  Name = ZINC42015070
REMARK  4 active torsions:
REMARK  status: ('A' for Active; 'I' for Inactive)
REMARK    1  A    between atoms: C_1  and  C_2
REMARK    2  A    between atoms: C_5  and  N_9
REMARK    3  A    between atoms: C_10  and  C_14
REMARK    4  A    between atoms: C_16  and  N_21
REMARK                            x       y       z     vdW  Elec       q    Type
REMARK                         _______ _______ _______ _____ _____    ______ ____
ROOT
ATOM      1  N   UNL     1      -0.054  -4.184   0.076  0.00  0.00    -0.193 N 
ATOM      2  C   UNL     1       0.765  -4.998   0.802  0.00  0.00    +0.190 A 
ATOM      3  N   UNL     1       0.592  -6.221   0.346  0.00  0.00    -0.108 NA
ATOM      4  N   UNL     1      -0.269  -6.229  -0.606  0.00  0.00    -0.022 NA
ATOM      5  N   UNL     1      -0.712  -5.039  -0.827  0.00  0.00    -0.039 NA
ENDROOT
BRANCH   1  10
ATOM      6  C   UNL     1      -0.689   1.432   0.596  0.00  0.00    +0.045 C 
ATOM      7  C   UNL     1      -0.521  -0.059   0.458  0.00  0.00    -0.032 A 
ATOM      8  C   UNL     1      -0.446  -0.632  -0.798  0.00  0.00    +0.007 A 
ATOM      9  C   UNL     1      -0.291  -1.998  -0.928  0.00  0.00    +0.028 A 
ATOM     10  C   UNL     1      -0.211  -2.798   0.205  0.00  0.00    +0.071 A 
ATOM     11  C   UNL     1      -0.286  -2.221   1.465  0.00  0.00    +0.048 A 
ATOM     12  C   UNL     1      -0.435  -0.852   1.589  0.00  0.00    +0.046 A 
ATOM     13 CL   UNL     1      -0.521  -0.128   3.164  0.00  0.00    -0.083 Cl
ENDBRANCH   1  10
BRANCH   2  14
ATOM     14  C   UNL     1       1.674  -4.586   1.894  0.00  0.00    +0.058 A 
ATOM     15  C   UNL     1       2.518  -3.489   1.725  0.00  0.00    +0.037 A 
ATOM     16  C   UNL     1       3.367  -3.108   2.752  0.00  0.00    +0.025 A 
ATOM     17  C   UNL     1       3.376  -3.818   3.947  0.00  0.00    +0.025 A 
ATOM     18  C   UNL     1       2.540  -4.905   4.117  0.00  0.00    +0.041 A 
ATOM     19  C   UNL     1       1.685  -5.290   3.101  0.00  0.00    +0.134 A 
ATOM     20  F   UNL     1       0.865  -6.349   3.273  0.00  0.00    -0.205 F 
BRANCH  16  21
ATOM     21  N   UNL     1       4.216  -2.009   2.585  0.00  0.00    -0.358 N 
ATOM     22  H   UNL     1       4.210  -1.514   1.751  0.00  0.00    +0.142 HD
ATOM     23  H   UNL     1       4.810  -1.742   3.304  0.00  0.00    +0.142 HD
ENDBRANCH  16  21
ENDBRANCH   2  14
TORSDOF 3
