REMARK  Name = ZINC62228914
REMARK  8 active torsions:
REMARK  status: ('A' for Active; 'I' for Inactive)
REMARK    1  A    between atoms: C_1  and  C_2
REMARK    2  A    between atoms: C_2  and  C_3
REMARK    3  A    between atoms: C_2  and  C_4
REMARK    4  A    between atoms: C_2  and  N_5
REMARK    5  A    between atoms: N_5  and  C_6
REMARK    6  A    between atoms: C_6  and  C_7
REMARK    7  A    between atoms: C_7  and  C_13
REMARK    8  A    between atoms: C_13  and  C_14
REMARK                            x       y       z     vdW  Elec       q    Type
REMARK                         _______ _______ _______ _____ _____    ______ ____
ROOT
ATOM      1  C   UNL     1       2.254  -0.515  -2.308  0.00  0.00    -0.017 C 
ATOM      2  C   UNL     1       3.523   0.088  -1.697  0.00  0.00    +0.010 C 
ATOM      3  C   UNL     1       4.732  -0.337  -2.537  0.00  0.00    +0.029 C 
ATOM      4  C   UNL     1       4.787  -1.866  -2.600  0.00  0.00    +0.160 C 
ATOM      5  O   UNL     1       3.565  -2.363  -3.149  0.00  0.00    -0.379 OA
ATOM      6  C   UNL     1       2.405  -2.037  -2.380  0.00  0.00    +0.165 C 
ENDROOT
BRANCH   1   7
ATOM      7  C   UNL     1       1.049  -0.162  -1.434  0.00  0.00    -0.072 C 
BRANCH   7   8
ATOM      8  N   UNL     1      -0.167  -0.747  -2.017  0.00  0.00    +0.383 N 
ATOM      9  H   UNL     1      -0.068  -1.750  -2.064  0.00  0.00    -0.085 HD
ATOM     10  H   UNL     1      -0.305  -0.378  -2.946  0.00  0.00    -0.085 HD
BRANCH   8  12
ATOM     11  C   UNL     1      -1.474   1.113  -1.106  0.00  0.00    -0.011 C 
ATOM     12  C   UNL     1      -1.324  -0.407  -1.178  0.00  0.00    -0.077 C 
ATOM     13  C   UNL     1      -1.114  -0.966   0.231  0.00  0.00    -0.011 C 
ATOM     14  C   UNL     1      -2.589  -1.016  -1.785  0.00  0.00    -0.011 C 
ENDBRANCH   8  12
ENDBRANCH   7   8
ENDBRANCH   1   7
BRANCH   1  15
ATOM     15  C   UNL     1       2.047   0.046  -3.716  0.00  0.00    +0.043 C 
BRANCH  15  16
ATOM     16  C   UNL     1       1.921   1.546  -3.646  0.00  0.00    -0.030 A 
ATOM     17  C   UNL     1       0.822   2.120  -3.035  0.00  0.00    +0.043 A 
ATOM     18  C   UNL     1       0.707   3.498  -2.970  0.00  0.00    +0.124 A 
ATOM     19  C   UNL     1       1.694   4.301  -3.518  0.00  0.00    +0.039 A 
ATOM     20  C   UNL     1       2.792   3.726  -4.129  0.00  0.00    +0.018 A 
ATOM     21  C   UNL     1       2.909   2.349  -4.188  0.00  0.00    +0.021 A 
ATOM     22 BR   UNL     1       4.416   1.563  -5.017  0.00  0.00    -0.050 Br
ATOM     23  F   UNL     1      -0.367   4.059  -2.373  0.00  0.00    -0.205 F 
ENDBRANCH  15  16
ENDBRANCH   1  15
TORSDOF 5
