REMARK  Name = ZINC49129479
REMARK  11 active torsions:
REMARK  status: ('A' for Active; 'I' for Inactive)
REMARK    1  A    between atoms: C_1  and  C_2
REMARK    2  A    between atoms: C_2  and  C_3
REMARK    3  A    between atoms: C_3  and  C_4
REMARK    4  A    between atoms: C_3  and  C_5
REMARK    5  A    between atoms: C_3  and  N_6
REMARK    6  A    between atoms: C_7  and  C_9
REMARK    7  A    between atoms: C_9  and  C_11
REMARK    8  A    between atoms: C_9  and  N_12
REMARK    9  A    between atoms: N_12  and  C_13
REMARK   10  A    between atoms: C_13  and  C_15
REMARK   11  A    between atoms: C_13  and  C_16
REMARK                            x       y       z     vdW  Elec       q    Type
REMARK                         _______ _______ _______ _____ _____    ______ ____
ROOT
ATOM      1  C   UNL     1      -2.578  -4.210   0.116  0.00  0.00    +0.014 C 
ATOM      2  C   UNL     1      -1.686  -4.783  -0.987  0.00  0.00    -0.004 C 
ENDROOT
BRANCH   1   4
ATOM      3  N   UNL     1      -1.456  -2.006   0.123  0.00  0.00    -0.312 N 
ATOM      4  C   UNL     1      -2.602  -2.707   0.013  0.00  0.00    +0.199 C 
ATOM      5  O   UNL     1      -3.651  -2.127  -0.170  0.00  0.00    -0.278 OA
ATOM      6  H   UNL     1      -0.616  -2.469   0.270  0.00  0.00    +0.149 HD
BRANCH   3   7
ATOM      7  C   UNL     1      -1.478  -0.544   0.023  0.00  0.00    +0.029 C 
ATOM      8  C   UNL     1      -2.371   0.029   1.126  0.00  0.00    +0.031 C 
ATOM      9  C   UNL     1      -2.031  -0.136  -1.344  0.00  0.00    +0.031 C 
BRANCH   7  11
ATOM     10  C   UNL     1      -0.081   1.526   0.077  0.00  0.00    +0.006 C 
ATOM     11  C   UNL     1      -0.057   0.000   0.182  0.00  0.00    +0.022 C 
ENDBRANCH   7  11
ENDBRANCH   3   7
ENDBRANCH   1   4
BRANCH   1  12
ATOM     12  N   UNL     1      -3.942  -4.732  -0.037  0.00  0.00    +0.391 N 
ATOM     13  H   UNL     1      -4.553  -4.279   0.627  0.00  0.00    -0.084 HD
ATOM     14  H   UNL     1      -4.270  -4.550  -0.974  0.00  0.00    -0.084 HD
BRANCH  12  15
ATOM     15  C   UNL     1      -3.942  -6.181   0.208  0.00  0.00    -0.036 C 
ATOM     16  C   UNL     1      -5.333  -6.748  -0.085  0.00  0.00    -0.008 C 
BRANCH  15  17
ATOM     17  C   UNL     1      -3.585  -6.447   1.648  0.00  0.00    -0.023 A 
ATOM     18  C   UNL     1      -2.791  -7.415   2.165  0.00  0.00    +0.011 A 
ATOM     19  C   UNL     1      -2.603  -7.469   3.534  0.00  0.00    +0.028 A 
ATOM     20  C   UNL     1      -3.220  -6.550   4.318  0.00  0.00    +0.078 A 
ATOM     21  S   UNL     1      -4.092  -5.562   3.114  0.00  0.00    -0.083 S 
ATOM     22 CL   UNL     1      -3.168  -6.375   6.045  0.00  0.00    -0.076 Cl
ENDBRANCH  15  17
ENDBRANCH  12  15
ENDBRANCH   1  12
TORSDOF 6
