REMARK  Name = ZINC52694355
REMARK  6 active torsions:
REMARK  status: ('A' for Active; 'I' for Inactive)
REMARK    1  A    between atoms: C_3  and  O_9
REMARK    2  A    between atoms: O_9  and  C_10
REMARK    3  A    between atoms: C_10  and  C_11
REMARK    4  A    between atoms: C_11  and  N_12
REMARK    5  A    between atoms: C_14  and  C_17
REMARK    6  A    between atoms: C_17  and  N_18
REMARK                            x       y       z     vdW  Elec       q    Type
REMARK                         _______ _______ _______ _____ _____    ______ ____
ROOT
ATOM      1  C   UNL     1       4.860   4.136  -0.024  0.00  0.00    +0.186 C 
ENDROOT
BRANCH   1   2
ATOM      2  N   UNL     1       4.764   5.598  -0.015  0.00  0.00    -0.248 N 
ATOM      3  C   UNL     1       5.353   6.426   0.878  0.00  0.00    +0.131 A 
ATOM      4  C   UNL     1       5.003   7.682   0.516  0.00  0.00    +0.066 A 
ATOM      5  N   UNL     1       4.227   7.563  -0.568  0.00  0.00    -0.136 NA
ATOM      6  N   UNL     1       4.110   6.316  -0.860  0.00  0.00    -0.065 NA
BRANCH   4   7
ATOM      7  C   UNL     1       5.407   8.963   1.199  0.00  0.00    -0.027 C 
BRANCH   7   8
ATOM      8  N   UNL     1       6.591   9.521   0.532  0.00  0.00    +0.382 N 
ATOM      9  H   UNL     1       6.862  10.379   0.989  0.00  0.00    -0.090 HD
ATOM     10  H   UNL     1       7.350   8.858   0.585  0.00  0.00    -0.090 HD
ATOM     11  H   UNL     1       6.375   9.709  -0.435  0.00  0.00    -0.090 HD
ENDBRANCH   7   8
ENDBRANCH   4   7
ENDBRANCH   1   2
BRANCH   1  12
ATOM     12  C   UNL     1       3.454   3.533  -0.013  0.00  0.00    +0.252 C 
BRANCH  12  13
ATOM     13  O   UNL     1       3.548   2.107  -0.021  0.00  0.00    -0.489 OA
BRANCH  13  16
ATOM     14  C   UNL     1      -0.017   1.379   0.010  0.00  0.00    +0.019 A 
ATOM     15  C   UNL     1       1.170   2.087   0.002  0.00  0.00    +0.048 A 
ATOM     16  C   UNL     1       2.380   1.411  -0.013  0.00  0.00    +0.139 A 
ATOM     17  C   UNL     1       2.397   0.023  -0.021  0.00  0.00    +0.084 A 
ATOM     18  C   UNL     1       1.208  -0.682  -0.013  0.00  0.00    +0.039 A 
ATOM     19  C   UNL     1       0.002  -0.004   0.002  0.00  0.00    +0.019 A 
ATOM     20 BR   UNL     1      -1.623  -0.970   0.012  0.00  0.00    -0.050 Br
ATOM     21 CL   UNL     1       3.911  -0.827  -0.040  0.00  0.00    -0.080 Cl
ENDBRANCH  13  16
ENDBRANCH  12  13
ENDBRANCH   1  12
TORSDOF 6
