REMARK  Name = ZINC39935643
REMARK  5 active torsions:
REMARK  status: ('A' for Active; 'I' for Inactive)
REMARK    1  A    between atoms: C_1  and  S_2
REMARK    2  A    between atoms: S_2  and  C_3
REMARK    3  A    between atoms: C_7  and  C_21
REMARK    4  A    between atoms: N_9  and  N_10
REMARK    5  A    between atoms: C_11  and  C_12
REMARK                            x       y       z     vdW  Elec       q    Type
REMARK                         _______ _______ _______ _____ _____    ______ ____
ROOT
ATOM      1  C   UNL     1      -1.742  -0.426  -0.039  0.00  0.00    +0.234 C 
ATOM      2  N   UNL     1      -2.486   0.145  -1.185  0.00  0.00    -0.224 NA
ATOM      3  N   UNL     1      -3.092   1.375  -0.651  0.00  0.00    -0.229 NA
ATOM      4  C   UNL     1      -3.473   0.986   0.732  0.00  0.00    +0.206 C 
ATOM      5  N   UNL     1      -2.370   0.110   1.181  0.00  0.00    -0.205 N 
ATOM      6  H   UNL     1      -1.866   0.351  -1.953  0.00  0.00    +0.144 HD
ATOM      7  H   UNL     1      -3.904   1.641  -1.188  0.00  0.00    +0.143 HD
ENDROOT
BRANCH   4   8
ATOM      8  C   UNL     1      -3.573   2.205   1.613  0.00  0.00    -0.010 A 
ATOM      9  C   UNL     1      -3.793   3.448   1.051  0.00  0.00    +0.007 A 
ATOM     10  C   UNL     1      -3.885   4.566   1.859  0.00  0.00    +0.000 A 
ATOM     11  C   UNL     1      -3.756   4.441   3.230  0.00  0.00    +0.000 A 
ATOM     12  C   UNL     1      -3.537   3.197   3.792  0.00  0.00    +0.000 A 
ATOM     13  C   UNL     1      -3.449   2.079   2.984  0.00  0.00    +0.007 A 
ENDBRANCH   4   8
BRANCH   1  15
ATOM     14  C   UNL     1      -0.071   1.893  -0.109  0.00  0.00    +0.087 C 
ATOM     15  S   UNL     1      -0.002   0.081  -0.115  0.00  0.00    -0.124 S 
ENDBRANCH   1  15
BRANCH   5  16
ATOM     16  N   UNL     1      -2.026  -0.138   2.399  0.00  0.00    -0.188 NA
ATOM     17  C   UNL     1      -1.019  -0.942   2.646  0.00  0.00    +0.136 C 
BRANCH  17  18
ATOM     18  C   UNL     1      -0.646  -1.210   3.966  0.00  0.00    +0.000 C 
ATOM     19  C   UNL     1       0.397  -2.031   4.399  0.00  0.00    +0.004 A 
ATOM     20  C   UNL     1       1.351  -2.805   3.705  0.00  0.00    +0.010 A 
ATOM     21  C   UNL     1       2.271  -3.522   4.400  0.00  0.00    +0.001 A 
ATOM     22  C   UNL     1       2.301  -3.514   5.796  0.00  0.00    +0.002 A 
ATOM     23  C   UNL     1       1.416  -2.793   6.527  0.00  0.00    +0.026 A 
ATOM     24  C   UNL     1       0.424  -2.019   5.870  0.00  0.00    +0.043 A 
ATOM     25  N   UNL     1      -0.533  -1.246   6.343  0.00  0.00    -0.380 N 
ATOM     26  C   UNL     1      -1.284  -0.666   5.225  0.00  0.00    +0.150 C 
ATOM     27  H   UNL     1      -0.711  -1.084   7.283  0.00  0.00    +0.160 HD
ENDBRANCH  17  18
ENDBRANCH   5  16
TORSDOF 4
