REMARK  Name = ZINC40334978
REMARK  7 active torsions:
REMARK  status: ('A' for Active; 'I' for Inactive)
REMARK    1  A    between atoms: C_1  and  N_2
REMARK    2  A    between atoms: C_6  and  C_7
REMARK    3  A    between atoms: C_7  and  N_8
REMARK    4  A    between atoms: N_8  and  C_9
REMARK    5  A    between atoms: N_8  and  S_10
REMARK    6  A    between atoms: S_10  and  C_13
REMARK    7  A    between atoms: C_16  and  N_20
REMARK                            x       y       z     vdW  Elec       q    Type
REMARK                         _______ _______ _______ _____ _____    ______ ____
ROOT
ATOM      1  S   UNL     1       2.218  -1.459   3.664  0.00  0.00    +0.062 S 
ATOM      2  O   UNL     1       1.634  -2.622   3.094  0.00  0.00    -0.153 OA
ATOM      3  O   UNL     1       3.611  -1.190   3.588  0.00  0.00    -0.153 OA
ENDROOT
BRANCH   1   4
ATOM      4  C   UNL     1       1.801  -1.472   5.376  0.00  0.00    +0.119 A 
ATOM      5  C   UNL     1       1.004  -2.482   5.884  0.00  0.00    +0.031 A 
ATOM      6  C   UNL     1       0.675  -2.495   7.225  0.00  0.00    +0.025 A 
ATOM      7  C   UNL     1       1.145  -1.493   8.064  0.00  0.00    +0.026 A 
ATOM      8  C   UNL     1       1.944  -0.480   7.552  0.00  0.00    +0.040 A 
ATOM      9  C   UNL     1       2.275  -0.475   6.210  0.00  0.00    +0.046 A 
ATOM     10 BR   UNL     1       3.370   0.899   5.511  0.00  0.00    -0.048 Br
BRANCH   7  11
ATOM     11  N   UNL     1       0.812  -1.503   9.421  0.00  0.00    -0.358 N 
ATOM     12  H   UNL     1       0.254  -2.211   9.778  0.00  0.00    +0.142 HD
ATOM     13  H   UNL     1       1.141  -0.803  10.006  0.00  0.00    +0.142 HD
ENDBRANCH   7  11
ENDBRANCH   1   4
BRANCH   1  14
ATOM     14  N   UNL     1       1.448  -0.161   2.982  0.00  0.00    -0.172 NA
ATOM     15  C   UNL     1       2.168   1.101   2.792  0.00  0.00    +0.132 C 
BRANCH  14  16
ATOM     16  C   UNL     1       0.047  -0.274   2.569  0.00  0.00    +0.181 C 
BRANCH  16  22
ATOM     17  C   UNL     1       0.144   1.703   0.185  0.00  0.00    +0.150 C 
ATOM     18  N   UNL     1       0.025   0.247   0.080  0.00  0.00    -0.338 N 
ATOM     19  C   UNL     1      -0.056  -0.480  -1.077  0.00  0.00    +0.104 A 
ATOM     20  C   UNL     1      -0.152  -1.775  -0.718  0.00  0.00    +0.101 A 
ATOM     21  N   UNL     1      -0.129  -1.837   0.622  0.00  0.00    -0.349 N 
ATOM     22  C   UNL     1      -0.018  -0.630   1.106  0.00  0.00    +0.103 A 
ATOM     23  H   UNL     1      -0.183  -2.650   1.147  0.00  0.00    +0.166 HD
ENDBRANCH  16  22
ENDBRANCH  14  16
ENDBRANCH   1  14
TORSDOF 5
