REMARK  Name = ZINC19375878
REMARK  5 active torsions:
REMARK  status: ('A' for Active; 'I' for Inactive)
REMARK    1  A    between atoms: C_9  and  C_12
REMARK    2  A    between atoms: C_12  and  N_13
REMARK    3  A    between atoms: C_22  and  C_24
REMARK    4  A    between atoms: C_24  and  C_25
REMARK    5  A    between atoms: C_25  and  O_26
REMARK                            x       y       z     vdW  Elec       q    Type
REMARK                         _______ _______ _______ _____ _____    ______ ____
ROOT
ATOM      1  N   UNL     1      -5.396   4.188  -1.351  0.00  0.00    -0.298 NA
ATOM      2  C   UNL     1      -4.627   5.342  -1.855  0.00  0.00    +0.070 C 
ATOM      3  C   UNL     1      -5.100   5.621  -3.276  0.00  0.00    -0.054 C 
ATOM      4  C   UNL     1      -4.484   6.886  -3.896  0.00  0.00    -0.016 C 
ATOM      5  C   UNL     1      -5.548   7.276  -4.958  0.00  0.00    -0.020 C 
ATOM      6  C   UNL     1      -6.859   6.605  -4.477  0.00  0.00    -0.078 C 
ATOM      7  N   UNL     1      -6.540   5.984  -3.192  0.00  0.00    +0.383 N 
ATOM      8  C   UNL     1      -7.309   4.817  -2.791  0.00  0.00    -0.059 C 
ATOM      9  C   UNL     1      -6.844   4.418  -1.381  0.00  0.00    +0.043 C 
ATOM     10  H   UNL     1      -6.823   6.714  -2.419  0.00  0.00    -0.081 HD
ENDROOT
BRANCH   1  11
ATOM     11  C   UNL     1      -4.951   3.806  -0.004  0.00  0.00    +0.126 C 
BRANCH  11  20
ATOM     12  C   UNL     1       1.274   3.451  -0.423  0.00  0.00    +0.001 A 
ATOM     13  C   UNL     1       1.316   2.065  -0.391  0.00  0.00    +0.004 A 
ATOM     14  C   UNL     1       0.156   1.327  -0.292  0.00  0.00    +0.047 A 
ATOM     15  C   UNL     1      -1.073   1.973  -0.230  0.00  0.00    +0.138 A 
ATOM     16  C   UNL     1      -1.114   3.377  -0.257  0.00  0.00    +0.064 A 
ATOM     17  C   UNL     1       0.066   4.111  -0.356  0.00  0.00    +0.015 A 
ATOM     18  C   UNL     1      -2.430   4.039  -0.183  0.00  0.00    +0.197 A 
ATOM     19  O   UNL     1      -2.533   5.253  -0.207  0.00  0.00    -0.287 OA
ATOM     20  C   UNL     1      -3.573   3.202  -0.083  0.00  0.00    +0.049 A 
ATOM     21  C   UNL     1      -3.418   1.865  -0.060  0.00  0.00    +0.204 A 
ATOM     22  O   UNL     1      -2.221   1.273  -0.127  0.00  0.00    -0.462 OA
ENDBRANCH  11  20
ENDBRANCH   1  11
BRANCH   9  23
ATOM     23  C   UNL     1      -7.196   5.538  -0.400  0.00  0.00    +0.045 C 
BRANCH  23  24
ATOM     24  C   UNL     1      -8.716   5.685  -0.317  0.00  0.00    +0.157 C 
BRANCH  24  25
ATOM     25  O   UNL     1      -9.042   6.799   0.516  0.00  0.00    -0.395 OA
ATOM     26  H   UNL     1     -10.095   7.062   0.696  0.00  0.00    +0.209 HD
ENDBRANCH  24  25
ENDBRANCH  23  24
ENDBRANCH   9  23
TORSDOF 5
