REMARK  Name = ZINC37005418
REMARK  3 active torsions:
REMARK  status: ('A' for Active; 'I' for Inactive)
REMARK    1  A    between atoms: C_3  and  N_10
REMARK    2  A    between atoms: C_6  and  C_7
REMARK    3  A    between atoms: C_11  and  C_13
REMARK                            x       y       z     vdW  Elec       q    Type
REMARK                         _______ _______ _______ _____ _____    ______ ____
ROOT
ATOM      1  C   UNL     1      -0.019   1.526   0.010  0.00  0.00    +0.014 C 
ATOM      2  C   UNL     1       1.417   2.055  -0.000  0.00  0.00    +0.023 C 
ATOM      3  C   UNL     1       2.157   1.548   1.239  0.00  0.00    +0.073 C 
ATOM      4  C   UNL     1       2.178   0.019   1.231  0.00  0.00    +0.023 C 
ATOM      5  C   UNL     1       0.742  -0.511   1.242  0.00  0.00    +0.014 C 
ATOM      6  C   UNL     1       0.002  -0.004   0.002  0.00  0.00    +0.075 C 
ENDROOT
BRANCH   6   7
ATOM      7  C   UNL     1      -1.412  -0.526   0.013  0.00  0.00    +0.214 C 
ATOM      8  O   UNL     1      -2.344   0.250   0.026  0.00  0.00    -0.276 OA
ATOM      9  N   UNL     1      -1.640  -1.854   0.008  0.00  0.00    -0.329 N 
ATOM     10  H   UNL     1      -0.894  -2.474  -0.003  0.00  0.00    +0.145 HD
ATOM     11  H   UNL     1      -2.550  -2.190   0.015  0.00  0.00    +0.145 HD
ENDBRANCH   6   7
BRANCH   3  12
ATOM     12  N   UNL     1       1.471   2.021   2.444  0.00  0.00    -0.314 N 
ATOM     13  C   UNL     1       2.153   2.153   3.600  0.00  0.00    +0.200 C 
ATOM     14  O   UNL     1       3.334   1.880   3.641  0.00  0.00    -0.278 OA
ATOM     15  H   UNL     1       0.526   2.239   2.411  0.00  0.00    +0.149 HD
BRANCH  13  16
ATOM     16  C   UNL     1       1.447   2.639   4.840  0.00  0.00    +0.027 C 
ATOM     17  C   UNL     1       0.292   1.655   5.191  0.00  0.00    +0.060 C 
ATOM     18  S   UNL     1       0.099   2.090   6.978  0.00  0.00    -0.181 S 
ATOM     19  C   UNL     1       1.855   2.545   7.299  0.00  0.00    -0.011 C 
ATOM     20  N   UNL     1       2.409   2.723   5.940  0.00  0.00    +0.393 N 
ATOM     21  H   UNL     1       3.117   2.018   5.794  0.00  0.00    -0.084 HD
ATOM     22  H   UNL     1       2.856   3.627   5.899  0.00  0.00    -0.084 HD
ENDBRANCH  13  16
ENDBRANCH   3  12
TORSDOF 3
