REMARK  Name = ZINC09130469
REMARK  9 active torsions:
REMARK  status: ('A' for Active; 'I' for Inactive)
REMARK    1  A    between atoms: C_4  and  C_7
REMARK    2  A    between atoms: C_8  and  C_18
REMARK    3  A    between atoms: N_10  and  C_12
REMARK    4  A    between atoms: C_21  and  C_30
REMARK    5  A    between atoms: C_24  and  C_26
REMARK    6  A    between atoms: C_26  and  N_58
REMARK    7  A    between atoms: C_27  and  C_28
REMARK    8  A    between atoms: C_27  and  N_58
REMARK    9  A    between atoms: C_28  and  O_29
REMARK                            x       y       z     vdW  Elec       q    Type
REMARK                         _______ _______ _______ _____ _____    ______ ____
ROOT
ATOM      1  C   UNL     1       6.064   1.842  -0.087  0.00  0.00    +0.140 C 
ATOM      2  C   UNL     1       4.883   0.854  -0.167  0.00  0.00    +0.087 C 
ATOM      3  C   UNL     1       3.661   1.744  -0.155  0.00  0.00    +0.075 C 
ATOM      4  N   UNL     1       4.029   2.979  -0.076  0.00  0.00    -0.180 NA
ATOM      5  N   UNL     1       5.410   3.159  -0.030  0.00  0.00    -0.187 N 
ATOM      6  C   UNL     1       6.044   4.346   0.054  0.00  0.00    +0.218 C 
ATOM      7  O   UNL     1       7.256   4.385   0.089  0.00  0.00    -0.276 OA
ENDROOT
BRANCH   1   9
ATOM      8  C   UNL     1       8.081   0.924  -1.444  0.00  0.00    +0.098 A 
ATOM      9  C   UNL     1       6.938   1.737  -1.310  0.00  0.00    +0.021 A 
ATOM     10  C   UNL     1       6.768   2.409  -2.469  0.00  0.00    +0.120 A 
ATOM     11  N   UNL     1       7.763   2.037  -3.316  0.00  0.00    -0.239 N 
ATOM     12  N   UNL     1       8.570   1.103  -2.653  0.00  0.00    -0.166 NA
BRANCH   8  16
ATOM     13  C   UNL     1       9.669  -1.665   1.532  0.00  0.00    +0.000 A 
ATOM     14  C   UNL     1       8.302  -1.605   1.329  0.00  0.00    +0.001 A 
ATOM     15  C   UNL     1       7.781  -0.766   0.365  0.00  0.00    +0.010 A 
ATOM     16  C   UNL     1       8.635   0.021  -0.406  0.00  0.00    +0.002 A 
ATOM     17  C   UNL     1      10.012  -0.048  -0.201  0.00  0.00    +0.010 A 
ATOM     18  C   UNL     1      10.521  -0.886   0.770  0.00  0.00    +0.001 A 
ENDBRANCH   8  16
BRANCH  11  19
ATOM     19  C   UNL     1       7.948   2.504  -4.624  0.00  0.00    +0.065 A 
ATOM     20  C   UNL     1       7.066   3.431  -5.163  0.00  0.00    +0.028 A 
ATOM     21  C   UNL     1       7.254   3.894  -6.451  0.00  0.00    +0.002 A 
ATOM     22  C   UNL     1       8.314   3.427  -7.207  0.00  0.00    +0.000 A 
ATOM     23  C   UNL     1       9.191   2.500  -6.674  0.00  0.00    +0.002 A 
ATOM     24  C   UNL     1       9.012   2.038  -5.385  0.00  0.00    +0.028 A 
ENDBRANCH  11  19
ENDBRANCH   1   9
BRANCH   3  25
ATOM     25  C   UNL     1       2.273   1.277  -0.218  0.00  0.00    +0.035 A 
ATOM     26  C   UNL     1       1.102   2.015  -0.207  0.00  0.00    +0.017 A 
ATOM     27  C   UNL     1      -0.096   1.342  -0.276  0.00  0.00    +0.008 A 
ATOM     28  C   UNL     1      -0.093  -0.014  -0.352  0.00  0.00    +0.046 A 
ATOM     29  S   UNL     1       1.651  -0.393  -0.329  0.00  0.00    -0.095 S 
ENDBRANCH   3  25
BRANCH   6  30
ATOM     30  C   UNL     1       5.247   5.623   0.105  0.00  0.00    +0.017 C 
BRANCH  30  31
ATOM     31  N   UNL     1       6.173   6.768   0.194  0.00  0.00    +0.386 N 
ATOM     32  H   UNL     1       6.786   6.772  -0.629  0.00  0.00    -0.085 HD
ATOM     33  H   UNL     1       6.742   6.678   1.044  0.00  0.00    -0.085 HD
BRANCH  31  34
ATOM     34  C   UNL     1       5.419   8.034   0.246  0.00  0.00    -0.054 C 
BRANCH  34  35
ATOM     35  C   UNL     1       6.404   9.201   0.338  0.00  0.00    +0.137 C 
BRANCH  35  36
ATOM     36  O   UNL     1       7.179   9.267  -0.861  0.00  0.00    -0.397 OA
ATOM     37  H   UNL     1       7.826   9.985  -0.873  0.00  0.00    +0.209 HD
ENDBRANCH  35  36
ENDBRANCH  34  35
ENDBRANCH  31  34
ENDBRANCH  30  31
ENDBRANCH   6  30
TORSDOF 9
