REMARK  Name = ZINC50422273
REMARK  8 active torsions:
REMARK  status: ('A' for Active; 'I' for Inactive)
REMARK    1  A    between atoms: C_1  and  C_2
REMARK    2  A    between atoms: N_6  and  C_7
REMARK    3  A    between atoms: C_7  and  C_9
REMARK    4  A    between atoms: C_7  and  C_10
REMARK    5  A    between atoms: N_14  and  C_15
REMARK    6  A    between atoms: C_17  and  C_22
REMARK    7  A    between atoms: C_17  and  C_23
REMARK    8  A    between atoms: C_19  and  N_21
REMARK                            x       y       z     vdW  Elec       q    Type
REMARK                         _______ _______ _______ _____ _____    ______ ____
ROOT
ATOM      1  C   UNL     1      -0.341   1.665   0.200  0.00  0.00    +0.063 C 
ATOM      2  C   UNL     1      -0.163   0.176   0.056  0.00  0.00    +0.017 A 
ATOM      3  C   UNL     1      -0.227  -0.521  -1.100  0.00  0.00    +0.024 A 
ATOM      4  C   UNL     1      -0.004  -1.869  -0.786  0.00  0.00    -0.041 A 
ATOM      5  C   UNL     1       0.186  -1.953   0.551  0.00  0.00    +0.022 A 
ATOM      6  N   UNL     1       0.096  -0.701   1.070  0.00  0.00    -0.338 N 
ATOM      7  C   UNL     1       0.454  -3.243   1.286  0.00  0.00    +0.060 C 
ATOM      8  C   UNL     1       0.062  -4.411   0.373  0.00  0.00    -0.031 C 
ATOM      9  C   UNL     1       0.704  -4.222  -1.004  0.00  0.00    -0.005 C 
ATOM     10  C   UNL     1       0.030  -3.048  -1.725  0.00  0.00    -0.042 C 
ATOM     11  C   UNL     1       0.551  -5.724   0.988  0.00  0.00    +0.011 C 
ATOM     12  C   UNL     1      -1.460  -4.453   0.225  0.00  0.00    +0.011 C 
ENDROOT
BRANCH  10  13
ATOM     13  N   UNL     1       0.797  -2.700  -2.929  0.00  0.00    +0.383 N 
ATOM     14  H   UNL     1       1.740  -2.454  -2.667  0.00  0.00    -0.089 HD
ATOM     15  H   UNL     1       0.817  -3.491  -3.555  0.00  0.00    -0.089 HD
ATOM     16  H   UNL     1       0.360  -1.917  -3.391  0.00  0.00    -0.089 HD
ENDBRANCH  10  13
BRANCH   6  17
ATOM     17  C   UNL     1       0.248  -0.350   2.485  0.00  0.00    +0.152 C 
ATOM     18  C   UNL     1      -0.824  -1.069   3.306  0.00  0.00    +0.039 C 
BRANCH  17  19
ATOM     19  C   UNL     1       1.614  -0.771   2.963  0.00  0.00    +0.156 A 
ATOM     20  N   UNL     1       2.041  -1.997   3.101  0.00  0.00    -0.132 NA
ATOM     21  N   UNL     1       3.254  -1.987   3.529  0.00  0.00    -0.138 NA
ATOM     22  C   UNL     1       3.655  -0.755   3.683  0.00  0.00    +0.224 A 
ATOM     23  N   UNL     1       2.627   0.052   3.324  0.00  0.00    -0.319 N 
ATOM     24  C   UNL     1       2.614   1.517   3.328  0.00  0.00    +0.151 C 
ENDBRANCH  17  19
ENDBRANCH   6  17
TORSDOF 3
