REMARK  Name = ZINC62708673
REMARK  8 active torsions:
REMARK  status: ('A' for Active; 'I' for Inactive)
REMARK    1  A    between atoms: C_1  and  C_2
REMARK    2  A    between atoms: C_6  and  C_10
REMARK    3  A    between atoms: C_10  and  C_11
REMARK    4  A    between atoms: C_11  and  C_12
REMARK    5  A    between atoms: C_11  and  C_13
REMARK    6  A    between atoms: C_14  and  C_16
REMARK    7  A    between atoms: C_16  and  C_17
REMARK    8  A    between atoms: C_17  and  C_18
REMARK                            x       y       z     vdW  Elec       q    Type
REMARK                         _______ _______ _______ _____ _____    ______ ____
ROOT
ATOM      1  C   UNL     1       0.551   1.592   0.558  0.00  0.00    -0.012 C 
ATOM      2  C   UNL     1       0.482   0.066   0.463  0.00  0.00    -0.057 C 
ATOM      3  C   UNL     1      -0.963  -0.363   0.189  0.00  0.00    +0.092 C 
ATOM      4  N   UNL     1      -1.786  -0.005   1.355  0.00  0.00    -0.302 N 
ATOM      5  C   UNL     1      -1.317  -0.419   2.687  0.00  0.00    +0.059 C 
ATOM      6  C   UNL     1       0.144   0.014   2.843  0.00  0.00    -0.059 C 
ATOM      7  N   UNL     1       0.935  -0.524   1.729  0.00  0.00    +0.383 N 
ATOM      8  C   UNL     1      -2.936   0.682   1.207  0.00  0.00    +0.216 C 
ATOM      9  O   UNL     1      -3.646   0.889   2.168  0.00  0.00    -0.276 OA
ATOM     10  H   UNL     1       0.822  -1.526   1.691  0.00  0.00    -0.085 HD
ATOM     11  H   UNL     1       1.909  -0.304   1.872  0.00  0.00    -0.085 HD
ENDROOT
BRANCH   5  12
ATOM     12  C   UNL     1      -2.174   0.250   3.764  0.00  0.00    +0.023 C 
BRANCH  12  13
ATOM     13  C   UNL     1      -3.461  -0.552   3.962  0.00  0.00    -0.016 C 
ATOM     14  C   UNL     1      -3.124  -1.914   4.572  0.00  0.00    +0.007 C 
ATOM     15  C   UNL     1      -4.397   0.211   4.903  0.00  0.00    +0.007 C 
ENDBRANCH  12  13
ENDBRANCH   5  12
BRANCH   8  16
ATOM     16  C   UNL     1      -3.339   1.193  -0.152  0.00  0.00    +0.096 C 
BRANCH  16  17
ATOM     17  C   UNL     1      -4.673   1.933  -0.043  0.00  0.00    +0.013 C 
BRANCH  17  18
ATOM     18  C   UNL     1      -5.083   2.452  -1.423  0.00  0.00    -0.011 C 
ATOM     19  C   UNL     1      -4.074   3.502  -1.893  0.00  0.00    +0.003 C 
ATOM     20  C   UNL     1      -4.484   4.021  -3.273  0.00  0.00    +0.000 C 
ATOM     21  C   UNL     1      -5.875   4.651  -3.189  0.00  0.00    +0.000 C 
ATOM     22  C   UNL     1      -6.884   3.601  -2.719  0.00  0.00    +0.000 C 
ATOM     23  C   UNL     1      -6.474   3.082  -1.339  0.00  0.00    +0.003 C 
ENDBRANCH  17  18
ENDBRANCH  16  17
ENDBRANCH   8  16
TORSDOF 5
