REMARK  Name = ZINC44527819
REMARK  7 active torsions:
REMARK  status: ('A' for Active; 'I' for Inactive)
REMARK    1  A    between atoms: C_1  and  C_2
REMARK    2  A    between atoms: C_2  and  C_3
REMARK    3  A    between atoms: C_2  and  C_4
REMARK    4  A    between atoms: C_2  and  C_5
REMARK    5  A    between atoms: C_11  and  N_13
REMARK    6  A    between atoms: C_17  and  C_20
REMARK    7  A    between atoms: C_20  and  N_21
REMARK                            x       y       z     vdW  Elec       q    Type
REMARK                         _______ _______ _______ _____ _____    ______ ____
ROOT
ATOM      1  N   UNL     1       2.734  -0.632  -0.158  0.00  0.00    +0.382 N 
ATOM      2  C   UNL     1       4.140  -0.210  -0.180  0.00  0.00    -0.078 C 
ATOM      3  C   UNL     1       4.863  -0.767   1.049  0.00  0.00    -0.018 C 
ATOM      4  C   UNL     1       4.786  -2.296   1.029  0.00  0.00    -0.002 C 
ATOM      5  C   UNL     1       3.317  -2.724   0.977  0.00  0.00    -0.045 C 
ATOM      6  C   UNL     1       2.651  -2.094  -0.248  0.00  0.00    -0.077 C 
ATOM      7  H   UNL     1       2.306  -0.324   0.703  0.00  0.00    -0.081 HD
ENDROOT
BRANCH   1  13
ATOM      8  C   UNL     1       0.564  -0.480  -1.282  0.00  0.00    -0.019 C 
ATOM      9  C   UNL     1      -0.174   0.146  -2.467  0.00  0.00    +0.002 C 
ATOM     10  C   UNL     1       0.485  -0.304  -3.773  0.00  0.00    +0.000 C 
ATOM     11  C   UNL     1       1.948   0.145  -3.787  0.00  0.00    -0.002 C 
ATOM     12  C   UNL     1       2.685  -0.481  -2.601  0.00  0.00    -0.015 C 
ATOM     13  C   UNL     1       2.026  -0.031  -1.296  0.00  0.00    -0.065 C 
BRANCH   8  15
ATOM     14  C   UNL     1       0.493   1.315   0.455  0.00  0.00    +0.011 C 
ATOM     15  C   UNL     1      -0.095  -0.029   0.024  0.00  0.00    -0.036 C 
ATOM     16  C   UNL     1       0.165  -1.072   1.113  0.00  0.00    +0.011 C 
ATOM     17  C   UNL     1      -1.603   0.119  -0.191  0.00  0.00    +0.011 C 
ENDBRANCH   8  15
ENDBRANCH   1  13
BRANCH   5  18
ATOM     18  C   UNL     1       3.231  -4.248   0.880  0.00  0.00    -0.085 C 
BRANCH  18  19
ATOM     19  N   UNL     1       3.767  -4.848   2.109  0.00  0.00    +0.378 N 
ATOM     20  H   UNL     1       3.228  -4.531   2.901  0.00  0.00    -0.090 HD
ATOM     21  H   UNL     1       3.710  -5.854   2.045  0.00  0.00    -0.090 HD
ATOM     22  H   UNL     1       4.730  -4.572   2.226  0.00  0.00    -0.090 HD
ENDBRANCH  18  19
ENDBRANCH   5  18
TORSDOF 4
