REMARK  Name = ZINC04223170
REMARK  3 active torsions:
REMARK  status: ('A' for Active; 'I' for Inactive)
REMARK    1  A    between atoms: C_6  and  N_7
REMARK    2  A    between atoms: C_8  and  C_10
REMARK    3  A    between atoms: C_10  and  C_11
REMARK                            x       y       z     vdW  Elec       q    Type
REMARK                         _______ _______ _______ _____ _____    ______ ____
ROOT
ATOM      1  C   UNL     1      -1.351   7.675  -0.138  0.00  0.00    +0.089 C 
ENDROOT
BRANCH   1   2
ATOM      2  C   UNL     1      -2.804   8.145  -0.221  0.00  0.00    +0.025 C 
ATOM      3  C   UNL     1      -2.845   9.646  -0.175  0.00  0.00    +0.200 C 
ATOM      4  O   UNL     1      -2.135  10.223   0.621  0.00  0.00    -0.278 OA
ATOM      5  N   UNL     1      -3.632  10.374  -0.978  0.00  0.00    -0.315 N 
ATOM      6  C   UNL     1      -4.484   9.771  -1.994  0.00  0.00    +0.059 C 
ATOM      7  C   UNL     1      -5.811  10.518  -2.090  0.00  0.00    +0.020 C 
ATOM      8  C   UNL     1      -6.611  10.361  -0.795  0.00  0.00    +0.002 C 
ATOM      9  C   UNL     1      -6.873   8.873  -0.545  0.00  0.00    -0.001 C 
ATOM     10  C   UNL     1      -5.537   8.145  -0.395  0.00  0.00    -0.014 C 
ATOM     11  C   UNL     1      -4.718   8.294  -1.680  0.00  0.00    -0.050 C 
ATOM     12  H   UNL     1      -3.635  11.339  -0.879  0.00  0.00    +0.149 HD
ATOM     13  N   UNL     1      -3.401   7.655  -1.472  0.00  0.00    +0.390 N 
ATOM     14  H   UNL     1      -3.521   6.637  -1.417  0.00  0.00    -0.084 HD
ATOM     15  H   UNL     1      -2.783   7.885  -2.259  0.00  0.00    -0.084 HD
ENDBRANCH   1   2
BRANCH   1  17
ATOM     16  N   UNL     1      -0.132   5.530   0.046  0.00  0.00    -0.285 N 
ATOM     17  C   UNL     1      -1.314   6.172  -0.038  0.00  0.00    +0.216 C 
ATOM     18  O   UNL     1      -2.349   5.539  -0.035  0.00  0.00    -0.276 OA
ATOM     19  H   UNL     1       0.692   6.038   0.110  0.00  0.00    +0.155 HD
BRANCH  16  25
ATOM     20  C   UNL     1      -1.105   3.404   0.654  0.00  0.00    +0.027 A 
ATOM     21  C   UNL     1      -1.063   2.023   0.654  0.00  0.00    +0.051 A 
ATOM     22  C   UNL     1      -0.016   1.358   0.035  0.00  0.00    +0.162 A 
ATOM     23  C   UNL     1       0.998   2.082  -0.583  0.00  0.00    +0.164 A 
ATOM     24  C   UNL     1       0.959   3.467  -0.578  0.00  0.00    +0.072 A 
ATOM     25  C   UNL     1      -0.092   4.130   0.040  0.00  0.00    +0.037 A 
ATOM     26  O   UNL     1       2.034   1.446  -1.196  0.00  0.00    -0.485 OA
ATOM     27  C   UNL     1       2.235   0.070  -0.858  0.00  0.00    +0.270 C 
ATOM     28  C   UNL     1       0.875  -0.640  -0.901  0.00  0.00    +0.270 C 
ATOM     29  O   UNL     1       0.008  -0.004   0.044  0.00  0.00    -0.485 OA
ENDBRANCH  16  25
ENDBRANCH   1  17
TORSDOF 3
