REMARK  Name = ZINC66754510
REMARK  10 active torsions:
REMARK  status: ('A' for Active; 'I' for Inactive)
REMARK    1  A    between atoms: C_1  and  C_2
REMARK    2  A    between atoms: C_3  and  C_8
REMARK    3  A    between atoms: N_6  and  C_7
REMARK    4  A    between atoms: N_10  and  C_11
REMARK    5  A    between atoms: C_11  and  C_13
REMARK    6  A    between atoms: C_11  and  C_14
REMARK    7  A    between atoms: C_18  and  S_20
REMARK    8  A    between atoms: S_20  and  N_23
REMARK    9  A    between atoms: N_23  and  C_24
REMARK   10  A    between atoms: N_23  and  C_25
REMARK                            x       y       z     vdW  Elec       q    Type
REMARK                         _______ _______ _______ _____ _____    ______ ____
ROOT
ATOM      1  C   UNL     1      -0.010  -0.835  -4.912  0.00  0.00    +0.100 C 
ATOM      2  C   UNL     1       1.421  -0.540  -5.367  0.00  0.00    +0.033 C 
ENDROOT
BRANCH   1   3
ATOM      3  C   UNL     1      -0.600  -1.919  -5.777  0.00  0.00    -0.026 A 
ATOM      4  C   UNL     1      -0.291  -3.244  -5.532  0.00  0.00    +0.005 A 
ATOM      5  C   UNL     1      -0.832  -4.238  -6.325  0.00  0.00    +0.002 A 
ATOM      6  C   UNL     1      -1.681  -3.907  -7.365  0.00  0.00    +0.028 A 
ATOM      7  C   UNL     1      -1.990  -2.582  -7.610  0.00  0.00    +0.106 A 
ATOM      8  C   UNL     1      -1.453  -1.588  -6.813  0.00  0.00    +0.034 A 
BRANCH   7   9
ATOM      9  S   UNL     1      -3.072  -2.161  -8.935  0.00  0.00    +0.060 S 
ATOM     10  O   UNL     1      -2.771  -0.820  -9.295  0.00  0.00    -0.153 OA
ATOM     11  O   UNL     1      -3.011  -3.232  -9.866  0.00  0.00    -0.153 OA
BRANCH   9  12
ATOM     12  N   UNL     1      -4.612  -2.152  -8.326  0.00  0.00    -0.183 NA
ATOM     13  C   UNL     1      -5.171  -0.919  -7.765  0.00  0.00    +0.131 C 
ATOM     14  C   UNL     1      -5.416  -3.377  -8.347  0.00  0.00    +0.131 C 
ENDBRANCH   9  12
ENDBRANCH   7   9
ENDBRANCH   1   3
BRANCH   1  17
ATOM     15  C   UNL     1      -0.005  -0.369  -2.520  0.00  0.00    +0.248 C 
ATOM     16  O   UNL     1      -0.023   0.818  -2.781  0.00  0.00    -0.270 OA
ATOM     17  N   UNL     1       0.003  -1.278  -3.516  0.00  0.00    -0.305 N 
ATOM     18  H   UNL     1       0.017  -2.225  -3.308  0.00  0.00    +0.150 HD
BRANCH  15  21
ATOM     19  C   UNL     1      -0.018   1.503   0.010  0.00  0.00    +0.066 C 
ATOM     20  C   UNL     1       0.002  -0.004   0.002  0.00  0.00    +0.048 A 
ATOM     21  C   UNL     1       0.008  -0.815  -1.115  0.00  0.00    +0.077 A 
ATOM     22  C   UNL     1       0.029  -2.152  -0.660  0.00  0.00    +0.147 A 
ATOM     23  N   UNL     1       0.035  -2.134   0.645  0.00  0.00    -0.179 NA
ATOM     24  N   UNL     1       0.024  -0.804   1.080  0.00  0.00    -0.271 N 
ATOM     25  C   UNL     1       0.031  -0.360   2.476  0.00  0.00    +0.172 C 
ENDBRANCH  15  21
ENDBRANCH   1  17
TORSDOF 5
