REMARK  Name = ZINC50618694
REMARK  6 active torsions:
REMARK  status: ('A' for Active; 'I' for Inactive)
REMARK    1  A    between atoms: C_1  and  C_2
REMARK    2  A    between atoms: C_2  and  N_3
REMARK    3  A    between atoms: N_3  and  C_4
REMARK    4  A    between atoms: C_4  and  C_6
REMARK    5  A    between atoms: C_4  and  C_7
REMARK    6  A    between atoms: C_10  and  C_12
REMARK                            x       y       z     vdW  Elec       q    Type
REMARK                         _______ _______ _______ _____ _____    ______ ____
ROOT
ATOM      1  C   UNL     1       1.565  -2.457   2.337  0.00  0.00    +0.204 A 
ATOM      2  N   UNL     1       1.516  -2.023   3.566  0.00  0.00    -0.114 NA
ATOM      3  N   UNL     1       2.363  -2.672   4.285  0.00  0.00    -0.107 NA
ATOM      4  C   UNL     1       2.987  -3.549   3.534  0.00  0.00    +0.249 A 
ATOM      5  O   UNL     1       2.489  -3.432   2.287  0.00  0.00    -0.422 OA
ENDROOT
BRANCH   4   6
ATOM      6  C   UNL     1       4.036  -4.492   3.975  0.00  0.00    +0.055 A 
ATOM      7  C   UNL     1       4.619  -5.369   3.059  0.00  0.00    +0.052 A 
ATOM      8  C   UNL     1       5.600  -6.248   3.478  0.00  0.00    +0.124 A 
ATOM      9  C   UNL     1       6.003  -6.259   4.804  0.00  0.00    +0.039 A 
ATOM     10  C   UNL     1       5.428  -5.393   5.715  0.00  0.00    +0.019 A 
ATOM     11  C   UNL     1       4.452  -4.505   5.308  0.00  0.00    +0.030 A 
ATOM     12 BR   UNL     1       3.674  -3.315   6.554  0.00  0.00    -0.050 Br
ATOM     13  F   UNL     1       6.165  -7.098   2.594  0.00  0.00    -0.205 F 
ENDBRANCH   4   6
BRANCH   1  14
ATOM     14  C   UNL     1       0.733  -1.960   1.184  0.00  0.00    +0.015 C 
ATOM     15  C   UNL     1      -0.696  -2.490   1.321  0.00  0.00    -0.004 C 
BRANCH  14  16
ATOM     16  N   UNL     1       0.713  -0.491   1.192  0.00  0.00    +0.386 N 
ATOM     17  H   UNL     1       1.659  -0.141   1.185  0.00  0.00    -0.085 HD
ATOM     18  H   UNL     1       0.240  -0.165   2.022  0.00  0.00    -0.085 HD
BRANCH  16  20
ATOM     19  C   UNL     1      -0.019   1.526   0.010  0.00  0.00    -0.017 C 
ATOM     20  C   UNL     1       0.002  -0.004   0.002  0.00  0.00    -0.085 C 
ENDBRANCH  16  20
ENDBRANCH  14  16
ENDBRANCH   1  14
TORSDOF 4
