REMARK  Name = ZINC20386198
REMARK  7 active torsions:
REMARK  status: ('A' for Active; 'I' for Inactive)
REMARK    1  A    between atoms: C_1  and  C_2
REMARK    2  A    between atoms: C_2  and  C_4
REMARK    3  A    between atoms: C_2  and  O_11
REMARK    4  A    between atoms: N_9  and  C_10
REMARK    5  A    between atoms: O_11  and  C_12
REMARK    6  A    between atoms: C_15  and  C_18
REMARK    7  A    between atoms: C_18  and  N_19
REMARK                            x       y       z     vdW  Elec       q    Type
REMARK                         _______ _______ _______ _____ _____    ______ ____
ROOT
ATOM      1  O   UNL     1      -3.581   1.766   0.029  0.00  0.00    -0.480 OA
ENDROOT
BRANCH   1   2
ATOM      2  C   UNL     1      -4.754   1.314   0.543  0.00  0.00    +0.122 A 
ATOM      3  C   UNL     1      -5.888   2.113   0.496  0.00  0.00    +0.046 A 
ATOM      4  C   UNL     1      -7.081   1.649   1.014  0.00  0.00    +0.005 A 
ATOM      5  C   UNL     1      -7.144   0.394   1.591  0.00  0.00    -0.065 A 
ATOM      6  C   UNL     1      -6.014  -0.402   1.646  0.00  0.00    +0.005 A 
ATOM      7  C   UNL     1      -4.820   0.056   1.123  0.00  0.00    +0.046 A 
BRANCH   5   8
ATOM      8  C   UNL     1      -8.445  -0.107   2.162  0.00  0.00    -0.051 C 
BRANCH   8   9
ATOM      9  N   UNL     1      -8.540   0.279   3.577  0.00  0.00    +0.381 N 
ATOM     10  H   UNL     1      -9.490  -0.087   3.993  0.00  0.00    -0.090 HD
ATOM     11  H   UNL     1      -8.501   1.375   3.661  0.00  0.00    -0.090 HD
ATOM     12  H   UNL     1      -7.701  -0.163   4.134  0.00  0.00    -0.090 HD
ENDBRANCH   8   9
ENDBRANCH   5   8
ENDBRANCH   1   2
BRANCH   1  14
ATOM     13  C   UNL     1      -2.365  -0.117  -0.875  0.00  0.00    +0.062 C 
ATOM     14  C   UNL     1      -2.427   0.946   0.225  0.00  0.00    +0.256 C 
BRANCH  14  15
ATOM     15  C   UNL     1      -1.187   1.800   0.168  0.00  0.00    +0.261 C 
ATOM     16  O   UNL     1      -1.282   2.994  -0.021  0.00  0.00    -0.271 OA
ATOM     17  N   UNL     1       0.027   1.237   0.328  0.00  0.00    -0.237 N 
ATOM     18  C   UNL     1       1.136   2.000   0.273  0.00  0.00    +0.306 C 
ATOM     19  O   UNL     1       1.041   3.197   0.083  0.00  0.00    -0.252 OA
ATOM     20  N   UNL     1       2.350   1.437   0.427  0.00  0.00    -0.302 N 
ATOM     21  C   UNL     1       3.556   2.266   0.366  0.00  0.00    +0.129 C 
ATOM     22  H   UNL     1       0.112   0.155   0.504  0.00  0.00    +0.159 HD
ATOM     23  H   UNL     1       2.436   0.353   0.599  0.00  0.00    +0.150 HD
ENDBRANCH  14  15
ENDBRANCH   1  14
TORSDOF 5
