REMARK  Name = ZINC50773369
REMARK  6 active torsions:
REMARK  status: ('A' for Active; 'I' for Inactive)
REMARK    1  A    between atoms: C_1  and  N_2
REMARK    2  A    between atoms: C_4  and  C_10
REMARK    3  A    between atoms: N_12  and  C_13
REMARK    4  A    between atoms: C_13  and  C_14
REMARK    5  A    between atoms: C_14  and  C_15
REMARK    6  A    between atoms: C_18  and  O_21
REMARK                            x       y       z     vdW  Elec       q    Type
REMARK                         _______ _______ _______ _____ _____    ______ ____
ROOT
ATOM      1  C   UNL     1       0.184  -2.839   0.152  0.00  0.00    +0.247 C 
ATOM      2  O   UNL     1      -0.423  -2.262   1.034  0.00  0.00    -0.270 OA
ATOM      3  N   UNL     1       0.381  -4.170   0.230  0.00  0.00    -0.311 N 
ATOM      4  H   UNL     1       0.865  -4.630  -0.473  0.00  0.00    +0.149 HD
ENDROOT
BRANCH   1   8
ATOM      5  C   UNL     1       0.043   1.464   0.041  0.00  0.00    +0.127 C 
ATOM      6  N   UNL     1       0.036  -0.001   0.019  0.00  0.00    -0.332 N 
ATOM      7  C   UNL     1       0.617  -0.680  -1.036  0.00  0.00    +0.131 A 
ATOM      8  C   UNL     1       0.706  -2.083  -1.001  0.00  0.00    +0.077 A 
ATOM      9  C   UNL     1       1.298  -2.748  -2.080  0.00  0.00    +0.033 A 
ATOM     10  C   UNL     1       1.773  -1.992  -3.138  0.00  0.00    +0.037 A 
ATOM     11  C   UNL     1       1.649  -0.614  -3.101  0.00  0.00    +0.128 A 
ATOM     12  N   UNL     1       1.083  -0.006  -2.076  0.00  0.00    -0.239 NA
ATOM     13 BR   UNL     1       2.583  -2.835  -4.624  0.00  0.00    -0.049 Br
ATOM     14  H   UNL     1      -0.377  -0.495   0.745  0.00  0.00    +0.147 HD
ENDBRANCH   1   8
BRANCH   3  15
ATOM     15  C   UNL     1      -0.138  -4.921   1.376  0.00  0.00    +0.109 C 
BRANCH  15  16
ATOM     16  C   UNL     1       0.219  -6.401   1.219  0.00  0.00    +0.054 C 
BRANCH  16  17
ATOM     17  C   UNL     1      -0.314  -7.174   2.398  0.00  0.00    -0.046 A 
ATOM     18  C   UNL     1       0.468  -7.337   3.526  0.00  0.00    +0.007 A 
ATOM     19  C   UNL     1      -0.018  -8.046   4.608  0.00  0.00    +0.045 A 
ATOM     20  C   UNL     1      -1.292  -8.593   4.561  0.00  0.00    +0.117 A 
ATOM     21  C   UNL     1      -2.075  -8.428   3.428  0.00  0.00    +0.045 A 
ATOM     22  C   UNL     1      -1.586  -7.714   2.351  0.00  0.00    +0.007 A 
BRANCH  20  23
ATOM     23  O   UNL     1      -1.772  -9.291   5.624  0.00  0.00    -0.507 OA
ATOM     24  H   UNL     1      -2.244  -8.748   6.270  0.00  0.00    +0.292 HD
ENDBRANCH  20  23
ENDBRANCH  16  17
ENDBRANCH  15  16
ENDBRANCH   3  15
TORSDOF 5
