REMARK  Name = ZINC30509602
REMARK  10 active torsions:
REMARK  status: ('A' for Active; 'I' for Inactive)
REMARK    1  A    between atoms: C_1  and  C_2
REMARK    2  A    between atoms: C_2  and  N_3
REMARK    3  A    between atoms: C_7  and  C_9
REMARK    4  A    between atoms: C_9  and  C_11
REMARK    5  A    between atoms: C_9  and  N_12
REMARK    6  A    between atoms: N_12  and  C_13
REMARK    7  A    between atoms: C_13  and  C_15
REMARK    8  A    between atoms: C_13  and  C_16
REMARK    9  A    between atoms: C_19  and  O_23
REMARK   10  A    between atoms: O_23  and  C_24
REMARK                            x       y       z     vdW  Elec       q    Type
REMARK                         _______ _______ _______ _____ _____    ______ ____
ROOT
ATOM      1  N   UNL     1      -0.701   1.982   1.238  0.00  0.00    +0.391 N 
ATOM      2  H   UNL     1       0.087   2.116   1.994  0.00  0.00    -0.084 HD
ATOM      3  H   UNL     1      -1.441   1.255   1.605  0.00  0.00    -0.084 HD
ENDROOT
BRANCH   1   4
ATOM      4  C   UNL     1      -1.362   3.269   0.986  0.00  0.00    +0.014 C 
ATOM      5  C   UNL     1      -0.330   4.396   1.059  0.00  0.00    -0.004 C 
BRANCH   4  10
ATOM      6  N   UNL     1      -4.869   5.952   2.888  0.00  0.00    -0.299 N 
ATOM      7  C   UNL     1      -4.127   4.827   2.921  0.00  0.00    +0.306 C 
ATOM      8  O   UNL     1      -4.318   3.997   3.788  0.00  0.00    -0.252 OA
ATOM      9  N   UNL     1      -3.172   4.622   1.992  0.00  0.00    -0.242 N 
ATOM     10  C   UNL     1      -2.430   3.498   2.024  0.00  0.00    +0.206 C 
ATOM     11  O   UNL     1      -2.621   2.670   2.889  0.00  0.00    -0.277 OA
ATOM     12  H   UNL     1      -4.695   6.702   2.103  0.00  0.00    +0.150 HD
ATOM     13  H   UNL     1      -2.998   5.373   1.207  0.00  0.00    +0.159 HD
BRANCH   6  15
ATOM     14  C   UNL     1      -6.595   7.515   3.635  0.00  0.00    +0.024 C 
ATOM     15  C   UNL     1      -5.906   6.174   3.898  0.00  0.00    +0.102 C 
ENDBRANCH   6  15
ENDBRANCH   4  10
ENDBRANCH   1   4
BRANCH   1  16
ATOM     16  C   UNL     1      -0.091   1.453   0.010  0.00  0.00    -0.043 C 
ATOM     17  C   UNL     1       1.032   0.481   0.377  0.00  0.00    -0.009 C 
BRANCH  16  18
ATOM     18  C   UNL     1      -1.137   0.731  -0.799  0.00  0.00    -0.060 A 
ATOM     19  C   UNL     1      -1.156   0.862  -2.176  0.00  0.00    +0.005 A 
ATOM     20  C   UNL     1      -2.113   0.201  -2.921  0.00  0.00    +0.047 A 
ATOM     21  C   UNL     1      -3.056  -0.595  -2.288  0.00  0.00    +0.134 A 
ATOM     22  C   UNL     1      -3.036  -0.725  -0.906  0.00  0.00    +0.060 A 
ATOM     23  C   UNL     1      -2.072  -0.065  -0.166  0.00  0.00    +0.021 A 
ATOM     24 BR   UNL     1      -4.319  -1.808  -0.038  0.00  0.00    -0.047 Br
BRANCH  21  25
ATOM     25  O   UNL     1      -3.998  -1.246  -3.019  0.00  0.00    -0.494 OA
ATOM     26  C   UNL     1      -3.959  -1.067  -4.436  0.00  0.00    +0.277 C 
ENDBRANCH  21  25
ENDBRANCH  16  18
ENDBRANCH   1  16
TORSDOF 6
