REMARK  Name = ZINC63122354
REMARK  10 active torsions:
REMARK  status: ('A' for Active; 'I' for Inactive)
REMARK    1  A    between atoms: C_1  and  C_2
REMARK    2  A    between atoms: C_4  and  C_12
REMARK    3  A    between atoms: C_18  and  C_20
REMARK    4  A    between atoms: C_20  and  C_21
REMARK    5  A    between atoms: C_21  and  C_22
REMARK    6  A    between atoms: C_23  and  C_33
REMARK    7  A    between atoms: N_25  and  C_29
REMARK    8  A    between atoms: C_26  and  C_28
REMARK    9  A    between atoms: C_29  and  C_30
REMARK   10  A    between atoms: C_30  and  C_31
REMARK                            x       y       z     vdW  Elec       q    Type
REMARK                         _______ _______ _______ _____ _____    ______ ____
ROOT
ATOM      1  C   UNL     1       0.379  -0.285  -2.575  0.00  0.00    +0.079 A 
ATOM      2  C   UNL     1       1.196  -0.730  -3.606  0.00  0.00    +0.076 A 
ATOM      3  S   UNL     1       0.358  -0.230  -4.976  0.00  0.00    -0.060 S 
ATOM      4  C   UNL     1      -1.030   0.543  -4.167  0.00  0.00    +0.165 A 
ATOM      5  N   UNL     1      -0.752   0.356  -2.895  0.00  0.00    -0.225 NA
ATOM      6  N   UNL     1      -2.126   1.176  -4.734  0.00  0.00    -0.265 N 
ATOM      7  C   UNL     1      -2.236   1.262  -6.075  0.00  0.00    +0.219 C 
ATOM      8  O   UNL     1      -1.375   0.787  -6.785  0.00  0.00    -0.275 OA
ATOM      9  H   UNL     1      -2.814   1.557  -4.166  0.00  0.00    +0.157 HD
ENDROOT
BRANCH   1  12
ATOM     10  C   UNL     1       1.782  -2.769  -1.166  0.00  0.00    +0.035 C 
ATOM     11  C   UNL     1       1.898  -1.315  -0.705  0.00  0.00    +0.109 C 
ATOM     12  C   UNL     1       0.728  -0.508  -1.226  0.00  0.00    +0.009 C 
ATOM     13  C   UNL     1       0.068  -0.033  -0.096  0.00  0.00    +0.005 A 
ATOM     14  C   UNL     1      -1.082   0.770   0.069  0.00  0.00    +0.010 A 
ATOM     15  C   UNL     1      -1.509   1.086   1.318  0.00  0.00    +0.001 A 
ATOM     16  C   UNL     1      -0.837   0.636   2.457  0.00  0.00    +0.002 A 
ATOM     17  C   UNL     1       0.273  -0.138   2.373  0.00  0.00    +0.026 A 
ATOM     18  C   UNL     1       0.779  -0.510   1.101  0.00  0.00    +0.043 A 
ATOM     19  N   UNL     1       1.824  -1.241   0.757  0.00  0.00    -0.377 N 
ATOM     20  H   UNL     1       2.443  -1.662   1.373  0.00  0.00    +0.160 HD
ENDBRANCH   1  12
BRANCH   7  21
ATOM     21  C   UNL     1      -3.426   1.950  -6.691  0.00  0.00    +0.100 C 
BRANCH  21  22
ATOM     22  C   UNL     1      -3.306   1.909  -8.216  0.00  0.00    +0.043 C 
BRANCH  22  23
ATOM     23  C   UNL     1      -4.497   2.597  -8.832  0.00  0.00    -0.033 C 
ATOM     24  C   UNL     1      -4.562   3.852  -9.226  0.00  0.00    +0.017 C 
ATOM     25  N   UNL     1      -5.803   4.161  -9.749  0.00  0.00    -0.281 N 
ATOM     26  N   UNL     1      -6.633   3.077  -9.716  0.00  0.00    -0.222 NA
ATOM     27  C   UNL     1      -5.846   1.976  -9.124  0.00  0.00    +0.100 C 
ATOM     28  C   UNL     1      -6.503   1.490  -7.830  0.00  0.00    +0.030 C 
ATOM     29  C   UNL     1      -3.422   4.832  -9.120  0.00  0.00    +0.062 C 
ATOM     30  H   UNL     1      -6.052   5.033 -10.093  0.00  0.00    +0.166 HD
BRANCH  26  31
ATOM     31  C   UNL     1      -7.835   3.358  -8.921  0.00  0.00    +0.121 C 
BRANCH  31  32
ATOM     32  C   UNL     1      -8.654   4.455  -9.605  0.00  0.00    +0.135 C 
BRANCH  32  33
ATOM     33  C   UNL     1      -9.860   4.736  -8.809  0.00  0.00    +0.064 C 
ATOM     34  N   UNL     1     -10.790   4.954  -8.194  0.00  0.00    -0.197 NA
ENDBRANCH  32  33
ENDBRANCH  31  32
ENDBRANCH  26  31
ENDBRANCH  22  23
ENDBRANCH  21  22
ENDBRANCH   7  21
TORSDOF 7
