REMARK  Name = ZINC06909129
REMARK  10 active torsions:
REMARK  status: ('A' for Active; 'I' for Inactive)
REMARK    1  A    between atoms: C_3  and  O_24
REMARK    2  A    between atoms: C_4  and  C_8
REMARK    3  A    between atoms: N_9  and  C_10
REMARK    4  A    between atoms: C_10  and  C_11
REMARK    5  A    between atoms: C_11  and  C_12
REMARK    6  A    between atoms: C_12  and  C_13
REMARK    7  A    between atoms: C_13  and  C_14
REMARK    8  A    between atoms: C_14  and  C_15
REMARK    9  A    between atoms: C_16  and  C_22
REMARK   10  A    between atoms: C_17  and  N_21
REMARK                            x       y       z     vdW  Elec       q    Type
REMARK                         _______ _______ _______ _____ _____    ______ ____
ROOT
ATOM      1  C   UNL     1       6.139   0.983  -2.938  0.00  0.00    +0.021 C 
ENDROOT
BRANCH   1   2
ATOM      2  C   UNL     1       7.668   1.052  -2.952  0.00  0.00    +0.112 C 
BRANCH   2   4
ATOM      3  C   UNL     1       8.754   2.128  -4.791  0.00  0.00    +0.089 C 
ATOM      4  N   UNL     1       8.142   1.081  -4.338  0.00  0.00    -0.390 N 
ATOM      5  H   UNL     1       7.978   0.214  -4.994  0.00  0.00    +0.159 HD
BRANCH   3   9
ATOM      6  C   UNL     1      10.129   2.214  -8.809  0.00  0.00    +0.019 A 
ATOM      7  C   UNL     1       9.477   1.093  -8.334  0.00  0.00    +0.047 A 
ATOM      8  C   UNL     1       9.029   1.052  -7.022  0.00  0.00    +0.125 A 
ATOM      9  C   UNL     1       9.231   2.158  -6.185  0.00  0.00    +0.033 A 
ATOM     10  C   UNL     1       9.892   3.286  -6.677  0.00  0.00    +0.028 A 
ATOM     11  C   UNL     1      10.336   3.307  -7.983  0.00  0.00    +0.019 A 
ATOM     12 BR   UNL     1      11.230   4.834  -8.649  0.00  0.00    -0.050 Br
BRANCH   8  13
ATOM     13  O   UNL     1       8.393  -0.051  -6.553  0.00  0.00    -0.506 OA
ATOM     14  H   UNL     1       8.039  -0.081  -5.512  0.00  0.00    +0.292 HD
ENDBRANCH   8  13
ENDBRANCH   3   9
ENDBRANCH   2   4
ENDBRANCH   1   2
BRANCH   1  15
ATOM     15  C   UNL     1       5.644   0.953  -1.490  0.00  0.00    +0.002 C 
BRANCH  15  16
ATOM     16  C   UNL     1       4.116   0.884  -1.476  0.00  0.00    +0.006 C 
BRANCH  16  17
ATOM     17  C   UNL     1       3.621   0.853  -0.028  0.00  0.00    +0.058 C 
BRANCH  17  18
ATOM     18  C   UNL     1       2.115   0.786  -0.014  0.00  0.00    +0.082 A 
ATOM     19  C   UNL     1       1.338  -0.396  -0.013  0.00  0.00    +0.113 A 
ATOM     20  C   UNL     1       0.002  -0.004   0.002  0.00  0.00    +0.129 A 
ATOM     21  N   UNL     1      -0.016   1.345   0.009  0.00  0.00    -0.263 N 
ATOM     22  H   UNL     1      -0.976   1.882   0.021  0.00  0.00    +0.190 HD
ATOM     23  N   UNL     1       1.304   1.806  -0.001  0.00  0.00    -0.176 NA
BRANCH  20  24
ATOM     24  N   UNL     1      -1.098  -0.840   0.008  0.00  0.00    -0.342 N 
ATOM     25  H   UNL     1      -2.112  -0.414   0.020  0.00  0.00    +0.144 HD
ATOM     26  H   UNL     1      -0.960  -1.931   0.001  0.00  0.00    +0.144 HD
ENDBRANCH  20  24
BRANCH  19  27
ATOM     27  C   UNL     1       1.831  -1.740  -0.025  0.00  0.00    +0.104 C 
ATOM     28  N   UNL     1       2.223  -2.806  -0.035  0.00  0.00    -0.191 NA
ENDBRANCH  19  27
ENDBRANCH  17  18
ENDBRANCH  16  17
ENDBRANCH  15  16
ENDBRANCH   1  15
TORSDOF 10
