REMARK  Name = ZINC49609281
REMARK  8 active torsions:
REMARK  status: ('A' for Active; 'I' for Inactive)
REMARK    1  A    between atoms: C_1  and  C_2
REMARK    2  A    between atoms: C_2  and  C_3
REMARK    3  A    between atoms: C_2  and  N_4
REMARK    4  A    between atoms: N_7  and  C_10
REMARK    5  A    between atoms: C_10  and  C_11
REMARK    6  A    between atoms: C_16  and  C_17
REMARK    7  A    between atoms: C_18  and  C_19
REMARK    8  A    between atoms: C_19  and  N_20
REMARK                            x       y       z     vdW  Elec       q    Type
REMARK                         _______ _______ _______ _____ _____    ______ ____
ROOT
ATOM      1  C   UNL     1       1.205  -3.961   4.978  0.00  0.00    -0.018 A 
ATOM      2  C   UNL     1       2.213  -4.883   4.781  0.00  0.00    +0.009 A 
ATOM      3  C   UNL     1       1.953  -6.235   4.911  0.00  0.00    +0.039 A 
ATOM      4  C   UNL     1       0.681  -6.673   5.241  0.00  0.00    +0.125 A 
ATOM      5  C   UNL     1      -0.337  -5.760   5.441  0.00  0.00    +0.055 A 
ATOM      6  C   UNL     1      -0.078  -4.394   5.316  0.00  0.00    +0.032 A 
ATOM      7  F   UNL     1       0.434  -7.995   5.366  0.00  0.00    -0.205 F 
ENDROOT
BRANCH   6   8
ATOM      8  C   UNL     1      -1.126  -3.442   5.528  0.00  0.00    -0.068 C 
ATOM      9  C   UNL     1      -1.985  -2.661   5.702  0.00  0.00    -0.117 C 
BRANCH   9  10
ATOM     10  C   UNL     1      -3.062  -1.682   5.920  0.00  0.00    +0.005 C 
BRANCH  10  11
ATOM     11  N   UNL     1      -4.304  -2.388   6.261  0.00  0.00    +0.385 N 
ATOM     12  H   UNL     1      -4.559  -3.005   5.505  0.00  0.00    -0.089 HD
ATOM     13  H   UNL     1      -4.164  -2.927   7.103  0.00  0.00    -0.089 HD
ATOM     14  H   UNL     1      -5.043  -1.717   6.411  0.00  0.00    -0.089 HD
ENDBRANCH  10  11
ENDBRANCH   9  10
ENDBRANCH   6   8
BRANCH   1  15
ATOM     15  C   UNL     1       1.490  -2.488   4.835  0.00  0.00    +0.120 C 
BRANCH  15  19
ATOM     16  N   UNL     1       0.985  -0.539   1.118  0.00  0.00    +0.383 N 
ATOM     17  C   UNL     1       0.191  -0.066   2.260  0.00  0.00    -0.063 C 
ATOM     18  C   UNL     1       0.844  -0.531   3.563  0.00  0.00    +0.066 C 
ATOM     19  N   UNL     1       0.920  -1.999   3.573  0.00  0.00    -0.302 NA
ATOM     20  C   UNL     1       1.692  -2.489   2.422  0.00  0.00    +0.066 C 
ATOM     21  C   UNL     1       1.032  -2.008   1.128  0.00  0.00    -0.063 C 
ATOM     22  H   UNL     1       1.923  -0.173   1.186  0.00  0.00    -0.081 HD
BRANCH  16  24
ATOM     23  C   UNL     1       0.320   1.452  -0.142  0.00  0.00    -0.014 C 
ATOM     24  C   UNL     1       0.368  -0.077  -0.132  0.00  0.00    -0.075 C 
ATOM     25  C   UNL     1       1.197  -0.569  -1.321  0.00  0.00    -0.014 C 
ENDBRANCH  16  24
ENDBRANCH  15  19
ENDBRANCH   1  15
TORSDOF 6
