REMARK  Name = ZINC57450111
REMARK  12 active torsions:
REMARK  status: ('A' for Active; 'I' for Inactive)
REMARK    1  A    between atoms: C_1  and  C_2
REMARK    2  A    between atoms: C_2  and  N_3
REMARK    3  A    between atoms: N_3  and  C_4
REMARK    4  A    between atoms: N_3  and  C_20
REMARK    5  A    between atoms: C_4  and  C_5
REMARK    6  A    between atoms: N_10  and  C_11
REMARK    7  A    between atoms: C_17  and  C_19
REMARK    8  A    between atoms: C_20  and  C_21
REMARK    9  A    between atoms: N_23  and  C_24
REMARK   10  A    between atoms: C_24  and  C_25
REMARK   11  A    between atoms: C_24  and  C_26
REMARK   12  A    between atoms: C_24  and  C_27
REMARK                            x       y       z     vdW  Elec       q    Type
REMARK                         _______ _______ _______ _____ _____    ______ ____
ROOT
ATOM      1  C   UNL     1      -0.675  -2.756  -1.281  0.00  0.00    +0.204 C 
ATOM      2  O   UNL     1      -1.629  -2.009  -1.233  0.00  0.00    -0.277 OA
ATOM      3  N   UNL     1      -0.866  -4.088  -1.352  0.00  0.00    -0.242 N 
ATOM      4  C   UNL     1      -2.116  -4.590  -1.369  0.00  0.00    +0.306 C 
ATOM      5  O   UNL     1      -3.072  -3.841  -1.320  0.00  0.00    -0.252 OA
ATOM      6  N   UNL     1      -2.307  -5.922  -1.440  0.00  0.00    -0.296 N 
ATOM      7  H   UNL     1      -0.103  -4.686  -1.391  0.00  0.00    +0.159 HD
ATOM      8  H   UNL     1      -1.544  -6.520  -1.479  0.00  0.00    +0.151 HD
ENDROOT
BRANCH   6   9
ATOM      9  C   UNL     1      -3.667  -6.468  -1.458  0.00  0.00    +0.077 C 
ATOM     10  C   UNL     1      -4.199  -6.463  -2.892  0.00  0.00    +0.022 C 
ATOM     11  C   UNL     1      -5.619  -7.033  -2.911  0.00  0.00    +0.002 C 
ATOM     12  C   UNL     1      -5.600  -8.467  -2.379  0.00  0.00    +0.000 C 
ATOM     13  C   UNL     1      -5.068  -8.472  -0.944  0.00  0.00    +0.005 C 
ATOM     14  C   UNL     1      -3.648  -7.902  -0.925  0.00  0.00    +0.006 C 
ATOM     15  C   UNL     1      -3.115  -7.907   0.509  0.00  0.00    +0.009 C 
ENDBRANCH   6   9
BRANCH   1  16
ATOM     16  C   UNL     1       0.724  -2.195  -1.263  0.00  0.00    +0.020 C 
BRANCH  16  17
ATOM     17  N   UNL     1       0.662  -0.729  -1.183  0.00  0.00    +0.391 N 
ATOM     18  H   UNL     1       0.096  -0.374  -1.939  0.00  0.00    -0.080 HD
BRANCH  17  20
ATOM     19  C   UNL     1      -0.124   1.184   0.128  0.00  0.00    -0.017 C 
ATOM     20  C   UNL     1       0.068  -0.334   0.101  0.00  0.00    -0.081 C 
ENDBRANCH  17  20
BRANCH  17  21
ATOM     21  C   UNL     1       2.019  -0.176  -1.285  0.00  0.00    +0.019 C 
BRANCH  21  22
ATOM     22  C   UNL     1       2.565  -0.436  -2.666  0.00  0.00    +0.197 C 
ATOM     23  O   UNL     1       1.851  -0.919  -3.518  0.00  0.00    -0.278 OA
ATOM     24  N   UNL     1       3.846  -0.130  -2.952  0.00  0.00    -0.312 N 
ATOM     25  H   UNL     1       4.417   0.256  -2.270  0.00  0.00    +0.149 HD
BRANCH  24  26
ATOM     26  C   UNL     1       4.376  -0.383  -4.294  0.00  0.00    +0.026 C 
ATOM     27  C   UNL     1       3.568   0.414  -5.320  0.00  0.00    +0.031 C 
ATOM     28  C   UNL     1       5.842   0.050  -4.353  0.00  0.00    +0.031 C 
ATOM     29  C   UNL     1       4.272  -1.876  -4.611  0.00  0.00    +0.031 C 
ENDBRANCH  24  26
ENDBRANCH  21  22
ENDBRANCH  17  21
ENDBRANCH  16  17
ENDBRANCH   1  16
TORSDOF 7
