REMARK  Name = ZINC36276047
REMARK  5 active torsions:
REMARK  status: ('A' for Active; 'I' for Inactive)
REMARK    1  A    between atoms: C_3  and  N_24
REMARK    2  A    between atoms: C_6  and  C_7
REMARK    3  A    between atoms: C_8  and  C_17
REMARK    4  A    between atoms: C_11  and  N_16
REMARK    5  A    between atoms: C_17  and  N_18
REMARK                            x       y       z     vdW  Elec       q    Type
REMARK                         _______ _______ _______ _____ _____    ______ ____
ROOT
ATOM      1  C   UNL     1      -1.211  -0.910   0.181  0.00  0.00    +0.091 A 
ATOM      2  C   UNL     1      -1.527  -1.901  -0.699  0.00  0.00    +0.035 A 
ATOM      3  N   UNL     1      -2.868  -2.134  -0.577  0.00  0.00    -0.303 N 
ATOM      4  C   UNL     1      -3.711  -3.008  -1.206  0.00  0.00    +0.115 A 
ATOM      5  C   UNL     1      -5.030  -3.038  -0.893  0.00  0.00    +0.041 A 
ATOM      6  C   UNL     1      -5.545  -2.165   0.085  0.00  0.00    +0.028 A 
ATOM      7  C   UNL     1      -4.713  -1.293   0.715  0.00  0.00    +0.048 A 
ATOM      8  C   UNL     1      -3.344  -1.275   0.378  0.00  0.00    +0.138 A 
ATOM      9  N   UNL     1      -2.330  -0.548   0.828  0.00  0.00    -0.228 NA
ENDROOT
BRANCH   1  15
ATOM     10  C   UNL     1       0.299   1.046   0.520  0.00  0.00    +0.012 A 
ATOM     11  C   UNL     1       1.558   1.577   0.716  0.00  0.00    +0.033 A 
ATOM     12  C   UNL     1       2.660   0.744   0.786  0.00  0.00    +0.126 A 
ATOM     13  C   UNL     1       2.507  -0.625   0.659  0.00  0.00    +0.033 A 
ATOM     14  C   UNL     1       1.253  -1.167   0.463  0.00  0.00    +0.012 A 
ATOM     15  C   UNL     1       0.140  -0.333   0.392  0.00  0.00    +0.002 A 
BRANCH  12  16
ATOM     16  N   UNL     1       4.008   1.320   0.997  0.00  0.00    +0.056 N 
ATOM     17  O   UNL     1       4.144   2.516   1.107  0.00  0.00    -0.126 OA
ATOM     18  O   UNL     1       4.973   0.594   1.058  0.00  0.00    -0.126 OA
ENDBRANCH  12  16
ENDBRANCH   1  15
BRANCH   5  19
ATOM     19  N   UNL     1      -5.882  -3.939  -1.546  0.00  0.00    -0.357 N 
ATOM     20  H   UNL     1      -5.529  -4.540  -2.220  0.00  0.00    +0.142 HD
ATOM     21  H   UNL     1      -6.826  -3.961  -1.323  0.00  0.00    +0.142 HD
ENDBRANCH   5  19
BRANCH   2  22
ATOM     22  C   UNL     1      -0.577  -2.609  -1.630  0.00  0.00    -0.022 C 
BRANCH  22  23
ATOM     23  N   UNL     1      -0.647  -1.993  -2.962  0.00  0.00    +0.383 N 
ATOM     24  C   UNL     1      -0.169  -0.607  -2.885  0.00  0.00    -0.078 C 
ATOM     25  C   UNL     1      -0.316   0.064  -4.252  0.00  0.00    -0.019 C 
ATOM     26  C   UNL     1       0.512  -0.706  -5.284  0.00  0.00    -0.004 C 
ATOM     27  C   UNL     1       0.055  -2.167  -5.303  0.00  0.00    -0.019 C 
ATOM     28  C   UNL     1       0.188  -2.756  -3.897  0.00  0.00    -0.078 C 
ATOM     29  H   UNL     1      -1.603  -1.999  -3.284  0.00  0.00    -0.081 HD
ENDBRANCH  22  23
ENDBRANCH   2  22
TORSDOF 5
