REMARK  Name = ZINC19880086
REMARK  8 active torsions:
REMARK  status: ('A' for Active; 'I' for Inactive)
REMARK    1  A    between atoms: C_1  and  C_2
REMARK    2  A    between atoms: C_2  and  O_3
REMARK    3  A    between atoms: O_3  and  C_4
REMARK    4  A    between atoms: C_7  and  C_10
REMARK    5  A    between atoms: C_11  and  C_23
REMARK    6  A    between atoms: C_12  and  N_22
REMARK    7  A    between atoms: C_16  and  N_21
REMARK    8  A    between atoms: C_17  and  C_19
REMARK                            x       y       z     vdW  Elec       q    Type
REMARK                         _______ _______ _______ _____ _____    ______ ____
ROOT
ATOM      1  C   UNL     1       1.286   2.414  -0.898  0.00  0.00    +0.014 A 
ATOM      2  C   UNL     1       0.111   1.767  -1.306  0.00  0.00    +0.100 A 
ATOM      3  C   UNL     1      -1.126   2.433  -1.204  0.00  0.00    +0.136 A 
ATOM      4  N   UNL     1      -1.182   3.660  -0.714  0.00  0.00    -0.224 NA
ATOM      5  C   UNL     1      -0.101   4.304  -0.321  0.00  0.00    +0.114 A 
ATOM      6  C   UNL     1       1.194   3.740  -0.381  0.00  0.00    +0.039 A 
ATOM      7  C   UNL     1       2.264   4.598   0.097  0.00  0.00    +0.059 A 
ATOM      8  C   UNL     1       1.939   5.856   0.558  0.00  0.00    +0.112 A 
ATOM      9  S   UNL     1       0.170   5.923   0.359  0.00  0.00    -0.056 S 
ENDROOT
BRANCH   1  13
ATOM     10  C   UNL     1       5.049   0.465  -1.198  0.00  0.00    +0.121 A 
ATOM     11  C   UNL     1       4.741   1.512  -2.057  0.00  0.00    +0.046 A 
ATOM     12  C   UNL     1       3.522   2.147  -1.963  0.00  0.00    +0.012 A 
ATOM     13  C   UNL     1       2.595   1.736  -1.002  0.00  0.00    -0.016 A 
ATOM     14  C   UNL     1       2.911   0.687  -0.137  0.00  0.00    +0.012 A 
ATOM     15  C   UNL     1       4.130   0.054  -0.240  0.00  0.00    +0.046 A 
BRANCH  10  16
ATOM     16  O   UNL     1       6.252  -0.157  -1.293  0.00  0.00    -0.492 OA
BRANCH  16  18
ATOM     17  C   UNL     1       7.899  -1.800  -0.636  0.00  0.00    +0.048 C 
ATOM     18  C   UNL     1       6.504  -1.226  -0.378  0.00  0.00    +0.225 C 
ENDBRANCH  16  18
ENDBRANCH  10  16
ENDBRANCH   1  13
BRANCH   7  19
ATOM     19  N   UNL     1       3.584   4.161   0.091  0.00  0.00    -0.356 N 
ATOM     20  H   UNL     1       4.384   4.821   0.456  0.00  0.00    +0.142 HD
ATOM     21  H   UNL     1       3.828   3.154  -0.279  0.00  0.00    +0.142 HD
ENDBRANCH   7  19
BRANCH   3  22
ATOM     22  N   UNL     1      -2.286   1.799  -1.611  0.00  0.00    -0.342 N 
ATOM     23  H   UNL     1      -3.252   2.318  -1.532  0.00  0.00    +0.144 HD
ATOM     24  H   UNL     1      -2.241   0.776  -2.014  0.00  0.00    +0.144 HD
ENDBRANCH   3  22
BRANCH   8  25
ATOM     25  C   UNL     1       2.814   6.867   1.071  0.00  0.00    +0.108 C 
ATOM     26  N   UNL     1       3.508   7.669   1.478  0.00  0.00    -0.190 NA
ENDBRANCH   8  25
BRANCH   2  27
ATOM     27  C   UNL     1       0.170   0.435  -1.829  0.00  0.00    +0.103 C 
ATOM     28  N   UNL     1       0.216  -0.621  -2.245  0.00  0.00    -0.191 NA
ENDBRANCH   2  27
TORSDOF 7
