REMARK  Name = ZINC53526073
REMARK  11 active torsions:
REMARK  status: ('A' for Active; 'I' for Inactive)
REMARK    1  A    between atoms: C_1  and  C_2
REMARK    2  A    between atoms: C_2  and  C_4
REMARK    3  A    between atoms: C_2  and  N_14
REMARK    4  A    between atoms: C_8  and  S_10
REMARK    5  A    between atoms: S_10  and  N_13
REMARK    6  A    between atoms: N_17  and  C_18
REMARK    7  A    between atoms: C_18  and  C_19
REMARK    8  A    between atoms: C_19  and  C_21
REMARK    9  A    between atoms: C_19  and  N_26
REMARK   10  A    between atoms: N_26  and  C_27
REMARK   11  A    between atoms: N_26  and  C_28
REMARK                            x       y       z     vdW  Elec       q    Type
REMARK                         _______ _______ _______ _____ _____    ______ ____
ROOT
ATOM      1  N   UNL     1       1.033  -0.870   0.681  0.00  0.00    -0.293 N 
ATOM      2  C   UNL     1       2.371  -0.867   0.848  0.00  0.00    +0.300 C 
ATOM      3  O   UNL     1       3.097  -0.538  -0.070  0.00  0.00    -0.253 OA
ATOM      4  N   UNL     1       2.903  -1.230   2.032  0.00  0.00    -0.301 N 
ATOM      5  H   UNL     1       0.454  -1.133   1.413  0.00  0.00    +0.151 HD
ATOM      6  H   UNL     1       2.323  -1.492   2.764  0.00  0.00    +0.150 HD
ENDROOT
BRANCH   1   8
ATOM      7  C   UNL     1       0.311   1.047  -0.655  0.00  0.00    +0.033 C 
ATOM      8  C   UNL     1       0.455  -0.476  -0.606  0.00  0.00    +0.102 C 
BRANCH   8   9
ATOM      9  C   UNL     1      -0.901  -1.114  -0.763  0.00  0.00    -0.026 A 
ATOM     10  C   UNL     1      -1.760  -1.189   0.318  0.00  0.00    +0.005 A 
ATOM     11  C   UNL     1      -3.003  -1.775   0.173  0.00  0.00    +0.002 A 
ATOM     12  C   UNL     1      -3.389  -2.284  -1.053  0.00  0.00    +0.028 A 
ATOM     13  C   UNL     1      -2.531  -2.208  -2.134  0.00  0.00    +0.105 A 
ATOM     14  C   UNL     1      -1.289  -1.619  -1.990  0.00  0.00    +0.034 A 
BRANCH  13  15
ATOM     15  S   UNL     1      -3.022  -2.859  -3.696  0.00  0.00    +0.056 S 
ATOM     16  O   UNL     1      -1.828  -3.153  -4.407  0.00  0.00    -0.153 OA
ATOM     17  O   UNL     1      -4.014  -3.842  -3.433  0.00  0.00    -0.153 OA
BRANCH  15  18
ATOM     18  N   UNL     1      -3.775  -1.636  -4.521  0.00  0.00    -0.204 NA
ATOM     19  H   UNL     1      -3.737  -1.609  -5.489  0.00  0.00    +0.144 HD
ATOM     20  H   UNL     1      -4.255  -0.947  -4.035  0.00  0.00    +0.144 HD
ENDBRANCH  15  18
ENDBRANCH  13  15
ENDBRANCH   8   9
ENDBRANCH   1   8
BRANCH   4  21
ATOM     21  C   UNL     1       4.357  -1.227   2.213  0.00  0.00    +0.098 C 
BRANCH  21  22
ATOM     22  C   UNL     1       4.690  -1.579   3.664  0.00  0.00    +0.016 C 
BRANCH  22  23
ATOM     23  C   UNL     1       4.165  -0.501   4.577  0.00  0.00    +0.093 A 
ATOM     24  C   UNL     1       4.888   0.498   5.113  0.00  0.00    +0.043 A 
ATOM     25  C   UNL     1       4.002   1.271   5.897  0.00  0.00    +0.041 A 
ATOM     26  C   UNL     1       2.789   0.698   5.794  0.00  0.00    +0.195 A 
ATOM     27  O   UNL     1       2.893  -0.372   4.988  0.00  0.00    -0.469 OA
ENDBRANCH  22  23
BRANCH  22  28
ATOM     28  N   UNL     1       4.066  -2.863   4.012  0.00  0.00    +0.384 N 
ATOM     29  C   UNL     1       4.558  -3.908   3.105  0.00  0.00    -0.096 C 
ATOM     30  C   UNL     1       4.410  -3.215   5.397  0.00  0.00    -0.096 C 
ATOM     31  H   UNL     1       3.064  -2.785   3.924  0.00  0.00    -0.082 HD
ENDBRANCH  22  28
ENDBRANCH  21  22
ENDBRANCH   4  21
TORSDOF 8
