REMARK  Name = ZINC38547644
REMARK  11 active torsions:
REMARK  status: ('A' for Active; 'I' for Inactive)
REMARK    1  A    between atoms: C_1  and  C_2
REMARK    2  A    between atoms: C_6  and  N_8
REMARK    3  A    between atoms: N_8  and  C_9
REMARK    4  A    between atoms: C_9  and  C_11
REMARK    5  A    between atoms: C_9  and  C_19
REMARK    6  A    between atoms: C_14  and  S_17
REMARK    7  A    between atoms: S_17  and  C_18
REMARK    8  A    between atoms: C_20  and  C_33
REMARK    9  A    between atoms: C_21  and  C_32
REMARK   10  A    between atoms: C_23  and  N_24
REMARK   11  A    between atoms: C_25  and  C_27
REMARK                            x       y       z     vdW  Elec       q    Type
REMARK                         _______ _______ _______ _____ _____    ______ ____
ROOT
ATOM      1  C   UNL     1       0.238  -4.196   2.540  0.00  0.00    +0.135 C 
ENDROOT
BRANCH   1   2
ATOM      2  C   UNL     1      -1.003  -4.803   1.938  0.00  0.00    +0.009 A 
ATOM      3  C   UNL     1      -1.676  -5.820   2.589  0.00  0.00    -0.033 A 
ATOM      4  C   UNL     1      -2.789  -6.343   2.020  0.00  0.00    -0.008 A 
ATOM      5  S   UNL     1      -2.920  -5.392   0.515  0.00  0.00    -0.078 S 
ATOM      6  C   UNL     1      -1.485  -4.355   0.745  0.00  0.00    +0.078 A 
ATOM      7  C   UNL     1      -3.685  -7.443   2.526  0.00  0.00    +0.052 C 
ATOM      8  C   UNL     1      -1.179  -6.340   3.913  0.00  0.00    +0.045 C 
BRANCH   6   9
ATOM      9  N   UNL     1      -0.985  -3.348  -0.084  0.00  0.00    -0.273 N 
ATOM     10  C   UNL     1      -1.647  -3.010  -1.208  0.00  0.00    +0.284 C 
ATOM     11  O   UNL     1      -2.728  -3.515  -1.453  0.00  0.00    -0.266 OA
ATOM     12  H   UNL     1      -0.162  -2.892   0.149  0.00  0.00    +0.156 HD
BRANCH  10  13
ATOM     13  C   UNL     1      -1.066  -2.035  -2.137  0.00  0.00    +0.189 A 
ATOM     14  C   UNL     1      -1.668  -1.534  -3.255  0.00  0.00    +0.054 A 
ATOM     15  C   UNL     1      -0.757  -0.639  -3.837  0.00  0.00    +0.042 A 
ATOM     16  C   UNL     1       0.347  -0.633  -3.059  0.00  0.00    +0.196 A 
ATOM     17  O   UNL     1       0.155  -1.472  -2.032  0.00  0.00    -0.458 OA
ENDBRANCH  10  13
ENDBRANCH   6   9
ENDBRANCH   1   2
BRANCH   1  18
ATOM     18  C   UNL     1       1.455  -4.741   1.837  0.00  0.00    -0.023 A 
ATOM     19  C   UNL     1       1.940  -4.109   0.707  0.00  0.00    +0.007 A 
ATOM     20  C   UNL     1       3.054  -4.605   0.060  0.00  0.00    +0.015 A 
ATOM     21  C   UNL     1       3.690  -5.741   0.547  0.00  0.00    +0.008 A 
ATOM     22  C   UNL     1       3.200  -6.373   1.684  0.00  0.00    +0.015 A 
ATOM     23  C   UNL     1       2.088  -5.868   2.328  0.00  0.00    +0.007 A 
BRANCH  21  24
ATOM     24  S   UNL     1       5.112  -6.378  -0.275  0.00  0.00    -0.129 S 
ATOM     25  C   UNL     1       5.573  -7.831   0.709  0.00  0.00    +0.090 C 
ENDBRANCH  21  24
ENDBRANCH   1  18
BRANCH   1  26
ATOM     26  N   UNL     1       0.195  -2.740   2.384  0.00  0.00    -0.320 N 
ATOM     27  H   UNL     1       0.640  -2.319   1.632  0.00  0.00    +0.148 HD
BRANCH  26  33
ATOM     28  C   UNL     1      -0.942   1.632   3.969  0.00  0.00    +0.063 C 
ATOM     29  C   UNL     1      -1.048   0.134   4.100  0.00  0.00    +0.014 A 
ATOM     30  C   UNL     1      -1.802  -0.409   5.121  0.00  0.00    +0.021 A 
ATOM     31  C   UNL     1      -1.896  -1.789   5.237  0.00  0.00    +0.005 A 
ATOM     32  C   UNL     1      -1.226  -2.576   4.318  0.00  0.00    +0.041 A 
ATOM     33  C   UNL     1      -0.484  -1.961   3.314  0.00  0.00    +0.097 A 
ATOM     34  N   UNL     1      -0.423  -0.641   3.234  0.00  0.00    -0.347 N 
ATOM     35  H   UNL     1       0.097  -0.234   2.523  0.00  0.00    +0.167 HD
ENDBRANCH  26  33
ENDBRANCH   1  26
TORSDOF 7
