REMARK  Name = ZINC37720767
REMARK  10 active torsions:
REMARK  status: ('A' for Active; 'I' for Inactive)
REMARK    1  A    between atoms: C_1  and  C_2
REMARK    2  A    between atoms: C_2  and  C_3
REMARK    3  A    between atoms: C_2  and  C_4
REMARK    4  A    between atoms: C_2  and  N_5
REMARK    5  A    between atoms: C_6  and  C_8
REMARK    6  A    between atoms: C_8  and  O_9
REMARK    7  A    between atoms: O_9  and  C_10
REMARK    8  A    between atoms: C_15  and  C_16
REMARK    9  A    between atoms: C_16  and  C_17
REMARK   10  A    between atoms: C_17  and  N_18
REMARK                            x       y       z     vdW  Elec       q    Type
REMARK                         _______ _______ _______ _____ _____    ______ ____
ROOT
ATOM      1  C   UNL     1       4.796  -0.472  -3.735  0.00  0.00    +0.124 A 
ATOM      2  C   UNL     1       4.278  -1.270  -4.746  0.00  0.00    +0.047 A 
ATOM      3  C   UNL     1       5.071  -1.623  -5.820  0.00  0.00    +0.019 A 
ATOM      4  C   UNL     1       6.380  -1.183  -5.889  0.00  0.00    +0.018 A 
ATOM      5  C   UNL     1       6.899  -0.388  -4.883  0.00  0.00    +0.022 A 
ATOM      6  C   UNL     1       6.107  -0.027  -3.809  0.00  0.00    -0.006 A 
ATOM      7 BR   UNL     1       7.464  -1.668  -7.361  0.00  0.00    -0.050 Br
ENDROOT
BRANCH   1   8
ATOM      8  O   UNL     1       4.018  -0.124  -2.677  0.00  0.00    -0.483 OA
BRANCH   8   9
ATOM      9  C   UNL     1       2.677  -0.618  -2.667  0.00  0.00    +0.324 C 
BRANCH   9  11
ATOM     10  N   UNL     1       0.688  -0.476  -1.203  0.00  0.00    -0.308 N 
ATOM     11  C   UNL     1       1.972  -0.132  -1.427  0.00  0.00    +0.251 C 
ATOM     12  O   UNL     1       2.559   0.569  -0.630  0.00  0.00    -0.272 OA
ATOM     13  H   UNL     1       0.218  -1.037  -1.840  0.00  0.00    +0.149 HD
BRANCH  10  15
ATOM     14  C   UNL     1      -0.019   1.526   0.010  0.00  0.00    +0.031 C 
ATOM     15  C   UNL     1       0.002  -0.004   0.002  0.00  0.00    +0.026 C 
ATOM     16  C   UNL     1       0.742  -0.511   1.242  0.00  0.00    +0.031 C 
ATOM     17  C   UNL     1      -1.433  -0.534   0.013  0.00  0.00    +0.031 C 
ENDBRANCH  10  15
ENDBRANCH   9  11
ENDBRANCH   8   9
ENDBRANCH   1   8
BRANCH   6  18
ATOM     18  C   UNL     1       6.671   0.844  -2.716  0.00  0.00    +0.019 C 
BRANCH  18  19
ATOM     19  C   UNL     1       7.189  -0.036  -1.577  0.00  0.00    -0.082 C 
BRANCH  19  20
ATOM     20  N   UNL     1       7.737   0.813  -0.512  0.00  0.00    +0.378 N 
ATOM     21  H   UNL     1       8.496   1.367  -0.881  0.00  0.00    -0.090 HD
ATOM     22  H   UNL     1       7.014   1.424  -0.163  0.00  0.00    -0.090 HD
ATOM     23  H   UNL     1       8.079   0.233   0.239  0.00  0.00    -0.090 HD
ENDBRANCH  19  20
ENDBRANCH  18  19
ENDBRANCH   6  18
TORSDOF 7
