REMARK  Name = ZINC12704017
REMARK  9 active torsions:
REMARK  status: ('A' for Active; 'I' for Inactive)
REMARK    1  A    between atoms: C_1  and  C_2
REMARK    2  A    between atoms: C_2  and  N_3
REMARK    3  A    between atoms: N_3  and  C_4
REMARK    4  A    between atoms: C_4  and  C_5
REMARK    5  A    between atoms: C_5  and  N_6
REMARK    6  A    between atoms: C_11  and  C_13
REMARK    7  A    between atoms: C_13  and  C_14
REMARK    8  A    between atoms: C_21  and  C_22
REMARK    9  A    between atoms: C_21  and  N_54
REMARK                            x       y       z     vdW  Elec       q    Type
REMARK                         _______ _______ _______ _____ _____    ______ ____
ROOT
ATOM      1  C   UNL     1       3.099   2.781  -2.110  0.00  0.00    +0.028 C 
ATOM      2  C   UNL     1       2.812   4.148  -1.555  0.00  0.00    +0.200 C 
ATOM      3  O   UNL     1       3.746   4.863  -1.259  0.00  0.00    -0.278 OA
ATOM      4  N   UNL     1       1.570   4.609  -1.375  0.00  0.00    -0.318 N 
ATOM      5  C   UNL     1       0.379   3.816  -1.666  0.00  0.00    +0.085 C 
ATOM      6  C   UNL     1       0.739   2.647  -2.585  0.00  0.00    -0.058 C 
ATOM      7  H   UNL     1       1.455   5.511  -1.036  0.00  0.00    +0.149 HD
ATOM      8  N   UNL     1       1.893   1.940  -1.995  0.00  0.00    +0.391 N 
ATOM      9  H   UNL     1       1.704   1.759  -1.002  0.00  0.00    -0.080 HD
ENDROOT
BRANCH   1  10
ATOM     10  C   UNL     1       4.233   2.137  -1.309  0.00  0.00    +0.090 C 
BRANCH  10  12
ATOM     11  N   UNL     1       4.603   1.310   0.993  0.00  0.00    -0.300 N 
ATOM     12  C   UNL     1       3.786   1.924   0.114  0.00  0.00    +0.215 C 
ATOM     13  O   UNL     1       2.691   2.306   0.469  0.00  0.00    -0.276 OA
BRANCH  11  15
ATOM     14  C   UNL     1       6.950   1.964   0.782  0.00  0.00    +0.024 C 
ATOM     15  C   UNL     1       5.925   0.849   0.564  0.00  0.00    +0.104 C 
ENDBRANCH  11  15
BRANCH  11  16
ATOM     16  C   UNL     1       4.168   1.103   2.376  0.00  0.00    +0.131 C 
BRANCH  16  17
ATOM     17  C   UNL     1       3.452  -0.244   2.490  0.00  0.00    +0.162 C 
BRANCH  17  18
ATOM     18  N   UNL     1       3.017  -0.451   3.874  0.00  0.00    -0.270 N 
ATOM     19  C   UNL     1       1.757  -0.713   4.279  0.00  0.00    +0.108 A 
ATOM     20  C   UNL     1       1.775  -0.839   5.626  0.00  0.00    +0.041 A 
ATOM     21  C   UNL     1       3.090  -0.637   6.060  0.00  0.00    +0.134 A 
ATOM     22  N   UNL     1       3.835  -0.405   5.010  0.00  0.00    -0.180 NA
ENDBRANCH  17  18
ENDBRANCH  16  17
ENDBRANCH  11  16
ENDBRANCH  10  12
ENDBRANCH   1  10
BRANCH   8  23
ATOM     23  C   UNL     1       2.107   0.650  -2.689  0.00  0.00    -0.040 C 
BRANCH  23  24
ATOM     24  C   UNL     1       0.865  -0.192  -2.556  0.00  0.00    -0.045 A 
ATOM     25  C   UNL     1       0.739  -1.077  -1.500  0.00  0.00    +0.006 A 
ATOM     26  C   UNL     1      -0.400  -1.849  -1.377  0.00  0.00    +0.038 A 
ATOM     27  C   UNL     1      -1.419  -1.734  -2.308  0.00  0.00    +0.125 A 
ATOM     28  C   UNL     1      -1.290  -0.854  -3.368  0.00  0.00    +0.058 A 
ATOM     29  C   UNL     1      -0.149  -0.081  -3.490  0.00  0.00    +0.045 A 
ATOM     30 CL   UNL     1       0.010   1.029  -4.815  0.00  0.00    -0.083 Cl
ATOM     31  F   UNL     1      -2.535  -2.485  -2.185  0.00  0.00    -0.205 F 
ENDBRANCH  23  24
ENDBRANCH   8  23
TORSDOF 8
