REMARK  Name = ZINC17193816
REMARK  11 active torsions:
REMARK  status: ('A' for Active; 'I' for Inactive)
REMARK    1  A    between atoms: C_1  and  C_2
REMARK    2  A    between atoms: C_2  and  O_3
REMARK    3  A    between atoms: O_3  and  C_4
REMARK    4  A    between atoms: C_6  and  C_16
REMARK    5  A    between atoms: C_9  and  O_10
REMARK    6  A    between atoms: O_10  and  C_11
REMARK    7  A    between atoms: C_11  and  C_12
REMARK    8  A    between atoms: C_19  and  C_32
REMARK    9  A    between atoms: C_20  and  C_30
REMARK   10  A    between atoms: C_24  and  C_27
REMARK   11  A    between atoms: C_25  and  C_26
REMARK                            x       y       z     vdW  Elec       q    Type
REMARK                         _______ _______ _______ _____ _____    ______ ____
ROOT
ATOM      1  C   UNL     1      -2.416   1.249  -0.367  0.00  0.00    +0.017 C 
ATOM      2  C   UNL     1      -3.630   1.889  -0.193  0.00  0.00    -0.011 C 
ATOM      3  C   UNL     1      -3.866   3.107   0.607  0.00  0.00    +0.013 A 
ATOM      4  C   UNL     1      -3.038   3.924   1.367  0.00  0.00    -0.020 A 
ATOM      5  C   UNL     1      -3.608   5.027   2.012  0.00  0.00    +0.095 A 
ATOM      6  C   UNL     1      -4.989   5.266   1.868  0.00  0.00    +0.135 A 
ATOM      7  N   UNL     1      -5.745   4.467   1.137  0.00  0.00    -0.230 NA
ATOM      8  C   UNL     1      -5.241   3.408   0.508  0.00  0.00    +0.092 A 
ATOM      9  C   UNL     1      -5.848   2.378  -0.351  0.00  0.00    +0.081 C 
ATOM     10  C   UNL     1      -4.866   1.497  -0.754  0.00  0.00    -0.023 C 
ATOM     11  C   UNL     1      -5.078   0.303  -1.649  0.00  0.00    +0.046 C 
ATOM     12  N   UNL     1      -5.562   6.355   2.502  0.00  0.00    -0.342 N 
ATOM     13  C   UNL     1      -1.565   3.630   1.493  0.00  0.00    +0.046 C 
ATOM     14  H   UNL     1      -6.639   6.549   2.396  0.00  0.00    +0.144 HD
ATOM     15  H   UNL     1      -4.940   7.025   3.114  0.00  0.00    +0.144 HD
ENDROOT
BRANCH   1  18
ATOM     16  C   UNL     1       1.142   2.333   0.076  0.00  0.00    +0.164 A 
ATOM     17  C   UNL     1      -0.018   1.593   0.178  0.00  0.00    +0.057 A 
ATOM     18  C   UNL     1      -1.185   2.032  -0.465  0.00  0.00    -0.020 A 
ATOM     19  C   UNL     1      -1.168   3.229  -1.199  0.00  0.00    +0.027 A 
ATOM     20  C   UNL     1      -0.005   3.960  -1.293  0.00  0.00    +0.064 A 
ATOM     21  C   UNL     1       1.151   3.519  -0.659  0.00  0.00    +0.177 A 
ATOM     22 BR   UNL     1       0.018   5.569  -2.286  0.00  0.00    -0.046 Br
BRANCH  16  23
ATOM     23  O   UNL     1       2.276   1.907   0.694  0.00  0.00    -0.489 OA
BRANCH  23  25
ATOM     24  C   UNL     1       3.558   0.370   2.049  0.00  0.00    +0.048 C 
ATOM     25  C   UNL     1       2.194   0.685   1.430  0.00  0.00    +0.226 C 
ENDBRANCH  23  25
ENDBRANCH  16  23
BRANCH  21  26
ATOM     26  O   UNL     1       2.294   4.246  -0.755  0.00  0.00    -0.476 OA
BRANCH  26  27
ATOM     27  C   UNL     1       3.166   3.942  -1.846  0.00  0.00    +0.354 C 
BRANCH  27  28
ATOM     28  C   UNL     1       4.373   4.843  -1.790  0.00  0.00    +0.393 C 
ATOM     29  O   UNL     1       4.476   5.660  -0.907  0.00  0.00    -0.243 OA
ATOM     30  O   UNL     1       5.333   4.737  -2.722  0.00  0.00    -0.243 OA
ENDBRANCH  27  28
ENDBRANCH  26  27
ENDBRANCH  21  26
ENDBRANCH   1  18
BRANCH   9  31
ATOM     31  C   UNL     1      -7.232   2.306  -0.714  0.00  0.00    +0.102 C 
ATOM     32  N   UNL     1      -8.329   2.248  -1.002  0.00  0.00    -0.191 NA
ENDBRANCH   9  31
BRANCH   5  33
ATOM     33  C   UNL     1      -2.799   5.901   2.807  0.00  0.00    +0.103 C 
ATOM     34  N   UNL     1      -2.157   6.594   3.438  0.00  0.00    -0.191 NA
ENDBRANCH   5  33
TORSDOF 8
