REMARK  Name = ZINC37637717
REMARK  3 active torsions:
REMARK  status: ('A' for Active; 'I' for Inactive)
REMARK    1  A    between atoms: C_4  and  C_7
REMARK    2  A    between atoms: C_22  and  C_25
REMARK    3  A    between atoms: C_28  and  O_31
REMARK                            x       y       z     vdW  Elec       q    Type
REMARK                         _______ _______ _______ _____ _____    ______ ____
ROOT
ATOM      1  C   UNL     1       3.711  -0.707  -0.038  0.00  0.00    +0.206 C 
ATOM      2  N   UNL     1       3.580  -1.990   0.663  0.00  0.00    -0.359 N 
ATOM      3  C   UNL     1       4.407  -1.975   1.665  0.00  0.00    +0.072 A 
ATOM      4  C   UNL     1       4.717  -2.973   2.713  0.00  0.00    +0.011 A 
ATOM      5  C   UNL     1       4.062  -4.200   2.737  0.00  0.00    +0.011 A 
ATOM      6  C   UNL     1       4.364  -5.120   3.722  0.00  0.00    +0.001 A 
ATOM      7  C   UNL     1       5.316  -4.828   4.685  0.00  0.00    +0.001 A 
ATOM      8  C   UNL     1       5.975  -3.616   4.676  0.00  0.00    +0.012 A 
ATOM      9  C   UNL     1       5.683  -2.671   3.689  0.00  0.00    +0.030 A 
ATOM     10  C   UNL     1       6.386  -1.377   3.684  0.00  0.00    +0.177 A 
ATOM     11  C   UNL     1       6.130  -0.437   2.742  0.00  0.00    +0.192 A 
ATOM     12  C   UNL     1       5.136  -0.680   1.688  0.00  0.00    +0.107 A 
ATOM     13  N   UNL     1       4.728   0.061   0.690  0.00  0.00    -0.357 N 
ATOM     14  O   UNL     1       6.915   0.660   2.972  0.00  0.00    -0.444 OA
ATOM     15  C   UNL     1       7.372   0.520   4.330  0.00  0.00    +0.396 C 
ATOM     16  O   UNL     1       7.344  -0.904   4.537  0.00  0.00    -0.445 OA
ATOM     17  H   UNL     1       2.985  -2.717   0.422  0.00  0.00    +0.162 HD
ATOM     18  H   UNL     1       5.040   0.953   0.472  0.00  0.00    +0.162 HD
ENDROOT
BRANCH   1  22
ATOM     19  C   UNL     1      -0.017   1.378   0.010  0.00  0.00    +0.000 A 
ATOM     20  C   UNL     1       1.171   2.086   0.002  0.00  0.00    +0.000 A 
ATOM     21  C   UNL     1       2.377   1.411  -0.013  0.00  0.00    +0.007 A 
ATOM     22  C   UNL     1       2.396   0.029  -0.020  0.00  0.00    -0.005 A 
ATOM     23  C   UNL     1       1.208  -0.679  -0.012  0.00  0.00    +0.007 A 
ATOM     24  C   UNL     1       0.002  -0.004   0.002  0.00  0.00    +0.000 A 
ENDBRANCH   1  22
BRANCH  15  25
ATOM     25  C   UNL     1       8.772   1.057   4.479  0.00  0.00    +0.033 A 
ATOM     26  C   UNL     1       9.426   1.593   3.385  0.00  0.00    +0.014 A 
ATOM     27  C   UNL     1      10.710   2.085   3.520  0.00  0.00    +0.046 A 
ATOM     28  C   UNL     1      11.343   2.041   4.753  0.00  0.00    +0.117 A 
ATOM     29  C   UNL     1      10.685   1.503   5.849  0.00  0.00    +0.046 A 
ATOM     30  C   UNL     1       9.399   1.017   5.711  0.00  0.00    +0.014 A 
BRANCH  28  31
ATOM     31  O   UNL     1      12.606   2.524   4.888  0.00  0.00    -0.507 OA
ATOM     32  H   UNL     1      12.646   3.461   5.122  0.00  0.00    +0.292 HD
ENDBRANCH  28  31
ENDBRANCH  15  25
TORSDOF 3
