REMARK  Name = ZINC37720903
REMARK  8 active torsions:
REMARK  status: ('A' for Active; 'I' for Inactive)
REMARK    1  A    between atoms: C_1  and  C_2
REMARK    2  A    between atoms: C_2  and  C_4
REMARK    3  A    between atoms: C_2  and  C_16
REMARK    4  A    between atoms: C_4  and  O_5
REMARK    5  A    between atoms: O_5  and  C_6
REMARK    6  A    between atoms: C_11  and  C_12
REMARK    7  A    between atoms: C_12  and  C_13
REMARK    8  A    between atoms: C_13  and  N_14
REMARK                            x       y       z     vdW  Elec       q    Type
REMARK                         _______ _______ _______ _____ _____    ______ ____
ROOT
ATOM      1  C   UNL     1       2.916  -0.487   2.205  0.00  0.00    +0.124 A 
ATOM      2  C   UNL     1       2.395  -1.225   3.258  0.00  0.00    +0.047 A 
ATOM      3  C   UNL     1       3.212  -1.603   4.306  0.00  0.00    +0.019 A 
ATOM      4  C   UNL     1       4.549  -1.246   4.305  0.00  0.00    +0.018 A 
ATOM      5  C   UNL     1       5.070  -0.510   3.256  0.00  0.00    +0.022 A 
ATOM      6  C   UNL     1       4.257  -0.135   2.203  0.00  0.00    -0.006 A 
ATOM      7 BR   UNL     1       5.665  -1.765   5.740  0.00  0.00    -0.050 Br
ENDROOT
BRANCH   1   8
ATOM      8  O   UNL     1       2.113  -0.114   1.173  0.00  0.00    -0.491 OA
BRANCH   8   9
ATOM      9  C   UNL     1       0.742  -0.511   1.242  0.00  0.00    +0.241 C 
BRANCH   9  11
ATOM     10  C   UNL     1      -0.019   1.526   0.010  0.00  0.00    +0.020 C 
ATOM     11  C   UNL     1       0.002  -0.004   0.002  0.00  0.00    +0.109 C 
BRANCH  11  12
ATOM     12  C   UNL     1      -1.412  -0.526   0.013  0.00  0.00    +0.217 C 
ATOM     13  O   UNL     1      -1.790  -1.233   0.922  0.00  0.00    -0.276 OA
ATOM     14  N   UNL     1      -2.256  -0.206  -0.988  0.00  0.00    -0.329 N 
ATOM     15  H   UNL     1      -1.953   0.360  -1.716  0.00  0.00    +0.145 HD
ATOM     16  H   UNL     1      -3.166  -0.542  -0.982  0.00  0.00    +0.145 HD
ENDBRANCH  11  12
ENDBRANCH   9  11
ENDBRANCH   8   9
ENDBRANCH   1   8
BRANCH   6  17
ATOM     17  C   UNL     1       4.827   0.661   1.057  0.00  0.00    +0.019 C 
BRANCH  17  18
ATOM     18  C   UNL     1       4.588   2.152   1.303  0.00  0.00    -0.082 C 
BRANCH  18  19
ATOM     19  N   UNL     1       5.143   2.927   0.186  0.00  0.00    +0.378 N 
ATOM     20  H   UNL     1       6.134   2.753   0.115  0.00  0.00    -0.090 HD
ATOM     21  H   UNL     1       4.691   2.651  -0.673  0.00  0.00    -0.090 HD
ATOM     22  H   UNL     1       4.985   3.911   0.348  0.00  0.00    -0.090 HD
ENDBRANCH  18  19
ENDBRANCH  17  18
ENDBRANCH   6  17
TORSDOF 7
