REMARK  Name = ZINC19971953
REMARK  6 active torsions:
REMARK  status: ('A' for Active; 'I' for Inactive)
REMARK    1  A    between atoms: C_1  and  O_2
REMARK    2  A    between atoms: O_2  and  C_3
REMARK    3  A    between atoms: C_6  and  N_19
REMARK    4  A    between atoms: C_8  and  C_9
REMARK    5  A    between atoms: C_9  and  C_11
REMARK    6  A    between atoms: C_9  and  N_18
REMARK                            x       y       z     vdW  Elec       q    Type
REMARK                         _______ _______ _______ _____ _____    ______ ____
ROOT
ATOM      1  C   UNL     1      -2.519   1.253   0.021  0.00  0.00    -0.007 C 
ENDROOT
BRANCH   1   2
ATOM      2  C   UNL     1      -1.224   2.023   0.019  0.00  0.00    -0.022 A 
ATOM      3  C   UNL     1      -1.242   3.405   0.030  0.00  0.00    +0.005 A 
ATOM      4  C   UNL     1      -0.054   4.112   0.023  0.00  0.00    +0.000 A 
ATOM      5  C   UNL     1       1.153   3.438   0.009  0.00  0.00    +0.003 A 
ATOM      6  C   UNL     1       1.173   2.056   0.002  0.00  0.00    +0.038 A 
ATOM      7  C   UNL     1      -0.016   1.347   0.009  0.00  0.00    +0.125 A 
ATOM      8  F   UNL     1       0.002  -0.004   0.002  0.00  0.00    -0.205 F 
ENDBRANCH   1   2
BRANCH   1  14
ATOM      9  C   UNL     1      -2.273  -0.205   2.046  0.00  0.00    +0.122 A 
ATOM     10  C   UNL     1      -2.608  -0.543   3.350  0.00  0.00    +0.048 A 
ATOM     11  C   UNL     1      -3.545   0.204   4.037  0.00  0.00    +0.036 A 
ATOM     12  C   UNL     1      -4.149   1.287   3.427  0.00  0.00    +0.127 A 
ATOM     13  C   UNL     1      -3.814   1.630   2.130  0.00  0.00    +0.038 A 
ATOM     14  C   UNL     1      -2.881   0.882   1.437  0.00  0.00    -0.014 A 
BRANCH  12  15
ATOM     15  N   UNL     1      -5.153   2.086   4.165  0.00  0.00    +0.056 N 
ATOM     16  O   UNL     1      -5.446   1.788   5.310  0.00  0.00    -0.126 OA
ATOM     17  O   UNL     1      -5.686   3.041   3.629  0.00  0.00    -0.126 OA
ENDBRANCH  12  15
BRANCH   9  19
ATOM     18  C   UNL     1      -0.767  -2.044   2.059  0.00  0.00    +0.277 C 
ATOM     19  O   UNL     1      -1.351  -0.938   1.368  0.00  0.00    -0.495 OA
ENDBRANCH   9  19
ENDBRANCH   1  14
BRANCH   1  20
ATOM     20  N   UNL     1      -3.585   2.084  -0.554  0.00  0.00    +0.385 N 
ATOM     21  H   UNL     1      -3.321   2.355  -1.588  0.00  0.00    -0.089 HD
ATOM     22  H   UNL     1      -3.701   2.999   0.046  0.00  0.00    -0.089 HD
ATOM     23  H   UNL     1      -4.530   1.522  -0.553  0.00  0.00    -0.089 HD
ENDBRANCH   1  20
TORSDOF 5
