REMARK  Name = ZINC43669911
REMARK  5 active torsions:
REMARK  status: ('A' for Active; 'I' for Inactive)
REMARK    1  A    between atoms: C_1  and  C_2
REMARK    2  A    between atoms: C_2  and  C_22
REMARK    3  A    between atoms: C_5  and  N_13
REMARK    4  A    between atoms: C_14  and  N_21
REMARK    5  A    between atoms: C_15  and  N_18
REMARK                            x       y       z     vdW  Elec       q    Type
REMARK                         _______ _______ _______ _____ _____    ______ ____
ROOT
ATOM      1  C   UNL     1      -0.019   1.526   0.010  0.00  0.00    +0.016 C 
ATOM      2  C   UNL     1       0.002  -0.004   0.002  0.00  0.00    -0.009 C 
ATOM      3  C   UNL     1       0.694  -0.491  -1.270  0.00  0.00    +0.013 C 
ATOM      4  C   UNL     1       0.899  -2.007  -1.158  0.00  0.00    +0.032 C 
ATOM      5  C   UNL     1       1.962  -2.271  -0.094  0.00  0.00    +0.139 C 
ATOM      6  C   UNL     1       1.629  -1.541   1.181  0.00  0.00    -0.019 A 
ATOM      7  C   UNL     1       0.732  -0.498   1.224  0.00  0.00    -0.037 A 
ATOM      8  C   UNL     1       0.474   0.138   2.432  0.00  0.00    +0.004 A 
ATOM      9  C   UNL     1       1.106  -0.271   3.588  0.00  0.00    +0.000 A 
ATOM     10  C   UNL     1       2.004  -1.321   3.545  0.00  0.00    +0.000 A 
ATOM     11  C   UNL     1       2.263  -1.952   2.346  0.00  0.00    +0.006 A 
ATOM     12  C   UNL     1      -1.435  -0.528   0.026  0.00  0.00    +0.016 C 
ENDROOT
BRANCH   5  13
ATOM     13  N   UNL     1       2.027  -3.710   0.177  0.00  0.00    -0.241 N 
ATOM     14  C   UNL     1       3.113  -4.501   0.019  0.00  0.00    +0.146 A 
ATOM     15  C   UNL     1       2.755  -5.765   0.378  0.00  0.00    +0.185 A 
ATOM     16  C   UNL     1       1.412  -5.736   0.764  0.00  0.00    +0.169 A 
ATOM     17  N   UNL     1       0.978  -4.507   0.650  0.00  0.00    -0.175 NA
BRANCH  15  18
ATOM     18  N   UNL     1       3.633  -6.957   0.361  0.00  0.00    +0.061 N 
ATOM     19  O   UNL     1       3.199  -8.032   0.705  0.00  0.00    -0.126 OA
ATOM     20  O   UNL     1       4.784  -6.856   0.005  0.00  0.00    -0.126 OA
ENDBRANCH  15  18
BRANCH  14  21
ATOM     21  N   UNL     1       4.367  -4.097  -0.429  0.00  0.00    -0.342 N 
ATOM     22  H   UNL     1       4.523  -3.168  -0.662  0.00  0.00    +0.144 HD
ATOM     23  H   UNL     1       5.086  -4.744  -0.508  0.00  0.00    +0.144 HD
ENDBRANCH  14  21
ENDBRANCH   5  13
TORSDOF 3
