REMARK  Name = ZINC66348343
REMARK  5 active torsions:
REMARK  status: ('A' for Active; 'I' for Inactive)
REMARK    1  A    between atoms: C_8  and  O_30
REMARK    2  A    between atoms: C_10  and  N_12
REMARK    3  A    between atoms: N_15  and  C_16
REMARK    4  A    between atoms: C_16  and  C_17
REMARK    5  A    between atoms: N_21  and  C_23
REMARK                            x       y       z     vdW  Elec       q    Type
REMARK                         _______ _______ _______ _____ _____    ______ ____
ROOT
ATOM      1  N   UNL     1       4.147  -1.058   1.302  0.00  0.00    -0.290 N 
ATOM      2  C   UNL     1       5.090  -0.183   1.704  0.00  0.00    +0.300 C 
ATOM      3  O   UNL     1       5.457   0.702   0.956  0.00  0.00    -0.253 OA
ATOM      4  N   UNL     1       5.626  -0.289   2.936  0.00  0.00    -0.299 N 
ATOM      5  H   UNL     1       3.854  -1.764   1.899  0.00  0.00    +0.151 HD
ATOM      6  H   UNL     1       5.333  -0.996   3.533  0.00  0.00    +0.150 HD
ENDROOT
BRANCH   1  15
ATOM      7  C   UNL     1      -0.017   1.377   0.010  0.00  0.00    +0.000 A 
ATOM      8  C   UNL     1       1.172   2.083   0.002  0.00  0.00    +0.000 A 
ATOM      9  C   UNL     1       2.376   1.406  -0.013  0.00  0.00    +0.006 A 
ATOM     10  C   UNL     1       2.396   0.021  -0.021  0.00  0.00    -0.021 A 
ATOM     11  C   UNL     1       1.208  -0.685  -0.013  0.00  0.00    -0.040 A 
ATOM     12  C   UNL     1       0.002  -0.004   0.002  0.00  0.00    +0.004 A 
ATOM     13  C   UNL     1       1.496  -2.171  -0.025  0.00  0.00    +0.069 C 
ATOM     14  C   UNL     1       2.966  -2.294  -0.480  0.00  0.00    +0.143 C 
ATOM     15  C   UNL     1       3.564  -0.942  -0.037  0.00  0.00    +0.134 C 
BRANCH  14  16
ATOM     16  O   UNL     1       3.613  -3.382   0.184  0.00  0.00    -0.389 OA
ATOM     17  H   UNL     1       3.217  -4.245   0.002  0.00  0.00    +0.210 HD
ENDBRANCH  14  16
ENDBRANCH   1  15
BRANCH   4  18
ATOM     18  C   UNL     1       6.651   0.662   3.373  0.00  0.00    +0.110 C 
BRANCH  18  19
ATOM     19  C   UNL     1       7.088   0.321   4.800  0.00  0.00    +0.025 C 
ATOM     20  C   UNL     1       7.872  -1.017   4.828  0.00  0.00    +0.025 C 
ATOM     21  C   UNL     1       8.757  -0.833   6.087  0.00  0.00    +0.105 C 
ATOM     22  N   UNL     1       9.133   0.593   6.078  0.00  0.00    -0.330 N 
ATOM     23  C   UNL     1       8.122   1.344   5.313  0.00  0.00    +0.110 C 
BRANCH  22  24
ATOM     24  C   UNL     1      10.260   1.142   6.696  0.00  0.00    +0.030 A 
ATOM     25  C   UNL     1      10.500   2.508   6.619  0.00  0.00    +0.026 A 
ATOM     26  C   UNL     1      11.614   3.048   7.231  0.00  0.00    +0.040 A 
ATOM     27  C   UNL     1      12.492   2.229   7.921  0.00  0.00    +0.124 A 
ATOM     28  C   UNL     1      12.254   0.867   8.000  0.00  0.00    +0.040 A 
ATOM     29  C   UNL     1      11.139   0.323   7.394  0.00  0.00    +0.026 A 
ATOM     30  F   UNL     1      13.581   2.760   8.519  0.00  0.00    -0.205 F 
ENDBRANCH  22  24
ENDBRANCH  18  19
ENDBRANCH   4  18
TORSDOF 5
