REMARK  Name = ZINC39769063
REMARK  5 active torsions:
REMARK  status: ('A' for Active; 'I' for Inactive)
REMARK    1  A    between atoms: C_7  and  C_10
REMARK    2  A    between atoms: C_16  and  C_18
REMARK    3  A    between atoms: C_21  and  O_24
REMARK    4  A    between atoms: O_24  and  C_25
REMARK    5  A    between atoms: C_25  and  C_26
REMARK                            x       y       z     vdW  Elec       q    Type
REMARK                         _______ _______ _______ _____ _____    ______ ____
ROOT
ATOM      1  C   UNL     1       1.108  -3.332  -0.848  0.00  0.00    -0.043 C 
ATOM      2  C   UNL     1      -0.134  -2.869  -0.770  0.00  0.00    -0.004 C 
ATOM      3  C   UNL     1      -1.317  -3.738  -0.445  0.00  0.00    +0.135 C 
ATOM      4  N   UNL     1      -0.910  -5.149  -0.502  0.00  0.00    -0.293 N 
ATOM      5  C   UNL     1       0.379  -5.508   0.115  0.00  0.00    +0.113 C 
ATOM      6  C   UNL     1       1.486  -4.769  -0.645  0.00  0.00    +0.054 C 
ATOM      7  C   UNL     1      -1.685  -6.078  -1.096  0.00  0.00    +0.247 C 
ATOM      8  O   UNL     1      -1.347  -7.246  -1.088  0.00  0.00    -0.270 OA
ENDROOT
BRANCH   1  15
ATOM      9  C   UNL     1       5.521  -3.899  -1.721  0.00  0.00    +0.001 A 
ATOM     10  C   UNL     1       6.203  -2.704  -1.971  0.00  0.00    +0.002 A 
ATOM     11  C   UNL     1       5.575  -1.504  -1.947  0.00  0.00    +0.026 A 
ATOM     12  C   UNL     1       4.185  -1.440  -1.662  0.00  0.00    +0.043 A 
ATOM     13  N   UNL     1       3.359  -0.419  -1.579  0.00  0.00    -0.380 N 
ATOM     14  C   UNL     1       2.016  -0.910  -1.254  0.00  0.00    +0.149 C 
ATOM     15  C   UNL     1       2.136  -2.414  -1.145  0.00  0.00    -0.016 C 
ATOM     16  C   UNL     1       3.471  -2.703  -1.399  0.00  0.00    +0.003 A 
ATOM     17  C   UNL     1       4.195  -3.917  -1.442  0.00  0.00    +0.010 A 
ATOM     18  H   UNL     1       3.600   0.511  -1.713  0.00  0.00    +0.160 HD
ENDBRANCH   1  15
BRANCH   7  19
ATOM     19  C   UNL     1      -2.943  -5.678  -1.755  0.00  0.00    +0.037 A 
ATOM     20  C   UNL     1      -3.316  -6.264  -2.967  0.00  0.00    +0.016 A 
ATOM     21  C   UNL     1      -4.491  -5.888  -3.579  0.00  0.00    +0.046 A 
ATOM     22  C   UNL     1      -5.305  -4.926  -2.993  0.00  0.00    +0.121 A 
ATOM     23  C   UNL     1      -4.938  -4.341  -1.787  0.00  0.00    +0.046 A 
ATOM     24  C   UNL     1      -3.767  -4.716  -1.166  0.00  0.00    +0.016 A 
BRANCH  22  25
ATOM     25  O   UNL     1      -6.462  -4.558  -3.599  0.00  0.00    -0.483 OA
BRANCH  25  26
ATOM     26  C   UNL     1      -7.251  -3.564  -2.942  0.00  0.00    +0.324 C 
BRANCH  26  27
ATOM     27  C   UNL     1      -8.488  -3.285  -3.757  0.00  0.00    +0.248 C 
ATOM     28  O   UNL     1      -8.675  -3.879  -4.798  0.00  0.00    -0.272 OA
ATOM     29  N   UNL     1      -9.386  -2.376  -3.328  0.00  0.00    -0.327 N 
ATOM     30  H   UNL     1      -9.236  -1.902  -2.496  0.00  0.00    +0.145 HD
ATOM     31  H   UNL     1     -10.182  -2.197  -3.853  0.00  0.00    +0.145 HD
ENDBRANCH  26  27
ENDBRANCH  25  26
ENDBRANCH  22  25
ENDBRANCH   7  19
TORSDOF 5
