REMARK  Name = ZINC06660478
REMARK  9 active torsions:
REMARK  status: ('A' for Active; 'I' for Inactive)
REMARK    1  A    between atoms: C_1  and  C_2
REMARK    2  A    between atoms: C_2  and  N_54
REMARK    3  A    between atoms: C_3  and  C_4
REMARK    4  A    between atoms: C_3  and  N_54
REMARK    5  A    between atoms: C_5  and  C_6
REMARK    6  A    between atoms: C_5  and  N_54
REMARK    7  A    between atoms: C_6  and  N_7
REMARK    8  A    between atoms: C_13  and  C_23
REMARK    9  A    between atoms: C_18  and  O_22
REMARK                            x       y       z     vdW  Elec       q    Type
REMARK                         _______ _______ _______ _____ _____    ______ ____
ROOT
ATOM      1  N   UNL     1       4.771  -3.731   1.175  0.00  0.00    -0.320 N 
ATOM      2  C   UNL     1       5.731  -2.780   1.051  0.00  0.00    +0.204 A 
ATOM      3  N   UNL     1       5.440  -1.560   0.702  0.00  0.00    -0.202 NA
ATOM      4  C   UNL     1       4.177  -1.171   0.444  0.00  0.00    +0.229 A 
ATOM      5  C   UNL     1       3.158  -2.068   0.547  0.00  0.00    +0.066 A 
ATOM      6  C   UNL     1       3.453  -3.398   0.927  0.00  0.00    +0.115 A 
ATOM      7  C   UNL     1       1.735  -1.673   0.269  0.00  0.00    +0.093 C 
ATOM      8  C   UNL     1       1.590  -0.175   0.302  0.00  0.00    +0.007 A 
ATOM      9  C   UNL     1       0.331   0.385   0.428  0.00  0.00    +0.012 A 
ATOM     10  C   UNL     1       0.179   1.757   0.459  0.00  0.00    +0.046 A 
ATOM     11  C   UNL     1       1.293   2.580   0.365  0.00  0.00    +0.120 A 
ATOM     12  C   UNL     1       2.555   2.022   0.241  0.00  0.00    +0.092 A 
ATOM     13  C   UNL     1       2.706   0.641   0.209  0.00  0.00    +0.138 A 
ATOM     14  O   UNL     1       3.946   0.110   0.084  0.00  0.00    -0.437 OA
ATOM     15  H   UNL     1       2.614  -5.231   1.295  0.00  0.00    +0.157 HD
ATOM     16  N   UNL     1       2.436  -4.263   1.024  0.00  0.00    -0.384 N 
ATOM     17  H   UNL     1       1.478  -3.953   0.826  0.00  0.00    +0.157 HD
ENDROOT
BRANCH   7  18
ATOM     18  C   UNL     1       1.335  -2.181  -1.092  0.00  0.00    -0.017 A 
ATOM     19  C   UNL     1       2.009  -1.748  -2.218  0.00  0.00    +0.006 A 
ATOM     20  C   UNL     1       1.645  -2.218  -3.466  0.00  0.00    +0.000 A 
ATOM     21  C   UNL     1       0.600  -3.115  -3.590  0.00  0.00    +0.001 A 
ATOM     22  C   UNL     1      -0.079  -3.545  -2.465  0.00  0.00    +0.020 A 
ATOM     23  C   UNL     1       0.289  -3.078  -1.215  0.00  0.00    +0.045 A 
ATOM     24 CL   UNL     1      -0.562  -3.619   0.198  0.00  0.00    -0.083 Cl
ENDBRANCH   7  18
BRANCH  11  25
ATOM     25  O   UNL     1       1.147   3.930   0.395  0.00  0.00    -0.507 OA
ATOM     26  H   UNL     1       1.186   4.311   1.283  0.00  0.00    +0.292 HD
ENDBRANCH  11  25
BRANCH   1  27
ATOM     27  C   UNL     1       5.128  -5.096   1.568  0.00  0.00    +0.106 C 
BRANCH  27  28
ATOM     28  C   UNL     1       5.303  -5.958   0.316  0.00  0.00    -0.057 C 
BRANCH  28  29
ATOM     29  N   UNL     1       5.683  -7.326   0.728  0.00  0.00    +0.380 N 
ATOM     30  H   UNL     1       6.485  -7.270   1.367  0.00  0.00    -0.082 HD
BRANCH  29  32
ATOM     31  C   UNL     1       3.342  -8.086   0.503  0.00  0.00    -0.017 C 
ATOM     32  C   UNL     1       4.555  -7.974   1.429  0.00  0.00    -0.082 C 
ENDBRANCH  29  32
BRANCH  29  33
ATOM     33  C   UNL     1       6.067  -8.122  -0.457  0.00  0.00    -0.082 C 
ATOM     34  C   UNL     1       6.791  -9.385   0.013  0.00  0.00    -0.017 C 
ENDBRANCH  29  33
ENDBRANCH  28  29
ENDBRANCH  27  28
ENDBRANCH   1  27
TORSDOF 7
