REMARK  Name = ZINC03670482
REMARK  10 active torsions:
REMARK  status: ('A' for Active; 'I' for Inactive)
REMARK    1  A    between atoms: C_1  and  C_2
REMARK    2  A    between atoms: C_2  and  N_3
REMARK    3  A    between atoms: N_3  and  C_4
REMARK    4  A    between atoms: N_3  and  C_6
REMARK    5  A    between atoms: C_4  and  C_5
REMARK    6  A    between atoms: C_6  and  C_7
REMARK    7  A    between atoms: C_7  and  N_8
REMARK    8  A    between atoms: C_9  and  C_11
REMARK    9  A    between atoms: C_11  and  O_30
REMARK   10  A    between atoms: N_21  and  C_22
REMARK                            x       y       z     vdW  Elec       q    Type
REMARK                         _______ _______ _______ _____ _____    ______ ____
ROOT
ATOM      1  C   UNL     1      -3.035  -5.646  -2.216  0.00  0.00    +0.247 C 
ATOM      2  C   UNL     1      -2.523  -5.999  -3.593  0.00  0.00    +0.034 A 
ATOM      3  C   UNL     1      -2.944  -5.314  -4.710  0.00  0.00    +0.025 A 
ATOM      4  C   UNL     1      -2.453  -5.665  -5.957  0.00  0.00    +0.018 A 
ATOM      5  C   UNL     1      -1.544  -6.701  -6.076  0.00  0.00    +0.017 A 
ATOM      6  C   UNL     1      -1.121  -7.391  -4.956  0.00  0.00    +0.025 A 
ATOM      7  C   UNL     1      -1.610  -7.042  -3.704  0.00  0.00    +0.043 A 
ATOM      8  N   UNL     1      -1.194  -7.726  -2.561  0.00  0.00    -0.269 N 
ATOM      9  C   UNL     1      -1.636  -7.428  -1.333  0.00  0.00    +0.314 C 
ATOM     10  O   UNL     1      -1.219  -8.077  -0.393  0.00  0.00    -0.252 OA
ATOM     11  N   UNL     1      -2.520  -6.443  -1.089  0.00  0.00    -0.214 N 
ATOM     12 BR   UNL     1      -3.026  -4.728  -7.496  0.00  0.00    -0.050 Br
ATOM     13  H   UNL     1      -0.557  -8.450  -2.661  0.00  0.00    +0.156 HD
ENDROOT
BRANCH  11  14
ATOM     14  C   UNL     1      -2.944  -6.179   0.218  0.00  0.00    +0.041 A 
ATOM     15  C   UNL     1      -4.250  -6.464   0.597  0.00  0.00    +0.025 A 
ATOM     16  C   UNL     1      -4.666  -6.203   1.887  0.00  0.00    +0.022 A 
ATOM     17  C   UNL     1      -3.783  -5.657   2.803  0.00  0.00    +0.041 A 
ATOM     18  C   UNL     1      -2.482  -5.372   2.429  0.00  0.00    +0.022 A 
ATOM     19  C   UNL     1      -2.059  -5.637   1.141  0.00  0.00    +0.025 A 
ATOM     20 CL   UNL     1      -4.310  -5.329   4.424  0.00  0.00    -0.084 Cl
ENDBRANCH  11  14
BRANCH   1  22
ATOM     21  N   UNL     1      -1.416  -3.819  -1.817  0.00  0.00    -0.313 N 
ATOM     22  C   UNL     1      -2.702  -4.200  -1.953  0.00  0.00    +0.269 C 
ATOM     23  O   UNL     1      -3.591  -3.380  -1.864  0.00  0.00    -0.270 OA
ATOM     24  H   UNL     1      -0.706  -4.475  -1.888  0.00  0.00    +0.149 HD
BRANCH  21  25
ATOM     25  C   UNL     1      -1.093  -2.413  -1.561  0.00  0.00    +0.086 C 
BRANCH  25  26
ATOM     26  C   UNL     1       0.425  -2.252  -1.449  0.00  0.00    -0.060 C 
BRANCH  26  27
ATOM     27  N   UNL     1       0.750  -0.842  -1.192  0.00  0.00    +0.380 N 
ATOM     28  H   UNL     1       0.335  -0.266  -1.910  0.00  0.00    -0.082 HD
BRANCH  27  30
ATOM     29  C   UNL     1       0.432   1.053   0.326  0.00  0.00    -0.017 C 
ATOM     30  C   UNL     1       0.219  -0.448   0.119  0.00  0.00    -0.082 C 
ENDBRANCH  27  30
BRANCH  27  31
ATOM     31  C   UNL     1       2.208  -0.665  -1.204  0.00  0.00    -0.082 C 
ATOM     32  C   UNL     1       2.744  -0.938  -2.611  0.00  0.00    -0.017 C 
ENDBRANCH  27  31
ENDBRANCH  26  27
ENDBRANCH  25  26
ENDBRANCH  21  25
ENDBRANCH   1  22
BRANCH   1  33
ATOM     33  O   UNL     1      -4.458  -5.771  -2.230  0.00  0.00    -0.360 OA
ATOM     34  H   UNL     1      -4.894  -5.235  -2.906  0.00  0.00    +0.213 HD
ENDBRANCH   1  33
TORSDOF 8
