REMARK  Name = ZINC36144634
REMARK  8 active torsions:
REMARK  status: ('A' for Active; 'I' for Inactive)
REMARK    1  A    between atoms: C_1  and  O_2
REMARK    2  A    between atoms: O_2  and  C_3
REMARK    3  A    between atoms: C_7  and  O_9
REMARK    4  A    between atoms: O_9  and  C_10
REMARK    5  A    between atoms: N_17  and  C_19
REMARK    6  A    between atoms: C_19  and  C_20
REMARK    7  A    between atoms: C_20  and  C_21
REMARK    8  A    between atoms: C_21  and  N_22
REMARK                            x       y       z     vdW  Elec       q    Type
REMARK                         _______ _______ _______ _____ _____    ______ ____
ROOT
ATOM      1  C   UNL     1       0.606  -0.607  -1.055  0.00  0.00    +0.127 A 
ATOM      2  C   UNL     1       0.652  -1.994  -1.124  0.00  0.00    +0.092 A 
ATOM      3  C   UNL     1       1.264  -2.610  -2.198  0.00  0.00    +0.136 A 
ATOM      4  C   UNL     1       1.836  -1.832  -3.216  0.00  0.00    +0.058 A 
ATOM      5  C   UNL     1       1.787  -0.439  -3.143  0.00  0.00    +0.134 A 
ATOM      6  C   UNL     1       1.166   0.167  -2.062  0.00  0.00    +0.092 A 
ATOM      7  C   UNL     1       2.482  -2.519  -4.354  0.00  0.00    +0.015 C 
ATOM      8  C   UNL     1       2.222  -3.814  -4.534  0.00  0.00    +0.022 C 
ATOM      9  C   UNL     1       1.287  -4.527  -3.599  0.00  0.00    +0.143 C 
ATOM     10  O   UNL     1       1.326  -3.963  -2.292  0.00  0.00    -0.480 OA
ATOM     11  C   UNL     1      -0.149  -4.478  -4.152  0.00  0.00    +0.069 C 
ATOM     12  C   UNL     1      -0.538  -5.955  -4.380  0.00  0.00    +0.089 C 
ATOM     13  N   UNL     1       0.340  -6.721  -3.459  0.00  0.00    -0.298 NA
ATOM     14  C   UNL     1       1.650  -6.023  -3.536  0.00  0.00    +0.136 C 
ENDROOT
BRANCH   1  16
ATOM     15  C   UNL     1      -0.017   1.425   0.010  0.00  0.00    +0.277 C 
ATOM     16  O   UNL     1       0.002  -0.004   0.002  0.00  0.00    -0.495 OA
ENDBRANCH   1  16
BRANCH   5  17
ATOM     17  O   UNL     1       2.341   0.317  -4.125  0.00  0.00    -0.494 OA
ATOM     18  C   UNL     1       2.252   1.736  -3.980  0.00  0.00    +0.277 C 
ENDBRANCH   5  17
BRANCH  13  19
ATOM     19  C   UNL     1       0.463  -8.120  -3.890  0.00  0.00    +0.082 C 
BRANCH  19  20
ATOM     20  C   UNL     1      -0.869  -8.840  -3.672  0.00  0.00    -0.004 C 
BRANCH  20  21
ATOM     21  C   UNL     1      -0.741 -10.297  -4.121  0.00  0.00    -0.085 C 
BRANCH  21  22
ATOM     22  N   UNL     1      -2.020 -10.988  -3.911  0.00  0.00    +0.378 N 
ATOM     23  H   UNL     1      -1.936 -11.949  -4.207  0.00  0.00    -0.090 HD
ATOM     24  H   UNL     1      -2.262 -10.958  -2.932  0.00  0.00    -0.090 HD
ATOM     25  H   UNL     1      -2.741 -10.533  -4.450  0.00  0.00    -0.090 HD
ENDBRANCH  21  22
ENDBRANCH  20  21
ENDBRANCH  19  20
ENDBRANCH  13  19
TORSDOF 6
