REMARK  Name = ZINC39685903
REMARK  13 active torsions:
REMARK  status: ('A' for Active; 'I' for Inactive)
REMARK    1  A    between atoms: C_1  and  C_2
REMARK    2  A    between atoms: C_7  and  C_8
REMARK    3  A    between atoms: C_8  and  C_9
REMARK    4  A    between atoms: C_13  and  C_22
REMARK    5  A    between atoms: N_24  and  C_25
REMARK    6  A    between atoms: C_25  and  C_27
REMARK    7  A    between atoms: C_25  and  C_30
REMARK    8  A    between atoms: C_27  and  C_28
REMARK    9  A    between atoms: C_27  and  C_29
REMARK   10  A    between atoms: N_32  and  C_33
REMARK   11  A    between atoms: C_33  and  C_34
REMARK   12  A    between atoms: C_33  and  C_35
REMARK   13  A    between atoms: C_33  and  C_36
REMARK                            x       y       z     vdW  Elec       q    Type
REMARK                         _______ _______ _______ _____ _____    ______ ____
ROOT
ATOM      1  C   UNL     1      -0.318   0.338   2.322  0.00  0.00    +0.220 C 
ATOM      2  O   UNL     1      -1.297  -0.176   1.821  0.00  0.00    -0.275 OA
ATOM      3  N   UNL     1      -0.372   0.797   3.587  0.00  0.00    -0.300 N 
ATOM      4  C   UNL     1       0.708   1.455   4.361  0.00  0.00    +0.121 C 
ATOM      5  C   UNL     1      -0.005   2.574   5.152  0.00  0.00    +0.100 C 
ATOM      6  C   UNL     1      -1.468   2.111   5.255  0.00  0.00    -0.004 C 
ATOM      7  C   UNL     1      -1.525   0.765   4.518  0.00  0.00    +0.115 C 
ATOM      8  C   UNL     1      -1.864   1.931   6.718  0.00  0.00    -0.010 C 
ATOM      9  C   UNL     1      -3.339   1.526   6.797  0.00  0.00    -0.082 C 
ATOM     10  N   UNL     1      -4.167   2.563   6.169  0.00  0.00    +0.379 N 
ATOM     11  C   UNL     1      -3.844   2.665   4.741  0.00  0.00    -0.082 C 
ATOM     12  C   UNL     1      -2.390   3.118   4.575  0.00  0.00    -0.010 C 
ATOM     13  H   UNL     1      -5.141   2.324   6.276  0.00  0.00    -0.086 HD
ATOM     14  H   UNL     1      -3.990   3.450   6.617  0.00  0.00    -0.086 HD
ENDROOT
BRANCH   5  15
ATOM     15  C   UNL     1       0.082   3.881   4.407  0.00  0.00    +0.219 C 
ATOM     16  O   UNL     1       0.198   3.885   3.200  0.00  0.00    -0.275 OA
ATOM     17  N   UNL     1       0.032   5.047   5.083  0.00  0.00    -0.303 N 
ATOM     18  H   UNL     1      -0.040   5.044   6.050  0.00  0.00    +0.149 HD
BRANCH  17  19
ATOM     19  C   UNL     1       0.086   6.317   4.356  0.00  0.00    +0.161 C 
BRANCH  19  20
ATOM     20  C   UNL     1       0.809   7.343   5.191  0.00  0.00    +0.234 C 
ATOM     21  O   UNL     1       0.924   7.179   6.387  0.00  0.00    -0.274 OA
ATOM     22  N   UNL     1       1.327   8.442   4.608  0.00  0.00    -0.309 N 
ATOM     23  H   UNL     1       1.173   8.610   3.665  0.00  0.00    +0.149 HD
BRANCH  22  24
ATOM     24  C   UNL     1       2.123   9.384   5.399  0.00  0.00    +0.026 C 
ATOM     25  C   UNL     1       3.342   8.663   5.976  0.00  0.00    +0.031 C 
ATOM     26  C   UNL     1       2.588  10.535   4.504  0.00  0.00    +0.031 C 
ATOM     27  C   UNL     1       1.270   9.939   6.541  0.00  0.00    +0.031 C 
ENDBRANCH  22  24
ENDBRANCH  19  20
BRANCH  19  28
ATOM     28  C   UNL     1      -1.336   6.803   4.071  0.00  0.00    +0.012 C 
ATOM     29  C   UNL     1      -2.009   5.855   3.075  0.00  0.00    +0.009 C 
ATOM     30  C   UNL     1      -2.138   6.826   5.373  0.00  0.00    +0.009 C 
ENDBRANCH  19  28
ENDBRANCH  17  19
ENDBRANCH   5  15
BRANCH   1  31
ATOM     31  C   UNL     1       0.957   0.462   1.528  0.00  0.00    +0.131 C 
BRANCH  31  38
ATOM     32  C   UNL     1      -0.186   2.079  -0.577  0.00  0.00    +0.044 C 
ATOM     33  C   UNL     1       0.206   0.650  -0.853  0.00  0.00    -0.047 A 
ATOM     34  C   UNL     1       0.024   0.114  -2.114  0.00  0.00    +0.003 A 
ATOM     35  C   UNL     1       0.383  -1.196  -2.367  0.00  0.00    +0.000 A 
ATOM     36  C   UNL     1       0.924  -1.972  -1.358  0.00  0.00    +0.000 A 
ATOM     37  C   UNL     1       1.107  -1.436  -0.097  0.00  0.00    +0.004 A 
ATOM     38  C   UNL     1       0.752  -0.124   0.154  0.00  0.00    -0.036 A 
ENDBRANCH  31  38
ENDBRANCH   1  31
TORSDOF 7
