REMARK  Name = ZINC15978520
REMARK  8 active torsions:
REMARK  status: ('A' for Active; 'I' for Inactive)
REMARK    1  A    between atoms: C_1  and  C_2
REMARK    2  A    between atoms: C_2  and  C_3
REMARK    3  A    between atoms: C_6  and  C_9
REMARK    4  A    between atoms: N_13  and  C_17
REMARK    5  A    between atoms: C_17  and  C_18
REMARK    6  A    between atoms: C_18  and  C_19
REMARK    7  A    between atoms: N_21  and  C_22
REMARK    8  A    between atoms: C_25  and  C_28
REMARK                            x       y       z     vdW  Elec       q    Type
REMARK                         _______ _______ _______ _____ _____    ______ ____
ROOT
ATOM      1  C   UNL     1      -5.829  -1.712  -0.098  0.00  0.00    +0.028 C 
ATOM      2  C   UNL     1      -6.462  -2.010  -1.260  0.00  0.00    +0.077 C 
ATOM      3  C   UNL     1      -6.008  -1.827  -2.655  0.00  0.00    +0.258 C 
ATOM      4  O   UNL     1      -4.921  -1.346  -2.916  0.00  0.00    -0.269 OA
ATOM      5  N   UNL     1      -6.844  -2.212  -3.604  0.00  0.00    -0.255 N 
ATOM      6  C   UNL     1      -8.047  -2.745  -3.310  0.00  0.00    +0.121 C 
ATOM      7  S   UNL     1      -9.256  -3.299  -4.388  0.00  0.00    -0.027 S 
ATOM      8  S   UNL     1      -8.072  -2.739  -1.525  0.00  0.00    -0.061 S 
ENDROOT
BRANCH   1  12
ATOM      9  C   UNL     1      -2.199   0.479  -0.163  0.00  0.00    -0.048 A 
ATOM     10  C   UNL     1      -3.200   0.779  -1.071  0.00  0.00    +0.004 A 
ATOM     11  C   UNL     1      -4.383   0.071  -1.056  0.00  0.00    +0.008 A 
ATOM     12  C   UNL     1      -4.570  -0.952  -0.121  0.00  0.00    -0.024 A 
ATOM     13  C   UNL     1      -3.553  -1.249   0.793  0.00  0.00    +0.008 A 
ATOM     14  C   UNL     1      -2.374  -0.535   0.762  0.00  0.00    +0.004 A 
BRANCH   9  16
ATOM     15  C   UNL     1       0.083   0.574  -1.129  0.00  0.00    +0.009 C 
ATOM     16  C   UNL     1      -0.909   1.258  -0.187  0.00  0.00    +0.032 C 
ENDBRANCH   9  16
ENDBRANCH   1  12
BRANCH   5  17
ATOM     17  C   UNL     1      -6.453  -2.058  -5.008  0.00  0.00    +0.124 C 
BRANCH  17  18
ATOM     18  C   UNL     1      -5.729  -3.321  -5.478  0.00  0.00    +0.115 C 
BRANCH  18  19
ATOM     19  C   UNL     1      -5.328  -3.162  -6.922  0.00  0.00    +0.219 C 
ATOM     20  O   UNL     1      -5.594  -2.139  -7.516  0.00  0.00    -0.275 OA
ATOM     21  N   UNL     1      -4.673  -4.157  -7.552  0.00  0.00    -0.285 N 
ATOM     22  H   UNL     1      -4.530  -5.005  -7.104  0.00  0.00    +0.155 HD
BRANCH  21  23
ATOM     23  C   UNL     1      -4.199  -3.967  -8.849  0.00  0.00    +0.033 A 
ATOM     24  C   UNL     1      -3.745  -2.712  -9.245  0.00  0.00    +0.024 A 
ATOM     25  C   UNL     1      -3.279  -2.522 -10.521  0.00  0.00    +0.017 A 
ATOM     26  C   UNL     1      -3.260  -3.590 -11.424  0.00  0.00    +0.063 A 
ATOM     27  C   UNL     1      -3.717  -4.850 -11.021  0.00  0.00    +0.017 A 
ATOM     28  C   UNL     1      -4.177  -5.034  -9.743  0.00  0.00    +0.024 A 
BRANCH  26  29
ATOM     29  C   UNL     1      -2.760  -3.389 -12.794  0.00  0.00    +0.387 C 
ATOM     30  O   UNL     1      -2.361  -2.287 -13.144  0.00  0.00    -0.241 OA
ATOM     31  O   UNL     1      -2.744  -4.325 -13.582  0.00  0.00    -0.241 OA
ENDBRANCH  26  29
ENDBRANCH  21  23
ENDBRANCH  18  19
ENDBRANCH  17  18
ENDBRANCH   5  17
TORSDOF 7
