REMARK  Name = ZINC62889950
REMARK  4 active torsions:
REMARK  status: ('A' for Active; 'I' for Inactive)
REMARK    1  A    between atoms: C_1  and  C_2
REMARK    2  A    between atoms: C_2  and  C_3
REMARK    3  A    between atoms: C_3  and  C_8
REMARK    4  A    between atoms: C_14  and  C_16
REMARK                            x       y       z     vdW  Elec       q    Type
REMARK                         _______ _______ _______ _____ _____    ______ ____
ROOT
ATOM      1  C   UNL     1       0.229  -0.092   2.482  0.00  0.00    +0.220 C 
ATOM      2  O   UNL     1       0.812   0.685   3.208  0.00  0.00    -0.275 OA
ATOM      3  N   UNL     1      -0.976  -0.577   2.843  0.00  0.00    -0.290 N 
ATOM      4  C   UNL     1      -1.837  -1.441   2.015  0.00  0.00    +0.108 C 
ATOM      5  C   UNL     1      -2.728  -2.201   3.030  0.00  0.00    +0.021 C 
ATOM      6  C   UNL     1      -2.982  -1.108   4.101  0.00  0.00    +0.033 C 
ATOM      7  C   UNL     1      -1.645  -0.338   4.130  0.00  0.00    +0.162 C 
ENDROOT
BRANCH   1   8
ATOM      8  C   UNL     1       0.851  -0.514   1.176  0.00  0.00    +0.030 C 
ATOM      9  C   UNL     1       2.289   0.040   1.060  0.00  0.00    -0.005 C 
ATOM     10  C   UNL     1       3.159  -1.156   1.523  0.00  0.00    -0.082 C 
ATOM     11  N   UNL     1       2.446  -2.332   0.963  0.00  0.00    +0.380 N 
ATOM     12  C   UNL     1       1.004  -2.046   1.128  0.00  0.00    -0.067 C 
ATOM     13  H   UNL     1       2.669  -2.441  -0.015  0.00  0.00    -0.086 HD
ATOM     14  H   UNL     1       2.696  -3.166   1.473  0.00  0.00    -0.086 HD
BRANCH   8  16
ATOM     15  C   UNL     1      -0.043   1.500  -0.000  0.00  0.00    +0.005 C 
ATOM     16  C   UNL     1      -0.002  -0.029   0.002  0.00  0.00    +0.011 C 
ENDBRANCH   8  16
ENDBRANCH   1   8
BRANCH   7  17
ATOM     17  C   UNL     1      -1.909   1.136   4.304  0.00  0.00    +0.231 C 
ATOM     18  O   UNL     1      -1.574   1.918   3.440  0.00  0.00    -0.274 OA
ATOM     19  N   UNL     1      -2.519   1.584   5.420  0.00  0.00    -0.328 N 
ATOM     20  H   UNL     1      -2.787   0.958   6.110  0.00  0.00    +0.145 HD
ATOM     21  H   UNL     1      -2.689   2.533   5.532  0.00  0.00    +0.145 HD
ENDBRANCH   7  17
TORSDOF 3
