REMARK  Name = ZINC28905441
REMARK  10 active torsions:
REMARK  status: ('A' for Active; 'I' for Inactive)
REMARK    1  A    between atoms: C_1  and  C_2
REMARK    2  A    between atoms: C_5  and  C_27
REMARK    3  A    between atoms: N_8  and  C_10
REMARK    4  A    between atoms: C_10  and  C_11
REMARK    5  A    between atoms: C_11  and  C_13
REMARK    6  A    between atoms: C_14  and  N_26
REMARK    7  A    between atoms: N_15  and  C_22
REMARK    8  A    between atoms: C_22  and  C_23
REMARK    9  A    between atoms: C_23  and  O_24
REMARK   10  A    between atoms: O_24  and  C_25
REMARK                            x       y       z     vdW  Elec       q    Type
REMARK                         _______ _______ _______ _____ _____    ______ ____
ROOT
ATOM      1  C   UNL     1      -4.629  -2.623  -1.806  0.00  0.00    +0.118 A 
ATOM      2  C   UNL     1      -5.214  -2.223  -3.020  0.00  0.00    +0.116 A 
ATOM      3  N   UNL     1      -6.472  -2.659  -3.323  0.00  0.00    -0.279 N 
ATOM      4  C   UNL     1      -7.158  -3.449  -2.482  0.00  0.00    +0.331 A 
ATOM      5  O   UNL     1      -8.276  -3.806  -2.796  0.00  0.00    -0.246 OA
ATOM      6  N   UNL     1      -6.654  -3.858  -1.307  0.00  0.00    -0.274 N 
ATOM      7  H   UNL     1      -7.252  -4.505  -0.647  0.00  0.00    +0.173 HD
ATOM      8  C   UNL     1      -5.417  -3.487  -0.917  0.00  0.00    +0.266 A 
ATOM      9  O   UNL     1      -4.963  -3.861   0.149  0.00  0.00    -0.267 OA
ENDROOT
BRANCH   2  10
ATOM     10  N   UNL     1      -4.535  -1.418  -3.882  0.00  0.00    -0.344 N 
ATOM     11  H   UNL     1      -5.000  -1.110  -4.830  0.00  0.00    +0.144 HD
ATOM     12  H   UNL     1      -3.520  -1.075  -3.631  0.00  0.00    +0.144 HD
ENDBRANCH   2  10
BRANCH   1  13
ATOM     13  C   UNL     1      -3.330  -2.204  -1.450  0.00  0.00    +0.155 C 
ATOM     14  O   UNL     1      -2.656  -1.575  -2.241  0.00  0.00    -0.294 OA
BRANCH  13  15
ATOM     15  C   UNL     1      -2.777  -2.537  -0.088  0.00  0.00    +0.002 C 
BRANCH  15  21
ATOM     16  C   UNL     1      -0.014   1.531  -0.015  0.00  0.00    +0.005 C 
ATOM     17  C   UNL     1       0.003   0.002  -0.009  0.00  0.00    -0.031 C 
ATOM     18  C   UNL     1       0.738  -0.497   1.239  0.00  0.00    +0.003 C 
ATOM     19  C   UNL     1       0.698  -2.027   1.268  0.00  0.00    -0.031 C 
ATOM     20  C   UNL     1      -0.758  -2.495   1.248  0.00  0.00    -0.075 C 
ATOM     21  N   UNL     1      -1.418  -1.993   0.035  0.00  0.00    +0.385 N 
ATOM     22  C   UNL     1      -1.434  -0.525   0.008  0.00  0.00    -0.075 C 
ATOM     23  C   UNL     1       1.430  -2.581   0.044  0.00  0.00    +0.005 C 
ATOM     24  H   UNL     1      -0.834  -2.338  -0.831  0.00  0.00    -0.081 HD
ENDBRANCH  15  21
ENDBRANCH  13  15
ENDBRANCH   1  13
BRANCH   3  25
ATOM     25  C   UNL     1      -7.087  -2.252  -4.589  0.00  0.00    +0.156 C 
BRANCH  25  26
ATOM     26  C   UNL     1      -7.854  -0.944  -4.386  0.00  0.00    +0.181 C 
BRANCH  26  27
ATOM     27  O   UNL     1      -6.936   0.101  -4.059  0.00  0.00    -0.381 OA
ATOM     28  C   UNL     1      -7.553   1.372  -3.848  0.00  0.00    +0.194 C 
ENDBRANCH  26  27
ENDBRANCH  25  26
ENDBRANCH   3  25
TORSDOF 7
