REMARK  Name = ZINC33443128
REMARK  10 active torsions:
REMARK  status: ('A' for Active; 'I' for Inactive)
REMARK    1  A    between atoms: C_1  and  N_2
REMARK    2  A    between atoms: N_2  and  C_3
REMARK    3  A    between atoms: N_2  and  C_10
REMARK    4  A    between atoms: C_6  and  O_9
REMARK    5  A    between atoms: C_10  and  C_12
REMARK    6  A    between atoms: C_10  and  C_14
REMARK    7  A    between atoms: C_12  and  N_13
REMARK    8  A    between atoms: C_17  and  O_22
REMARK    9  A    between atoms: C_18  and  O_20
REMARK   10  A    between atoms: O_20  and  C_21
REMARK                            x       y       z     vdW  Elec       q    Type
REMARK                         _______ _______ _______ _____ _____    ______ ____
ROOT
ATOM      1  C   UNL     1      -2.284   1.008  -0.027  0.00  0.00    +0.086 C 
ENDROOT
BRANCH   1   2
ATOM      2  C   UNL     1      -0.844   1.109   0.407  0.00  0.00    -0.025 A 
ATOM      3  C   UNL     1      -0.122  -0.039   0.672  0.00  0.00    +0.009 A 
ATOM      4  C   UNL     1       1.201   0.048   1.065  0.00  0.00    +0.049 A 
ATOM      5  C   UNL     1       1.803   1.288   1.200  0.00  0.00    +0.158 A 
ATOM      6  C   UNL     1       1.074   2.444   0.938  0.00  0.00    +0.162 A 
ATOM      7  C   UNL     1      -0.251   2.350   0.544  0.00  0.00    +0.054 A 
BRANCH   6   8
ATOM      8  O   UNL     1       1.661   3.664   1.069  0.00  0.00    -0.491 OA
ATOM      9  C   UNL     1       0.852   4.807   0.784  0.00  0.00    +0.277 C 
ENDBRANCH   6   8
BRANCH   5  10
ATOM     10  O   UNL     1       3.104   1.376   1.587  0.00  0.00    -0.503 OA
ATOM     11  H   UNL     1       3.581   2.361   1.693  0.00  0.00    +0.292 HD
ENDBRANCH   5  10
ENDBRANCH   1   2
BRANCH   1  13
ATOM     12  C   UNL     1      -2.551  -1.479  -0.456  0.00  0.00    +0.130 C 
ATOM     13  N   UNL     1      -2.435  -0.109  -0.963  0.00  0.00    -0.328 N 
BRANCH  13  14
ATOM     14  C   UNL     1      -2.467   0.132  -2.341  0.00  0.00    +0.030 A 
ATOM     15  C   UNL     1      -2.243   1.413  -2.828  0.00  0.00    +0.027 A 
ATOM     16  C   UNL     1      -2.270   1.649  -4.188  0.00  0.00    +0.047 A 
ATOM     17  C   UNL     1      -2.531   0.609  -5.068  0.00  0.00    +0.117 A 
ATOM     18  C   UNL     1      -2.761  -0.670  -4.582  0.00  0.00    +0.047 A 
ATOM     19  C   UNL     1      -2.729  -0.909  -3.222  0.00  0.00    +0.027 A 
BRANCH  17  20
ATOM     20  O   UNL     1      -2.563   0.843  -6.407  0.00  0.00    -0.507 OA
ATOM     21  H   UNL     1      -2.770   0.018  -7.105  0.00  0.00    +0.292 HD
ENDBRANCH  17  20
ENDBRANCH  13  14
ENDBRANCH   1  13
BRANCH   1  22
ATOM     22  C   UNL     1      -3.170   0.771   1.197  0.00  0.00    -0.059 C 
BRANCH  22  23
ATOM     23  N   UNL     1      -4.557   0.553   0.763  0.00  0.00    +0.380 N 
ATOM     24  H   UNL     1      -5.194   0.383   1.643  0.00  0.00    -0.090 HD
ATOM     25  H   UNL     1      -4.601  -0.325   0.103  0.00  0.00    -0.090 HD
ATOM     26  H   UNL     1      -4.914   1.440   0.218  0.00  0.00    -0.090 HD
ENDBRANCH  22  23
ENDBRANCH   1  22
TORSDOF 8
