REMARK  Name = ZINC31797291
REMARK  10 active torsions:
REMARK  status: ('A' for Active; 'I' for Inactive)
REMARK    1  A    between atoms: C_1  and  C_2
REMARK    2  A    between atoms: C_3  and  S_21
REMARK    3  A    between atoms: C_8  and  C_10
REMARK    4  A    between atoms: C_12  and  C_17
REMARK    5  A    between atoms: C_14  and  C_15
REMARK    6  A    between atoms: C_14  and  C_16
REMARK    7  A    between atoms: C_18  and  C_19
REMARK    8  A    between atoms: C_18  and  C_20
REMARK    9  A    between atoms: S_21  and  C_22
REMARK   10  A    between atoms: C_22  and  C_23
REMARK                            x       y       z     vdW  Elec       q    Type
REMARK                         _______ _______ _______ _____ _____    ______ ____
ROOT
ATOM      1  C   UNL     1       5.480  -6.464  -2.562  0.00  0.00    +0.067 C 
ATOM      2  C   UNL     1       4.750  -5.650  -1.526  0.00  0.00    +0.061 A 
ATOM      3  C   UNL     1       4.848  -4.292  -1.527  0.00  0.00    +0.070 A 
ATOM      4  S   UNL     1       3.811  -3.885  -0.128  0.00  0.00    -0.045 S 
ATOM      5  C   UNL     1       3.360  -5.559   0.307  0.00  0.00    +0.166 A 
ATOM      6  N   UNL     1       4.006  -6.250  -0.614  0.00  0.00    -0.229 NA
ATOM      7  N   UNL     1       2.543  -6.013   1.339  0.00  0.00    -0.264 N 
ATOM      8  C   UNL     1       1.966  -5.131   2.179  0.00  0.00    +0.223 C 
ATOM      9  O   UNL     1       2.159  -3.942   2.037  0.00  0.00    -0.275 OA
ATOM     10  H   UNL     1       2.389  -6.964   1.452  0.00  0.00    +0.157 HD
ENDROOT
BRANCH   8  11
ATOM     11  C   UNL     1       1.082  -5.623   3.296  0.00  0.00    +0.089 C 
ATOM     12  C   UNL     1      -0.384  -5.186   3.280  0.00  0.00    +0.030 C 
ATOM     13  C   UNL     1      -0.012  -6.631   2.939  0.00  0.00    -0.016 C 
ATOM     14  C   UNL     1      -0.125  -7.063   1.475  0.00  0.00    +0.012 C 
ATOM     15  C   UNL     1      -0.344  -7.708   3.973  0.00  0.00    +0.012 C 
BRANCH  12  16
ATOM     16  C   UNL     1      -0.833  -4.296   2.149  0.00  0.00    -0.023 C 
ATOM     17  C   UNL     1      -2.026  -3.756   2.175  0.00  0.00    -0.079 C 
ATOM     18  C   UNL     1      -2.950  -4.024   3.335  0.00  0.00    +0.038 C 
ATOM     19  C   UNL     1      -2.475  -2.867   1.044  0.00  0.00    +0.038 C 
ENDBRANCH  12  16
ENDBRANCH   8  11
BRANCH   3  20
ATOM     20  S   UNL     1       5.747  -3.229  -2.608  0.00  0.00    -0.107 S 
BRANCH  20  21
ATOM     21  C   UNL     1       5.390  -1.564  -1.983  0.00  0.00    +0.170 C 
BRANCH  21  22
ATOM     22  C   UNL     1       6.109  -0.545  -2.830  0.00  0.00    +0.221 C 
ATOM     23  O   UNL     1       6.794  -0.907  -3.763  0.00  0.00    -0.275 OA
ATOM     24  N   UNL     1       5.990   0.768  -2.551  0.00  0.00    -0.329 N 
ATOM     25  H   UNL     1       5.442   1.057  -1.805  0.00  0.00    +0.145 HD
ATOM     26  H   UNL     1       6.452   1.423  -3.096  0.00  0.00    +0.145 HD
ENDBRANCH  21  22
ENDBRANCH  20  21
ENDBRANCH   3  20
TORSDOF 5
