REMARK  Name = ZINC52282877
REMARK  9 active torsions:
REMARK  status: ('A' for Active; 'I' for Inactive)
REMARK    1  A    between atoms: C_1  and  C_2
REMARK    2  A    between atoms: C_2  and  C_3
REMARK    3  A    between atoms: C_2  and  C_4
REMARK    4  A    between atoms: C_7  and  C_10
REMARK    5  A    between atoms: C_10  and  C_12
REMARK    6  A    between atoms: C_10  and  O_26
REMARK    7  A    between atoms: C_12  and  N_13
REMARK    8  A    between atoms: C_20  and  S_22
REMARK    9  A    between atoms: S_22  and  N_25
REMARK                            x       y       z     vdW  Elec       q    Type
REMARK                         _______ _______ _______ _____ _____    ______ ____
ROOT
ATOM      1  N   UNL     1       2.897  -3.747  -6.307  0.00  0.00    -0.327 N 
ATOM      2  C   UNL     1       2.424  -3.538  -7.678  0.00  0.00    +0.110 C 
ATOM      3  C   UNL     1       3.476  -4.213  -8.574  0.00  0.00    +0.056 C 
ATOM      4  C   UNL     1       4.497  -4.770  -7.608  0.00  0.00    -0.023 A 
ATOM      5  C   UNL     1       4.099  -4.457  -6.317  0.00  0.00    +0.033 A 
ATOM      6  C   UNL     1       4.894  -4.865  -5.245  0.00  0.00    +0.025 A 
ATOM      7  C   UNL     1       6.060  -5.566  -5.471  0.00  0.00    +0.030 A 
ATOM      8  C   UNL     1       6.450  -5.870  -6.762  0.00  0.00    +0.105 A 
ATOM      9  C   UNL     1       5.663  -5.477  -7.829  0.00  0.00    +0.034 A 
ENDROOT
BRANCH   8  10
ATOM     10  S   UNL     1       7.940  -6.766  -7.047  0.00  0.00    +0.056 S 
ATOM     11  O   UNL     1       8.359  -6.448  -8.367  0.00  0.00    -0.153 OA
ATOM     12  O   UNL     1       8.768  -6.549  -5.913  0.00  0.00    -0.153 OA
BRANCH  10  13
ATOM     13  N   UNL     1       7.551  -8.376  -7.049  0.00  0.00    -0.204 NA
ATOM     14  H   UNL     1       6.633  -8.653  -6.907  0.00  0.00    +0.144 HD
ATOM     15  H   UNL     1       8.242  -9.041  -7.191  0.00  0.00    +0.144 HD
ENDBRANCH  10  13
ENDBRANCH   8  10
BRANCH   1  16
ATOM     16  C   UNL     1       2.212  -3.273  -5.102  0.00  0.00    +0.141 C 
BRANCH  16  17
ATOM     17  C   UNL     1       2.707  -1.868  -4.752  0.00  0.00    +0.162 C 
BRANCH  17  21
ATOM     18  C   UNL     1       0.707  -0.490  -1.238  0.00  0.00    -0.045 A 
ATOM     19  C   UNL     1       0.222  -0.151  -2.487  0.00  0.00    +0.004 A 
ATOM     20  C   UNL     1       0.869  -0.597  -3.624  0.00  0.00    +0.006 A 
ATOM     21  C   UNL     1       2.002  -1.381  -3.513  0.00  0.00    -0.018 A 
ATOM     22  C   UNL     1       2.488  -1.720  -2.263  0.00  0.00    +0.006 A 
ATOM     23  C   UNL     1       1.843  -1.270  -1.126  0.00  0.00    +0.004 A 
BRANCH  18  25
ATOM     24  C   UNL     1      -0.019   1.526   0.010  0.00  0.00    +0.012 C 
ATOM     25  C   UNL     1       0.002  -0.004   0.002  0.00  0.00    +0.013 C 
ATOM     26  C   UNL     1      -1.433  -0.534   0.013  0.00  0.00    +0.012 C 
ENDBRANCH  18  25
ENDBRANCH  17  21
BRANCH  17  27
ATOM     27  O   UNL     1       4.115  -1.904  -4.516  0.00  0.00    -0.386 OA
ATOM     28  H   UNL     1       4.378  -2.487  -3.791  0.00  0.00    +0.210 HD
ENDBRANCH  17  27
ENDBRANCH  16  17
ENDBRANCH   1  16
TORSDOF 7
