REMARK  Name = ZINC06793075
REMARK  7 active torsions:
REMARK  status: ('A' for Active; 'I' for Inactive)
REMARK    1  A    between atoms: C_1  and  C_2
REMARK    2  A    between atoms: C_5  and  N_9
REMARK    3  A    between atoms: C_6  and  C_8
REMARK    4  A    between atoms: N_9  and  C_10
REMARK    5  A    between atoms: C_10  and  C_11
REMARK    6  A    between atoms: N_13  and  N_14
REMARK    7  A    between atoms: C_20  and  C_23
REMARK                            x       y       z     vdW  Elec       q    Type
REMARK                         _______ _______ _______ _____ _____    ______ ____
ROOT
ATOM      1  C   UNL     1       0.354  -6.381  -1.050  0.00  0.00    +0.249 C 
ATOM      2  O   UNL     1       0.534  -6.795   0.075  0.00  0.00    -0.272 OA
ATOM      3  N   UNL     1       0.132  -7.247  -2.059  0.00  0.00    -0.205 N 
ATOM      4  H   UNL     1      -0.011  -6.916  -2.959  0.00  0.00    +0.177 HD
ENDROOT
BRANCH   3   5
ATOM      5  N   UNL     1       0.108  -8.625  -1.807  0.00  0.00    -0.174 NA
ATOM      6  C   UNL     1       0.016  -9.472  -2.803  0.00  0.00    +0.154 C 
ATOM      7  C   UNL     1       0.574  -9.324  -4.168  0.00  0.00    +0.042 A 
ATOM      8  C   UNL     1       0.215 -10.482  -4.869  0.00  0.00    +0.044 A 
ATOM      9  C   UNL     1       0.611 -10.619  -6.195  0.00  0.00    +0.024 A 
ATOM     10  C   UNL     1       1.347  -9.623  -6.805  0.00  0.00    +0.006 A 
ATOM     11  C   UNL     1       1.700  -8.480  -6.109  0.00  0.00    -0.036 A 
ATOM     12  C   UNL     1       1.316  -8.326  -4.790  0.00  0.00    +0.032 A 
ATOM     13 BR   UNL     1       1.797  -6.766  -3.837  0.00  0.00    -0.049 Br
ATOM     14  C   UNL     1       2.505  -7.403  -6.790  0.00  0.00    +0.045 C 
ATOM     15  N   UNL     1      -0.517 -11.318  -4.033  0.00  0.00    -0.280 N 
ATOM     16  C   UNL     1      -0.662 -10.784  -2.809  0.00  0.00    +0.269 C 
ATOM     17  O   UNL     1      -1.250 -11.290  -1.871  0.00  0.00    -0.268 OA
ATOM     18  H   UNL     1      -0.875 -12.180  -4.299  0.00  0.00    +0.155 HD
ENDBRANCH   3   5
BRANCH   1  19
ATOM     19  C   UNL     1       0.380  -4.899  -1.321  0.00  0.00    +0.199 C 
BRANCH  19  20
ATOM     20  N   UNL     1       0.638  -4.178  -0.072  0.00  0.00    -0.335 N 
ATOM     21  H   UNL     1       0.760  -4.670   0.755  0.00  0.00    +0.147 HD
BRANCH  20  26
ATOM     22  C   UNL     1       0.918   1.485  -0.071  0.00  0.00    +0.044 C 
ATOM     23  C   UNL     1       0.844  -0.020  -0.071  0.00  0.00    -0.050 A 
ATOM     24  C   UNL     1       0.601  -0.698  -1.252  0.00  0.00    +0.005 A 
ATOM     25  C   UNL     1       0.532  -2.077  -1.255  0.00  0.00    +0.023 A 
ATOM     26  C   UNL     1       0.707  -2.783  -0.072  0.00  0.00    +0.030 A 
ATOM     27  C   UNL     1       0.951  -2.099   1.112  0.00  0.00    -0.029 A 
ATOM     28  C   UNL     1       1.024  -0.720   1.108  0.00  0.00    +0.008 A 
ATOM     29  C   UNL     1       1.141  -2.860   2.398  0.00  0.00    +0.045 C 
ENDBRANCH  20  26
ENDBRANCH  19  20
ENDBRANCH   1  19
TORSDOF 4
