REMARK  Name = ZINC61920465
REMARK  2 active torsions:
REMARK  status: ('A' for Active; 'I' for Inactive)
REMARK    1  A    between atoms: C_3  and  C_13
REMARK    2  A    between atoms: N_5  and  C_7
REMARK                            x       y       z     vdW  Elec       q    Type
REMARK                         _______ _______ _______ _____ _____    ______ ____
ROOT
ATOM      1  C   UNL     1       0.030   1.650  -0.223  0.00  0.00    +0.017 C 
ATOM      2  C   UNL     1       1.538   2.014  -0.188  0.00  0.00    +0.029 C 
ATOM      3  C   UNL     1       2.197   0.839  -0.942  0.00  0.00    +0.144 C 
ATOM      4  N   UNL     1       1.266  -0.302  -0.872  0.00  0.00    -0.289 NA
ATOM      5  C   UNL     1       0.078   0.107  -0.092  0.00  0.00    +0.085 C 
ENDROOT
BRANCH   3   6
ATOM      6  C   UNL     1       3.505   0.478  -0.286  0.00  0.00    +0.233 C 
ATOM      7  O   UNL     1       3.535   0.196   0.893  0.00  0.00    -0.274 OA
ATOM      8  N   UNL     1       4.642   0.469  -1.010  0.00  0.00    -0.298 N 
ATOM      9  C   UNL     1       5.883  -0.015  -0.376  0.00  0.00    +0.110 C 
ATOM     10  C   UNL     1       6.688  -0.896  -1.343  0.00  0.00    +0.047 C 
ATOM     11  C   UNL     1       5.743  -1.785  -2.126  0.00  0.00    +0.161 C 
ATOM     12  O   UNL     1       5.380  -1.119  -3.328  0.00  0.00    -0.378 OA
ATOM     13  C   UNL     1       4.303  -0.256  -3.326  0.00  0.00    +0.178 C 
ATOM     14  C   UNL     1       4.598   0.930  -2.385  0.00  0.00    +0.136 C 
ENDBRANCH   3   6
BRANCH   4  15
ATOM     15  C   UNL     1       1.914  -1.474  -0.269  0.00  0.00    +0.054 C 
ATOM     16  C   UNL     1       1.357  -2.751  -0.904  0.00  0.00    -0.000 C 
ATOM     17  C   UNL     1       1.977  -3.969  -0.217  0.00  0.00    -0.081 C 
ATOM     18  N   UNL     1       1.647  -3.949   1.213  0.00  0.00    +0.379 N 
ATOM     19  C   UNL     1       2.239  -2.764   1.844  0.00  0.00    -0.081 C 
ATOM     20  C   UNL     1       1.629  -1.499   1.236  0.00  0.00    -0.000 C 
ATOM     21  H   UNL     1       0.645  -3.924   1.326  0.00  0.00    -0.086 HD
ATOM     22  H   UNL     1       2.012  -4.781   1.653  0.00  0.00    -0.086 HD
ENDBRANCH   4  15
TORSDOF 2
