REMARK  Name = ZINC49289541
REMARK  12 active torsions:
REMARK  status: ('A' for Active; 'I' for Inactive)
REMARK    1  A    between atoms: C_1  and  C_2
REMARK    2  A    between atoms: C_2  and  C_3
REMARK    3  A    between atoms: C_3  and  C_4
REMARK    4  A    between atoms: C_4  and  C_6
REMARK    5  A    between atoms: C_4  and  N_7
REMARK    6  A    between atoms: C_8  and  C_10
REMARK    7  A    between atoms: C_10  and  O_11
REMARK    8  A    between atoms: O_11  and  C_12
REMARK    9  A    between atoms: C_13  and  C_19
REMARK   10  A    between atoms: C_19  and  C_20
REMARK   11  A    between atoms: C_20  and  C_22
REMARK   12  A    between atoms: C_20  and  N_23
REMARK                            x       y       z     vdW  Elec       q    Type
REMARK                         _______ _______ _______ _____ _____    ______ ____
ROOT
ATOM      1  C   UNL     1       1.749  -6.110   3.611  0.00  0.00    +0.138 A 
ATOM      2  C   UNL     1       3.110  -5.839   3.605  0.00  0.00    -0.006 A 
ATOM      3  C   UNL     1       3.940  -6.458   4.519  0.00  0.00    +0.007 A 
ATOM      4  C   UNL     1       3.416  -7.346   5.441  0.00  0.00    +0.002 A 
ATOM      5  C   UNL     1       2.061  -7.618   5.449  0.00  0.00    +0.019 A 
ATOM      6  C   UNL     1       1.224  -6.998   4.540  0.00  0.00    +0.060 A 
ATOM      7 BR   UNL     1      -0.631  -7.363   4.557  0.00  0.00    -0.047 Br
ENDROOT
BRANCH   1   8
ATOM      8  O   UNL     1       0.930  -5.503   2.712  0.00  0.00    -0.481 OA
BRANCH   8   9
ATOM      9  C   UNL     1       0.317  -4.277   3.117  0.00  0.00    +0.324 C 
BRANCH   9  11
ATOM     10  N   UNL     1      -1.130  -2.539   2.116  0.00  0.00    -0.310 N 
ATOM     11  C   UNL     1      -0.464  -3.700   1.964  0.00  0.00    +0.251 C 
ATOM     12  O   UNL     1      -0.492  -4.282   0.900  0.00  0.00    -0.272 OA
ATOM     13  H   UNL     1      -1.107  -2.074   2.967  0.00  0.00    +0.149 HD
BRANCH  10  14
ATOM     14  C   UNL     1      -1.889  -1.978   0.995  0.00  0.00    +0.070 C 
ATOM     15  C   UNL     1      -3.285  -2.605   0.960  0.00  0.00    +0.028 C 
BRANCH  14  16
ATOM     16  C   UNL     1      -2.015  -0.464   1.171  0.00  0.00    +0.022 C 
BRANCH  16  18
ATOM     17  C   UNL     1      -0.753   1.691   1.256  0.00  0.00    +0.004 C 
ATOM     18  C   UNL     1      -0.628   0.176   1.081  0.00  0.00    -0.002 C 
ENDBRANCH  16  18
ENDBRANCH  14  16
ENDBRANCH  10  14
ENDBRANCH   9  11
ENDBRANCH   8   9
ENDBRANCH   1   8
BRANCH   2  19
ATOM     19  C   UNL     1       3.682  -4.871   2.601  0.00  0.00    +0.022 C 
BRANCH  19  20
ATOM     20  C   UNL     1       3.934  -5.598   1.279  0.00  0.00    -0.074 C 
ATOM     21  C   UNL     1       4.401  -4.592   0.225  0.00  0.00    -0.014 C 
BRANCH  20  22
ATOM     22  N   UNL     1       4.971  -6.621   1.472  0.00  0.00    +0.380 N 
ATOM     23  H   UNL     1       5.794  -6.194   1.870  0.00  0.00    -0.090 HD
ATOM     24  H   UNL     1       4.627  -7.334   2.097  0.00  0.00    -0.090 HD
ATOM     25  H   UNL     1       5.204  -7.036   0.583  0.00  0.00    -0.090 HD
ENDBRANCH  20  22
ENDBRANCH  19  20
ENDBRANCH   2  19
TORSDOF 9
