REMARK  Name = ZINC05303212
REMARK  8 active torsions:
REMARK  status: ('A' for Active; 'I' for Inactive)
REMARK    1  A    between atoms: C_1  and  O_2
REMARK    2  A    between atoms: O_2  and  C_3
REMARK    3  A    between atoms: C_5  and  C_14
REMARK    4  A    between atoms: C_8  and  O_9
REMARK    5  A    between atoms: O_9  and  C_10
REMARK    6  A    between atoms: C_10  and  C_11
REMARK    7  A    between atoms: C_14  and  N_52
REMARK    8  A    between atoms: C_15  and  N_52
REMARK                            x       y       z     vdW  Elec       q    Type
REMARK                         _______ _______ _______ _____ _____    ______ ____
ROOT
ATOM      1  C   UNL     1       1.962   2.104   6.758  0.00  0.00    +0.162 A 
ATOM      2  C   UNL     1       1.278   2.596   5.658  0.00  0.00    +0.051 A 
ATOM      3  C   UNL     1       1.893   3.496   4.808  0.00  0.00    -0.061 A 
ATOM      4  C   UNL     1       3.186   3.916   5.059  0.00  0.00    +0.005 A 
ATOM      5  C   UNL     1       3.872   3.433   6.158  0.00  0.00    +0.049 A 
ATOM      6  C   UNL     1       3.264   2.526   7.011  0.00  0.00    +0.163 A 
ENDROOT
BRANCH   1   8
ATOM      7  C   UNL     1       0.024   0.825   7.271  0.00  0.00    +0.277 C 
ATOM      8  O   UNL     1       1.361   1.214   7.593  0.00  0.00    -0.491 OA
ENDBRANCH   1   8
BRANCH   6   9
ATOM      9  O   UNL     1       3.937   2.051   8.092  0.00  0.00    -0.479 OA
BRANCH   9  10
ATOM     10  C   UNL     1       5.269   2.529   8.289  0.00  0.00    +0.324 C 
BRANCH  10  11
ATOM     11  C   UNL     1       5.852   1.897   9.526  0.00  0.00    +0.248 C 
ATOM     12  O   UNL     1       5.192   1.114  10.176  0.00  0.00    -0.272 OA
ATOM     13  N   UNL     1       7.107   2.201   9.911  0.00  0.00    -0.327 N 
ATOM     14  H   UNL     1       7.636   2.827   9.392  0.00  0.00    +0.145 HD
ATOM     15  H   UNL     1       7.483   1.794  10.708  0.00  0.00    +0.145 HD
ENDBRANCH  10  11
ENDBRANCH   9  10
ENDBRANCH   6   9
BRANCH   3  16
ATOM     16  C   UNL     1       1.149   4.026   3.609  0.00  0.00    -0.046 C 
BRANCH  16  17
ATOM     17  N   UNL     1       1.402   3.143   2.455  0.00  0.00    +0.384 N 
ATOM     18  H   UNL     1       1.077   2.195   2.676  0.00  0.00    -0.085 HD
ATOM     19  H   UNL     1       2.410   3.122   2.259  0.00  0.00    -0.085 HD
BRANCH  17  20
ATOM     20  C   UNL     1       0.686   3.639   1.264  0.00  0.00    -0.065 C 
ATOM     21  C   UNL     1       1.402   3.145   0.006  0.00  0.00    -0.024 C 
ATOM     22  C   UNL     1       1.423   1.615  -0.003  0.00  0.00    +0.005 C 
ATOM     23  C   UNL     1      -0.013   1.086   0.008  0.00  0.00    -0.010 C 
ATOM     24  C   UNL     1      -0.753   1.593  -1.232  0.00  0.00    +0.007 C 
ATOM     25  C   UNL     1      -0.773   3.123  -1.223  0.00  0.00    -0.010 C 
ATOM     26  C   UNL     1       0.662   3.652  -1.234  0.00  0.00    +0.005 C 
ATOM     27  C   UNL     1      -1.490   3.616   0.036  0.00  0.00    +0.005 C 
ATOM     28  C   UNL     1      -0.750   3.109   1.275  0.00  0.00    -0.024 C 
ATOM     29  C   UNL     1      -0.729   1.579   1.267  0.00  0.00    +0.005 C 
ENDBRANCH  17  20
ENDBRANCH  16  17
ENDBRANCH   3  16
TORSDOF 7
