REMARK  Name = ZINC48333149
REMARK  8 active torsions:
REMARK  status: ('A' for Active; 'I' for Inactive)
REMARK    1  A    between atoms: C_1  and  C_2
REMARK    2  A    between atoms: C_3  and  C_15
REMARK    3  A    between atoms: N_13  and  C_14
REMARK    4  A    between atoms: C_15  and  C_16
REMARK    5  A    between atoms: C_16  and  C_17
REMARK    6  A    between atoms: N_19  and  C_20
REMARK    7  A    between atoms: C_20  and  C_21
REMARK    8  A    between atoms: C_24  and  N_27
REMARK                            x       y       z     vdW  Elec       q    Type
REMARK                         _______ _______ _______ _____ _____    ______ ____
ROOT
ATOM      1  C   UNL     1      -2.997   0.158  -1.419  0.00  0.00    +0.100 C 
ENDROOT
BRANCH   1   2
ATOM      2  C   UNL     1      -4.319   0.882  -1.409  0.00  0.00    +0.214 C 
ATOM      3  O   UNL     1      -4.801   1.248  -0.358  0.00  0.00    -0.276 OA
ATOM      4  N   UNL     1      -4.964   1.124  -2.567  0.00  0.00    -0.311 N 
ATOM      5  H   UNL     1      -4.578   0.831  -3.407  0.00  0.00    +0.149 HD
BRANCH   4   6
ATOM      6  C   UNL     1      -6.249   1.828  -2.557  0.00  0.00    +0.139 C 
BRANCH   6   7
ATOM      7  C   UNL     1      -6.756   1.969  -3.969  0.00  0.00    -0.030 A 
ATOM      8  C   UNL     1      -6.410   3.078  -4.718  0.00  0.00    +0.007 A 
ATOM      9  C   UNL     1      -6.873   3.210  -6.013  0.00  0.00    +0.028 A 
ATOM     10  C   UNL     1      -7.687   2.228  -6.561  0.00  0.00    +0.065 A 
ATOM     11  C   UNL     1      -8.032   1.115  -5.806  0.00  0.00    +0.028 A 
ATOM     12  C   UNL     1      -7.561   0.986  -4.514  0.00  0.00    +0.007 A 
BRANCH  10  13
ATOM     13  N   UNL     1      -8.159   2.360  -7.875  0.00  0.00    -0.240 N 
ATOM     14  C   UNL     1      -8.959   1.484  -8.524  0.00  0.00    +0.114 A 
ATOM     15  C   UNL     1      -9.185   1.975  -9.765  0.00  0.00    +0.041 A 
ATOM     16  C   UNL     1      -8.502   3.191  -9.878  0.00  0.00    +0.135 A 
ATOM     17  N   UNL     1      -7.891   3.425  -8.744  0.00  0.00    -0.175 NA
ENDBRANCH  10  13
ENDBRANCH   6   7
ENDBRANCH   4   6
ENDBRANCH   1   2
BRANCH   1  18
ATOM     18  C   UNL     1      -2.482   0.015   0.014  0.00  0.00    +0.050 C 
BRANCH  18  21
ATOM     19  C   UNL     1      -0.018   1.503   0.010  0.00  0.00    +0.045 C 
ATOM     20  C   UNL     1       0.002  -0.004   0.002  0.00  0.00    -0.026 A 
ATOM     21  C   UNL     1      -1.161  -0.710   0.004  0.00  0.00    +0.021 A 
ATOM     22  C   UNL     1      -1.129  -2.115  -0.004  0.00  0.00    +0.254 A 
ATOM     23  O   UNL     1      -2.176  -2.741  -0.003  0.00  0.00    -0.268 OA
ATOM     24  N   UNL     1       0.041  -2.781  -0.013  0.00  0.00    -0.307 N 
ATOM     25  H   UNL     1       0.043  -3.751  -0.019  0.00  0.00    +0.170 HD
ATOM     26  C   UNL     1       1.230  -2.100  -0.015  0.00  0.00    +0.143 A 
ATOM     27  C   UNL     1       1.228  -0.703  -0.013  0.00  0.00    +0.088 A 
ATOM     28  C   UNL     1       2.628  -0.286  -0.024  0.00  0.00    +0.298 A 
ATOM     29  O   UNL     1       3.091   0.992  -0.021  0.00  0.00    -0.264 OA
ATOM     30  N   UNL     1       3.354  -1.374  -0.037  0.00  0.00    -0.127 NA
ATOM     31  N   UNL     1       2.519  -2.496  -0.023  0.00  0.00    -0.247 N 
ATOM     32  C   UNL     1       2.976  -3.888  -0.033  0.00  0.00    +0.174 C 
ENDBRANCH  18  21
ENDBRANCH   1  18
TORSDOF 6
