REMARK  Name = ZINC36360553
REMARK  3 active torsions:
REMARK  status: ('A' for Active; 'I' for Inactive)
REMARK    1  A    between atoms: C_1  and  N_2
REMARK    2  A    between atoms: C_10  and  C_11
REMARK    3  A    between atoms: C_11  and  N_13
REMARK                            x       y       z     vdW  Elec       q    Type
REMARK                         _______ _______ _______ _____ _____    ______ ____
ROOT
ATOM      1  C   UNL     1       0.056  -4.591   1.175  0.00  0.00    +0.271 C 
ATOM      2  O   UNL     1       0.046  -4.849  -0.017  0.00  0.00    -0.268 OA
ENDROOT
BRANCH   1   3
ATOM      3  N   UNL     1       0.088  -5.583   2.074  0.00  0.00    -0.143 NA
ATOM      4  C   UNL     1       0.004  -6.846   1.672  0.00  0.00    +0.199 A 
ATOM      5  N   UNL     1      -0.002  -7.262   0.377  0.00  0.00    -0.326 N 
ATOM      6  H   UNL     1       0.054  -6.691  -0.404  0.00  0.00    +0.169 HD
ATOM      7  C   UNL     1      -0.103  -8.650   0.366  0.00  0.00    +0.065 A 
ATOM      8  C   UNL     1      -0.151  -9.587  -0.656  0.00  0.00    +0.028 A 
ATOM      9  C   UNL     1      -0.254 -10.931  -0.353  0.00  0.00    +0.002 A 
ATOM     10  C   UNL     1      -0.309 -11.347   0.967  0.00  0.00    +0.002 A 
ATOM     11  C   UNL     1      -0.262 -10.422   1.991  0.00  0.00    +0.028 A 
ATOM     12  C   UNL     1      -0.159  -9.070   1.697  0.00  0.00    +0.065 A 
ATOM     13  N   UNL     1      -0.086  -7.929   2.490  0.00  0.00    -0.326 N 
ATOM     14  H   UNL     1      -0.098  -7.909   3.460  0.00  0.00    +0.169 HD
ENDBRANCH   1   3
BRANCH   1  24
ATOM     15  C   UNL     1      -0.082   1.462   0.017  0.00  0.00    +0.149 C 
ATOM     16  N   UNL     1      -0.052  -0.003   0.008  0.00  0.00    -0.350 N 
ATOM     17  C   UNL     1      -0.051  -0.781  -1.115  0.00  0.00    +0.086 A 
ATOM     18  C   UNL     1      -0.020  -2.081  -0.771  0.00  0.00    +0.028 A 
ATOM     19  C   UNL     1       0.000  -2.137   0.688  0.00  0.00    +0.012 A 
ATOM     20  C   UNL     1      -0.016  -0.801   1.130  0.00  0.00    +0.050 A 
ATOM     21  C   UNL     1       0.002  -0.532   2.494  0.00  0.00    +0.026 A 
ATOM     22  C   UNL     1       0.039  -1.566   3.406  0.00  0.00    +0.003 A 
ATOM     23  C   UNL     1       0.059  -2.884   2.986  0.00  0.00    +0.014 A 
ATOM     24  C   UNL     1       0.034  -3.185   1.627  0.00  0.00    +0.048 A 
ENDBRANCH   1  24
TORSDOF 2
