REMARK  Name = ZINC63433805
REMARK  4 active torsions:
REMARK  status: ('A' for Active; 'I' for Inactive)
REMARK    1  A    between atoms: C_1  and  C_2
REMARK    2  A    between atoms: C_11  and  C_17
REMARK    3  A    between atoms: N_19  and  C_20
REMARK    4  A    between atoms: C_20  and  C_21
REMARK                            x       y       z     vdW  Elec       q    Type
REMARK                         _______ _______ _______ _____ _____    ______ ____
ROOT
ATOM      1  C   UNL     1      -0.018   1.503   0.010  0.00  0.00    +0.044 C 
ATOM      2  C   UNL     1       0.002  -0.004   0.002  0.00  0.00    -0.050 A 
ATOM      3  C   UNL     1       0.006  -0.686  -1.211  0.00  0.00    +0.005 A 
ATOM      4  C   UNL     1       0.024  -2.048  -1.249  0.00  0.00    +0.024 A 
ATOM      5  C   UNL     1       0.040  -2.785  -0.054  0.00  0.00    +0.042 A 
ATOM      6  N   UNL     1       0.059  -4.124  -0.092  0.00  0.00    -0.281 N 
ATOM      7  C   UNL     1       0.074  -4.891   0.979  0.00  0.00    +0.249 C 
ATOM      8  O   UNL     1       0.090  -6.106   0.855  0.00  0.00    -0.270 OA
ATOM      9  C   UNL     1       0.073  -4.284   2.349  0.00  0.00    +0.049 C 
ATOM     10  C   UNL     1       0.088  -4.932   3.530  0.00  0.00    +0.011 C 
ATOM     11  C   UNL     1       0.083  -4.043   4.754  0.00  0.00    +0.160 C 
ATOM     12  S   UNL     1       0.056  -2.372   3.995  0.00  0.00    -0.107 S 
ATOM     13  C   UNL     1       0.053  -2.814   2.384  0.00  0.00    +0.030 C 
ATOM     14  C   UNL     1       0.037  -2.088   1.181  0.00  0.00    +0.011 A 
ATOM     15  C   UNL     1       0.022  -0.685   1.183  0.00  0.00    +0.014 A 
ATOM     16  H   UNL     1       0.060  -4.555  -0.961  0.00  0.00    +0.155 HD
ENDROOT
BRANCH  11  17
ATOM     17  C   UNL     1       1.331  -4.245   5.573  0.00  0.00    +0.230 C 
ATOM     18  O   UNL     1       2.387  -4.478   5.023  0.00  0.00    -0.274 OA
ATOM     19  N   UNL     1       1.275  -4.167   6.918  0.00  0.00    -0.312 N 
ATOM     20  H   UNL     1       0.431  -3.980   7.357  0.00  0.00    +0.149 HD
BRANCH  19  21
ATOM     21  C   UNL     1       2.489  -4.363   7.714  0.00  0.00    +0.135 C 
BRANCH  21  22
ATOM     22  C   UNL     1       2.151  -4.222   9.200  0.00  0.00    +0.135 C 
ATOM     23  C   UNL     1       3.429  -4.392  10.060  0.00  0.00    +0.035 C 
ATOM     24  C   UNL     1       3.030  -3.607  11.339  0.00  0.00    +0.031 C 
ATOM     25  C   UNL     1       2.155  -2.471  10.767  0.00  0.00    +0.160 C 
ATOM     26  O   UNL     1       1.681  -2.895   9.481  0.00  0.00    -0.375 OA
ENDBRANCH  21  22
ENDBRANCH  19  21
ENDBRANCH  11  17
TORSDOF 3
