REMARK  Name = ZINC39325248
REMARK  6 active torsions:
REMARK  status: ('A' for Active; 'I' for Inactive)
REMARK    1  A    between atoms: C_1  and  O_2
REMARK    2  A    between atoms: O_2  and  C_3
REMARK    3  A    between atoms: C_3  and  C_5
REMARK    4  A    between atoms: C_8  and  C_11
REMARK    5  A    between atoms: C_26  and  N_30
REMARK    6  A    between atoms: C_27  and  C_28
REMARK                            x       y       z     vdW  Elec       q    Type
REMARK                         _______ _______ _______ _____ _____    ______ ____
ROOT
ATOM      1  C   UNL     1       0.827  -6.343  -1.340  0.00  0.00    +0.084 C 
ATOM      2  C   UNL     1       2.291  -6.795  -1.369  0.00  0.00    +0.154 C 
ATOM      3  C   UNL     1       2.258  -8.238  -1.844  0.00  0.00    +0.129 C 
ATOM      4  C   UNL     1       2.787  -9.211  -1.009  0.00  0.00    +0.035 A 
ATOM      5  C   UNL     1       2.809 -10.569  -1.389  0.00  0.00    +0.013 A 
ATOM      6  C   UNL     1       3.343 -11.495  -0.546  0.00  0.00    +0.001 A 
ATOM      7  C   UNL     1       3.868 -11.130   0.690  0.00  0.00    +0.002 A 
ATOM      8  C   UNL     1       3.872  -9.835   1.114  0.00  0.00    +0.024 A 
ATOM      9  C   UNL     1       3.337  -8.826   0.296  0.00  0.00    +0.044 A 
ATOM     10  N   UNL     1       3.333  -7.555   0.717  0.00  0.00    -0.284 N 
ATOM     11  C   UNL     1       2.869  -6.528   0.003  0.00  0.00    +0.229 C 
ATOM     12  O   UNL     1       2.898  -5.393   0.442  0.00  0.00    -0.275 OA
ATOM     13  O   UNL     1       1.711  -8.506  -3.031  0.00  0.00    -0.444 OA
ATOM     14  C   UNL     1       0.578  -7.834  -3.343  0.00  0.00    +0.198 C 
ATOM     15  C   UNL     1       0.128  -6.808  -2.588  0.00  0.00    +0.095 C 
ATOM     16  H   UNL     1       3.698  -7.364   1.595  0.00  0.00    +0.155 HD
ENDROOT
BRANCH   1  20
ATOM     17  C   UNL     1       0.658  -2.076  -1.122  0.00  0.00    +0.059 A 
ATOM     18  C   UNL     1       0.089  -2.853  -0.111  0.00  0.00    +0.015 A 
ATOM     19  C   UNL     1       0.147  -4.229  -0.188  0.00  0.00    +0.005 A 
ATOM     20  C   UNL     1       0.767  -4.840  -1.263  0.00  0.00    -0.038 A 
ATOM     21  C   UNL     1       1.334  -4.076  -2.268  0.00  0.00    +0.005 A 
ATOM     22  C   UNL     1       1.278  -2.699  -2.207  0.00  0.00    +0.015 A 
BRANCH  17  23
ATOM     23  C   UNL     1       0.601  -0.602  -1.046  0.00  0.00    +0.339 C 
ATOM     24  O   UNL     1       1.092   0.071  -1.930  0.00  0.00    -0.245 OA
BRANCH  23  26
ATOM     25  C   UNL     1      -0.017   1.425   0.010  0.00  0.00    +0.280 C 
ATOM     26  O   UNL     1       0.002  -0.004   0.002  0.00  0.00    -0.464 OA
ENDBRANCH  23  26
ENDBRANCH  17  23
ENDBRANCH   1  20
BRANCH  14  27
ATOM     27  N   UNL     1      -0.133  -8.204  -4.457  0.00  0.00    -0.328 N 
ATOM     28  H   UNL     1       0.178  -8.938  -5.009  0.00  0.00    +0.145 HD
ATOM     29  H   UNL     1      -0.947  -7.732  -4.693  0.00  0.00    +0.145 HD
ENDBRANCH  14  27
BRANCH  15  30
ATOM     30  C   UNL     1      -1.069  -6.135  -2.994  0.00  0.00    +0.100 C 
ATOM     31  N   UNL     1      -2.018  -5.601  -3.316  0.00  0.00    -0.191 NA
ENDBRANCH  15  30
TORSDOF 5
