REMARK  Name = ZINC12371197
REMARK  13 active torsions:
REMARK  status: ('A' for Active; 'I' for Inactive)
REMARK    1  A    between atoms: C_1  and  O_2
REMARK    2  A    between atoms: O_2  and  C_3
REMARK    3  A    between atoms: C_6  and  C_11
REMARK    4  A    between atoms: C_8  and  O_9
REMARK    5  A    between atoms: O_9  and  C_10
REMARK    6  A    between atoms: N_13  and  C_14
REMARK    7  A    between atoms: C_14  and  C_15
REMARK    8  A    between atoms: N_17  and  N_18
REMARK    9  A    between atoms: C_19  and  C_20
REMARK   10  A    between atoms: C_23  and  O_26
REMARK   11  A    between atoms: O_26  and  C_27
REMARK   12  A    between atoms: C_27  and  C_29
REMARK   13  A    between atoms: C_32  and  N_35
REMARK                            x       y       z     vdW  Elec       q    Type
REMARK                         _______ _______ _______ _____ _____    ______ ____
ROOT
ATOM      1  N   UNL     1       4.785   0.385   0.013  0.00  0.00    -0.188 NA
ATOM      2  C   UNL     1       6.004   0.819  -0.080  0.00  0.00    +0.138 C 
ENDROOT
BRANCH   2   3
ATOM      3  C   UNL     1       7.127  -0.136  -0.088  0.00  0.00    -0.005 A 
ATOM      4  C   UNL     1       6.881  -1.508   0.009  0.00  0.00    +0.013 A 
ATOM      5  C   UNL     1       7.934  -2.398  -0.004  0.00  0.00    +0.047 A 
ATOM      6  C   UNL     1       9.239  -1.931  -0.102  0.00  0.00    +0.132 A 
ATOM      7  C   UNL     1       9.488  -0.568  -0.194  0.00  0.00    +0.047 A 
ATOM      8  C   UNL     1       8.442   0.328  -0.187  0.00  0.00    +0.013 A 
BRANCH   6   9
ATOM      9  O   UNL     1      10.274  -2.811  -0.109  0.00  0.00    -0.422 OA
BRANCH   9  10
ATOM     10  C   UNL     1      11.078  -2.818   0.972  0.00  0.00    +0.344 C 
ATOM     11  O   UNL     1      10.802  -2.135   1.938  0.00  0.00    -0.245 OA
BRANCH  10  12
ATOM     12  C   UNL     1      12.295  -3.655   0.981  0.00  0.00    +0.060 A 
ATOM     13  C   UNL     1      12.612  -4.445  -0.126  0.00  0.00    +0.017 A 
ATOM     14  C   UNL     1      13.753  -5.220  -0.112  0.00  0.00    +0.033 A 
ATOM     15  C   UNL     1      14.576  -5.224   1.000  0.00  0.00    +0.126 A 
ATOM     16  C   UNL     1      14.266  -4.448   2.102  0.00  0.00    +0.033 A 
ATOM     17  C   UNL     1      13.131  -3.664   2.100  0.00  0.00    +0.017 A 
BRANCH  15  18
ATOM     18  N   UNL     1      15.796  -6.064   1.010  0.00  0.00    +0.056 N 
ATOM     19  O   UNL     1      16.523  -6.069   1.987  0.00  0.00    -0.126 OA
ATOM     20  O   UNL     1      16.072  -6.748   0.041  0.00  0.00    -0.126 OA
ENDBRANCH  15  18
ENDBRANCH  10  12
ENDBRANCH   9  10
ENDBRANCH   6   9
ENDBRANCH   2   3
BRANCH   1  23
ATOM     21  C   UNL     1       2.450   0.843   0.116  0.00  0.00    +0.249 C 
ATOM     22  O   UNL     1       2.234  -0.349   0.196  0.00  0.00    -0.272 OA
ATOM     23  N   UNL     1       3.717   1.293   0.021  0.00  0.00    -0.206 N 
ATOM     24  H   UNL     1       3.890   2.245  -0.043  0.00  0.00    +0.177 HD
BRANCH  21  25
ATOM     25  C   UNL     1       1.302   1.819   0.125  0.00  0.00    +0.202 C 
BRANCH  25  28
ATOM     26  C   UNL     1      -1.130   1.757   0.258  0.00  0.00    +0.245 C 
ATOM     27  O   UNL     1      -1.135   2.970   0.189  0.00  0.00    -0.270 OA
ATOM     28  N   UNL     1       0.039   1.086   0.236  0.00  0.00    -0.303 N 
ATOM     29  H   UNL     1       0.043   0.117   0.291  0.00  0.00    +0.150 HD
BRANCH  26  33
ATOM     30  C   UNL     1      -4.793  -0.376   0.563  0.00  0.00    +0.162 A 
ATOM     31  C   UNL     1      -3.588  -1.065   0.540  0.00  0.00    +0.050 A 
ATOM     32  C   UNL     1      -2.399  -0.377   0.436  0.00  0.00    +0.017 A 
ATOM     33  C   UNL     1      -2.403   1.018   0.364  0.00  0.00    +0.040 A 
ATOM     34  C   UNL     1      -3.616   1.712   0.386  0.00  0.00    +0.062 A 
ATOM     35  C   UNL     1      -4.805   1.016   0.485  0.00  0.00    +0.162 A 
BRANCH  30  37
ATOM     36  C   UNL     1      -5.878  -2.483   0.736  0.00  0.00    +0.277 C 
ATOM     37  O   UNL     1      -5.963  -1.059   0.660  0.00  0.00    -0.491 OA
ENDBRANCH  30  37
BRANCH  35  38
ATOM     38  O   UNL     1      -5.987   1.688   0.507  0.00  0.00    -0.491 OA
ATOM     39  C   UNL     1      -5.924   3.113   0.425  0.00  0.00    +0.277 C 
ENDBRANCH  35  38
ENDBRANCH  26  33
ENDBRANCH  25  28
ENDBRANCH  21  25
ENDBRANCH   1  23
TORSDOF 11
