REMARK  Name = ZINC39533386
REMARK  11 active torsions:
REMARK  status: ('A' for Active; 'I' for Inactive)
REMARK    1  A    between atoms: C_1  and  C_2
REMARK    2  A    between atoms: C_2  and  C_3
REMARK    3  A    between atoms: C_2  and  C_4
REMARK    4  A    between atoms: C_4  and  C_5
REMARK    5  A    between atoms: C_8  and  C_11
REMARK    6  A    between atoms: C_11  and  C_13
REMARK    7  A    between atoms: C_11  and  N_16
REMARK    8  A    between atoms: C_13  and  N_14
REMARK    9  A    between atoms: N_14  and  O_15
REMARK   10  A    between atoms: C_20  and  S_23
REMARK   11  A    between atoms: S_23  and  C_24
REMARK                            x       y       z     vdW  Elec       q    Type
REMARK                         _______ _______ _______ _____ _____    ______ ____
ROOT
ATOM      1  C   UNL     1      -1.388  -6.260  -0.497  0.00  0.00    -0.021 C 
ENDROOT
BRANCH   1   2
ATOM      2  N   UNL     1      -2.194  -6.718   0.643  0.00  0.00    +0.387 N 
ATOM      3  C   UNL     1      -2.114  -8.181   0.742  0.00  0.00    -0.062 C 
ATOM      4  C   UNL     1      -2.938  -8.657   1.940  0.00  0.00    +0.063 C 
ATOM      5  N   UNL     1      -4.335  -8.236   1.768  0.00  0.00    -0.308 NA
ATOM      6  C   UNL     1      -4.429  -6.775   1.643  0.00  0.00    +0.095 C 
ATOM      7  C   UNL     1      -3.592  -6.314   0.447  0.00  0.00    -0.048 C 
ATOM      8  H   UNL     1      -4.756  -8.695   0.974  0.00  0.00    +0.123 HD
ATOM      9  H   UNL     1      -1.840  -6.304   1.492  0.00  0.00    -0.081 HD
BRANCH   6  10
ATOM     10  S   UNL     1      -6.161  -6.298   1.391  0.00  0.00    -0.147 S 
ATOM     11  C   UNL     1      -7.096  -7.783   1.851  0.00  0.00    +0.086 C 
ENDBRANCH   6  10
ENDBRANCH   1   2
BRANCH   1  15
ATOM     12  C   UNL     1      -1.708  -2.015  -0.851  0.00  0.00    -0.047 A 
ATOM     13  C   UNL     1      -1.706  -2.805  -1.985  0.00  0.00    +0.004 A 
ATOM     14  C   UNL     1      -1.602  -4.178  -1.871  0.00  0.00    +0.002 A 
ATOM     15  C   UNL     1      -1.500  -4.762  -0.622  0.00  0.00    -0.060 A 
ATOM     16  C   UNL     1      -1.502  -3.972   0.512  0.00  0.00    +0.002 A 
ATOM     17  C   UNL     1      -1.601  -2.598   0.398  0.00  0.00    +0.004 A 
BRANCH  12  18
ATOM     18  C   UNL     1      -1.822  -0.517  -0.976  0.00  0.00    +0.038 C 
BRANCH  18  20
ATOM     19  C   UNL     1      -0.542   1.597  -1.345  0.00  0.00    +0.007 C 
ATOM     20  C   UNL     1      -0.423   0.092  -1.093  0.00  0.00    -0.013 C 
ATOM     21  C   UNL     1       0.349  -0.149   0.205  0.00  0.00    +0.007 C 
ENDBRANCH  18  20
ENDBRANCH  12  18
ENDBRANCH   1  15
BRANCH   1  22
ATOM     22  C   UNL     1       0.076  -6.645  -0.274  0.00  0.00    +0.100 C 
BRANCH  22  23
ATOM     23  N   UNL     1       0.869  -6.252  -1.446  0.00  0.00    -0.205 NA
ATOM     24  H   UNL     1       0.457  -6.605  -2.297  0.00  0.00    +0.153 HD
BRANCH  23  25
ATOM     25  O   UNL     1       2.257  -6.696  -1.313  0.00  0.00    -0.315 OA
ATOM     26  H   UNL     1       2.819  -6.459  -2.063  0.00  0.00    +0.236 HD
ENDBRANCH  23  25
ENDBRANCH  22  23
ENDBRANCH   1  22
TORSDOF 8
