REMARK  Name = ZINC64633304
REMARK  6 active torsions:
REMARK  status: ('A' for Active; 'I' for Inactive)
REMARK    1  A    between atoms: C_1  and  C_2
REMARK    2  A    between atoms: C_2  and  C_3
REMARK    3  A    between atoms: C_2  and  N_14
REMARK    4  A    between atoms: N_5  and  C_6
REMARK    5  A    between atoms: C_7  and  C_11
REMARK    6  A    between atoms: C_22  and  C_27
REMARK                            x       y       z     vdW  Elec       q    Type
REMARK                         _______ _______ _______ _____ _____    ______ ____
ROOT
ATOM      1  C   UNL     1       0.917  -0.879   0.905  0.00  0.00    -0.004 C 
ATOM      2  C   UNL     1       0.015  -0.096  -0.052  0.00  0.00    +0.016 C 
ENDROOT
BRANCH   2   3
ATOM      3  N   UNL     1       0.594  -0.123  -1.402  0.00  0.00    +0.388 N 
ATOM      4  C   UNL     1       0.694  -1.516  -1.833  0.00  0.00    -0.076 C 
ATOM      5  C   UNL     1       1.857  -1.661  -2.788  0.00  0.00    +0.000 C 
ATOM      6  C   UNL     1       1.353  -1.514  -4.235  0.00  0.00    +0.104 C 
ATOM      7  N   UNL     1       0.335  -0.449  -4.337  0.00  0.00    -0.316 N 
ATOM      8  C   UNL     1       0.461   0.813  -3.639  0.00  0.00    +0.088 C 
ATOM      9  C   UNL     1      -0.187   0.704  -2.238  0.00  0.00    -0.059 C 
ATOM     10  C   UNL     1      -0.780  -0.666  -5.129  0.00  0.00    +0.139 A 
ATOM     11  C   UNL     1      -0.781  -0.236  -6.467  0.00  0.00    +0.092 A 
ATOM     12  C   UNL     1      -1.919  -0.466  -7.248  0.00  0.00    +0.024 A 
ATOM     13  C   UNL     1      -2.997  -1.110  -6.665  0.00  0.00    +0.021 A 
ATOM     14  C   UNL     1      -2.921  -1.503  -5.341  0.00  0.00    +0.113 A 
ATOM     15  N   UNL     1      -1.837  -1.281  -4.623  0.00  0.00    -0.239 NA
ATOM     16  H   UNL     1       1.526   0.260  -1.355  0.00  0.00    -0.081 HD
BRANCH  11  17
ATOM     17  C   UNL     1       0.361   0.426  -7.021  0.00  0.00    +0.103 C 
ATOM     18  N   UNL     1       1.268   0.952  -7.461  0.00  0.00    -0.191 NA
ENDBRANCH  11  17
ENDBRANCH   2   3
BRANCH   2  19
ATOM     19  C   UNL     1      -1.354  -0.725  -0.080  0.00  0.00    +0.204 C 
ATOM     20  O   UNL     1      -1.661  -1.470  -0.986  0.00  0.00    -0.277 OA
ATOM     21  N   UNL     1      -2.238  -0.458   0.903  0.00  0.00    -0.281 N 
ATOM     22  H   UNL     1      -1.992   0.138   1.627  0.00  0.00    +0.155 HD
BRANCH  21  23
ATOM     23  C   UNL     1      -3.498  -1.036   0.877  0.00  0.00    +0.084 A 
ATOM     24  C   UNL     1      -4.529  -0.874   1.791  0.00  0.00    +0.065 A 
ATOM     25  C   UNL     1      -5.750  -1.600   1.523  0.00  0.00    +0.022 A 
ATOM     26  C   UNL     1      -5.750  -2.356   0.410  0.00  0.00    +0.048 A 
ATOM     27  S   UNL     1      -4.128  -2.086  -0.270  0.00  0.00    -0.081 S 
BRANCH  24  28
ATOM     28  C   UNL     1      -4.387  -0.012   2.968  0.00  0.00    +0.244 C 
ATOM     29  O   UNL     1      -3.345   0.585   3.164  0.00  0.00    -0.270 OA
ATOM     30  N   UNL     1      -5.412   0.120   3.834  0.00  0.00    -0.325 N 
ATOM     31  H   UNL     1      -6.243  -0.355   3.678  0.00  0.00    +0.145 HD
ATOM     32  H   UNL     1      -5.318   0.691   4.613  0.00  0.00    +0.145 HD
ENDBRANCH  24  28
ENDBRANCH  21  23
ENDBRANCH   2  19
TORSDOF 5
