REMARK  Name = ZINC49093143
REMARK  5 active torsions:
REMARK  status: ('A' for Active; 'I' for Inactive)
REMARK    1  A    between atoms: C_1  and  C_2
REMARK    2  A    between atoms: C_2  and  C_4
REMARK    3  A    between atoms: C_2  and  N_10
REMARK    4  A    between atoms: C_11  and  C_13
REMARK    5  A    between atoms: C_13  and  N_14
REMARK                            x       y       z     vdW  Elec       q    Type
REMARK                         _______ _______ _______ _____ _____    ______ ____
ROOT
ATOM      1  N   UNL     1       0.711  -0.489   1.189  0.00  0.00    -0.312 N 
ATOM      2  C   UNL     1       0.051  -0.633   2.355  0.00  0.00    +0.197 C 
ATOM      3  O   UNL     1      -1.129  -0.361   2.423  0.00  0.00    -0.278 OA
ATOM      4  H   UNL     1       1.654  -0.707   1.135  0.00  0.00    +0.149 HD
ENDROOT
BRANCH   1   6
ATOM      5  C   UNL     1      -0.019   1.526   0.010  0.00  0.00    +0.030 C 
ATOM      6  C   UNL     1       0.002  -0.004   0.002  0.00  0.00    +0.098 C 
BRANCH   6   7
ATOM      7  C   UNL     1       0.718  -0.497  -1.257  0.00  0.00    +0.138 C 
ATOM      8  C   UNL     1      -0.066  -0.071  -2.523  0.00  0.00    +0.035 C 
ATOM      9  C   UNL     1       1.068  -0.066  -3.584  0.00  0.00    +0.031 C 
ATOM     10  C   UNL     1       2.287   0.399  -2.759  0.00  0.00    +0.160 C 
ATOM     11  O   UNL     1       2.003   0.133  -1.379  0.00  0.00    -0.375 OA
ENDBRANCH   6   7
ENDBRANCH   1   6
BRANCH   2  12
ATOM     12  C   UNL     1       0.780  -1.133   3.576  0.00  0.00    +0.019 C 
BRANCH  12  13
ATOM     13  N   UNL     1      -0.152  -1.201   4.710  0.00  0.00    +0.388 N 
ATOM     14  C   UNL     1      -0.628   0.148   5.022  0.00  0.00    -0.055 C 
ATOM     15  C   UNL     1      -1.848   0.070   5.946  0.00  0.00    +0.147 C 
ATOM     16  S   UNL     1      -1.337  -0.702   7.512  0.00  0.00    -0.034 S 
ATOM     17  O   UNL     1      -2.502  -1.087   8.229  0.00  0.00    -0.174 OA
ATOM     18  O   UNL     1      -0.382   0.141   8.142  0.00  0.00    -0.174 OA
ATOM     19  C   UNL     1      -0.494  -2.203   6.923  0.00  0.00    +0.147 C 
ATOM     20  C   UNL     1       0.531  -1.798   5.859  0.00  0.00    -0.055 C 
ATOM     21  H   UNL     1      -0.940  -1.779   4.456  0.00  0.00    -0.081 HD
ENDBRANCH  12  13
ENDBRANCH   2  12
TORSDOF 4
