REMARK  Name = ZINC47678336
REMARK  5 active torsions:
REMARK  status: ('A' for Active; 'I' for Inactive)
REMARK    1  A    between atoms: C_1  and  C_2
REMARK    2  A    between atoms: C_7  and  N_12
REMARK    3  A    between atoms: C_9  and  C_11
REMARK    4  A    between atoms: N_15  and  C_16
REMARK    5  A    between atoms: N_19  and  C_22
REMARK                            x       y       z     vdW  Elec       q    Type
REMARK                         _______ _______ _______ _____ _____    ______ ____
ROOT
ATOM      1  N   UNL     1       1.471  -2.526   2.420  0.00  0.00    -0.296 N 
ATOM      2  C   UNL     1       1.207  -3.754   2.907  0.00  0.00    +0.300 C 
ATOM      3  O   UNL     1       0.380  -4.460   2.362  0.00  0.00    -0.253 OA
ATOM      4  N   UNL     1       1.859  -4.201   3.999  0.00  0.00    -0.297 N 
ATOM      5  H   UNL     1       2.131  -1.963   2.855  0.00  0.00    +0.151 HD
ATOM      6  H   UNL     1       2.518  -3.638   4.434  0.00  0.00    +0.151 HD
ENDROOT
BRANCH   1  12
ATOM      7  C   UNL     1      -0.019   1.526   0.010  0.00  0.00    +0.008 C 
ATOM      8  C   UNL     1       0.002  -0.004   0.002  0.00  0.00    -0.009 C 
ATOM      9  C   UNL     1       0.718  -0.497  -1.257  0.00  0.00    +0.003 C 
ATOM     10  C   UNL     1       0.739  -2.027  -1.265  0.00  0.00    +0.002 C 
ATOM     11  C   UNL     1       1.479  -2.534  -0.026  0.00  0.00    +0.022 C 
ATOM     12  C   UNL     1       0.763  -2.041   1.233  0.00  0.00    +0.078 C 
ATOM     13  C   UNL     1       0.742  -0.511   1.242  0.00  0.00    +0.009 C 
ATOM     14  C   UNL     1       0.026  -0.018   2.500  0.00  0.00    +0.009 C 
ENDBRANCH   1  12
BRANCH   4  15
ATOM     15  C   UNL     1       1.571  -5.536   4.529  0.00  0.00    +0.071 C 
ATOM     16  C   UNL     1       0.365  -5.465   5.471  0.00  0.00    +0.004 C 
ATOM     17  C   UNL     1       0.120  -6.846   6.082  0.00  0.00    -0.077 C 
ATOM     18  N   UNL     1       1.306  -7.270   6.835  0.00  0.00    +0.382 N 
ATOM     19  C   UNL     1       2.450  -7.410   5.926  0.00  0.00    -0.077 C 
ATOM     20  C   UNL     1       2.785  -6.050   5.309  0.00  0.00    +0.004 C 
ATOM     21  H   UNL     1       1.520  -6.580   7.539  0.00  0.00    -0.081 HD
BRANCH  18  22
ATOM     22  C   UNL     1       1.037  -8.560   7.484  0.00  0.00    -0.069 C 
ATOM     23  C   UNL     1       0.930  -8.575   9.010  0.00  0.00    -0.017 C 
ATOM     24  C   UNL     1       2.159  -9.176   8.323  0.00  0.00    -0.017 C 
ENDBRANCH  18  22
ENDBRANCH   4  15
TORSDOF 3
