REMARK  Name = ZINC13300350
REMARK  6 active torsions:
REMARK  status: ('A' for Active; 'I' for Inactive)
REMARK    1  A    between atoms: C_3  and  N_16
REMARK    2  A    between atoms: C_5  and  S_7
REMARK    3  A    between atoms: S_7  and  N_10
REMARK    4  A    between atoms: N_16  and  S_17
REMARK    5  A    between atoms: S_17  and  C_20
REMARK    6  A    between atoms: C_22  and  C_25
REMARK                            x       y       z     vdW  Elec       q    Type
REMARK                         _______ _______ _______ _____ _____    ______ ____
ROOT
ATOM      1  C   UNL     1      -0.017   1.378   0.010  0.00  0.00    +0.004 A 
ATOM      2  C   UNL     1       1.169   2.087   0.002  0.00  0.00    +0.024 A 
ATOM      3  C   UNL     1       2.381   1.409  -0.013  0.00  0.00    +0.050 A 
ATOM      4  C   UNL     1       2.396   0.020  -0.021  0.00  0.00    +0.053 A 
ATOM      5  C   UNL     1       1.207  -0.682  -0.013  0.00  0.00    +0.114 A 
ATOM      6  C   UNL     1       0.002  -0.004   0.002  0.00  0.00    +0.029 A 
ENDROOT
BRANCH   5   7
ATOM      7  S   UNL     1       1.225  -2.444  -0.023  0.00  0.00    +0.100 S 
ATOM      8  O   UNL     1      -0.021  -2.860  -0.565  0.00  0.00    -0.146 OA
ATOM      9  O   UNL     1       2.469  -2.834  -0.589  0.00  0.00    -0.146 OA
BRANCH   7  10
ATOM     10  N   UNL     1       1.246  -2.943   1.556  0.00  0.00    -0.118 NA
ATOM     11  C   UNL     1       1.262  -4.205   1.835  0.00  0.00    +0.117 C 
ATOM     12  N   UNL     1       1.269  -5.219   0.913  0.00  0.00    -0.331 N 
ATOM     13  C   UNL     1       1.770  -6.448   1.549  0.00  0.00    +0.103 C 
ATOM     14  C   UNL     1       1.343  -6.320   3.028  0.00  0.00    +0.026 C 
ATOM     15  C   UNL     1       1.281  -4.791   3.230  0.00  0.00    +0.074 C 
ATOM     16  H   UNL     1       0.989  -5.139  -0.012  0.00  0.00    +0.147 HD
ENDBRANCH   7  10
ENDBRANCH   5   7
BRANCH   3  17
ATOM     17  N   UNL     1       3.582   2.122  -0.021  0.00  0.00    -0.216 N 
ATOM     18  H   UNL     1       4.296   1.862  -0.624  0.00  0.00    +0.174 HD
BRANCH  17  19
ATOM     19  S   UNL     1       3.786   3.412   0.997  0.00  0.00    +0.079 S 
ATOM     20  O   UNL     1       5.101   3.902   0.774  0.00  0.00    -0.149 OA
ATOM     21  O   UNL     1       2.633   4.229   0.853  0.00  0.00    -0.149 OA
BRANCH  19  22
ATOM     22  C   UNL     1       3.756   2.785   2.644  0.00  0.00    +0.146 A 
ATOM     23  C   UNL     1       4.788   2.353   3.394  0.00  0.00    +0.051 A 
ATOM     24  C   UNL     1       4.450   1.893   4.721  0.00  0.00    +0.072 A 
ATOM     25  C   UNL     1       3.118   1.943   5.076  0.00  0.00    +0.062 A 
ATOM     26  S   UNL     1       2.356   2.575   3.722  0.00  0.00    -0.076 S 
BRANCH  24  27
ATOM     27  C   UNL     1       5.475   1.395   5.646  0.00  0.00    +0.387 C 
ATOM     28  O   UNL     1       6.648   1.363   5.300  0.00  0.00    -0.241 OA
ATOM     29  O   UNL     1       5.156   1.012   6.764  0.00  0.00    -0.241 OA
ENDBRANCH  24  27
ENDBRANCH  19  22
ENDBRANCH  17  19
ENDBRANCH   3  17
TORSDOF 6
