REMARK  Name = ZINC35557375
REMARK  8 active torsions:
REMARK  status: ('A' for Active; 'I' for Inactive)
REMARK    1  A    between atoms: C_1  and  C_2
REMARK    2  A    between atoms: C_2  and  C_3
REMARK    3  A    between atoms: C_3  and  C_5
REMARK    4  A    between atoms: C_3  and  C_6
REMARK    5  A    between atoms: C_6  and  C_8
REMARK    6  A    between atoms: C_6  and  N_20
REMARK    7  A    between atoms: N_20  and  C_21
REMARK    8  A    between atoms: C_21  and  C_22
REMARK                            x       y       z     vdW  Elec       q    Type
REMARK                         _______ _______ _______ _____ _____    ______ ____
ROOT
ATOM      1  C   UNL     1       0.002   1.223  -3.128  0.00  0.00    -0.039 A 
ATOM      2  C   UNL     1       1.024   1.897  -3.772  0.00  0.00    +0.052 A 
ATOM      3  C   UNL     1       0.921   3.262  -3.982  0.00  0.00    +0.162 A 
ATOM      4  C   UNL     1      -0.204   3.949  -3.549  0.00  0.00    +0.163 A 
ATOM      5  C   UNL     1      -1.226   3.273  -2.906  0.00  0.00    +0.069 A 
ATOM      6  C   UNL     1      -1.122   1.907  -2.702  0.00  0.00    +0.046 A 
ATOM      7 CL   UNL     1      -2.404   1.052  -1.902  0.00  0.00    -0.083 Cl
ATOM      8  O   UNL     1      -0.296   5.294  -3.763  0.00  0.00    -0.488 OA
ATOM      9  C   UNL     1       0.616   6.108  -3.023  0.00  0.00    +0.232 C 
ATOM     10  C   UNL     1       1.957   6.200  -3.734  0.00  0.00    +0.082 C 
ATOM     11  C   UNL     1       2.664   4.856  -3.812  0.00  0.00    +0.232 C 
ATOM     12  O   UNL     1       1.923   3.938  -4.617  0.00  0.00    -0.488 OA
ENDROOT
BRANCH   1  13
ATOM     13  C   UNL     1       0.110  -0.262  -2.897  0.00  0.00    -0.036 C 
BRANCH  13  14
ATOM     14  N   UNL     1       0.928  -0.864  -3.959  0.00  0.00    +0.384 N 
ATOM     15  H   UNL     1       0.552  -0.609  -4.859  0.00  0.00    -0.085 HD
ATOM     16  H   UNL     1       1.877  -0.530  -3.883  0.00  0.00    -0.085 HD
BRANCH  14  17
ATOM     17  C   UNL     1       0.912  -2.327  -3.819  0.00  0.00    -0.085 C 
ATOM     18  C   UNL     1       1.808  -2.951  -4.891  0.00  0.00    -0.017 C 
ENDBRANCH  14  17
ENDBRANCH  13  14
BRANCH  13  19
ATOM     19  C   UNL     1       0.765  -0.521  -1.539  0.00  0.00    -0.024 C 
ATOM     20  C   UNL     1      -0.320  -0.736  -0.482  0.00  0.00    +0.006 C 
BRANCH  19  22
ATOM     21  C   UNL     1       2.934   0.653  -1.941  0.00  0.00    +0.004 C 
ATOM     22  C   UNL     1       1.625   0.684  -1.150  0.00  0.00    -0.002 C 
ENDBRANCH  19  22
ENDBRANCH  13  19
ENDBRANCH   1  13
TORSDOF 5
