REMARK  Name = ZINC43258747
REMARK  6 active torsions:
REMARK  status: ('A' for Active; 'I' for Inactive)
REMARK    1  A    between atoms: C_1  and  C_2
REMARK    2  A    between atoms: C_2  and  C_3
REMARK    3  A    between atoms: C_3  and  C_5
REMARK    4  A    between atoms: C_3  and  N_20
REMARK    5  A    between atoms: C_5  and  C_7
REMARK    6  A    between atoms: C_5  and  N_13
REMARK                            x       y       z     vdW  Elec       q    Type
REMARK                         _______ _______ _______ _____ _____    ______ ____
ROOT
ATOM      1  C   UNL     1      -1.299  -2.055  -0.074  0.00  0.00    +0.080 C 
ENDROOT
BRANCH   1   2
ATOM      2  N   UNL     1      -0.542  -2.412  -1.282  0.00  0.00    -0.287 NA
ATOM      3  C   UNL     1      -0.553  -3.868  -1.500  0.00  0.00    +0.104 C 
ATOM      4  C   UNL     1      -0.030  -4.157  -2.908  0.00  0.00    +0.119 C 
ATOM      5  N   UNL     1       1.232  -3.456  -3.127  0.00  0.00    -0.313 N 
ATOM      6  C   UNL     1       1.634  -2.429  -2.371  0.00  0.00    +0.227 C 
ATOM      7  O   UNL     1       2.683  -1.884  -2.642  0.00  0.00    -0.274 OA
ATOM      8  C   UNL     1       0.840  -1.922  -1.201  0.00  0.00    +0.181 C 
ATOM      9  H   UNL     1       1.805  -3.749  -3.853  0.00  0.00    +0.149 HD
ENDBRANCH   1   2
BRANCH   1  10
ATOM     10  C   UNL     1      -2.722  -2.530  -0.214  0.00  0.00    +0.006 A 
ATOM     11  C   UNL     1      -3.532  -3.088   0.719  0.00  0.00    +0.014 A 
ATOM     12  C   UNL     1      -4.817  -3.451   0.361  0.00  0.00    +0.023 A 
ATOM     13  C   UNL     1      -5.229  -3.238  -0.914  0.00  0.00    +0.055 A 
ATOM     14  S   UNL     1      -3.782  -2.496  -1.651  0.00  0.00    -0.085 S 
ATOM     15 BR   UNL     1      -6.905  -3.620  -1.703  0.00  0.00    -0.043 Br
ENDBRANCH   1  10
BRANCH   1  16
ATOM     16  C   UNL     1      -1.284  -0.536   0.107  0.00  0.00    -0.053 C 
BRANCH  16  17
ATOM     17  N   UNL     1      -1.998   0.098  -1.009  0.00  0.00    +0.381 N 
ATOM     18  H   UNL     1      -1.988   1.099  -0.889  0.00  0.00    -0.090 HD
ATOM     19  H   UNL     1      -1.545  -0.142  -1.878  0.00  0.00    -0.090 HD
ATOM     20  H   UNL     1      -2.953  -0.230  -1.026  0.00  0.00    -0.090 HD
ENDBRANCH  16  17
BRANCH  16  22
ATOM     21  C   UNL     1      -1.833   1.330   1.675  0.00  0.00    +0.002 C 
ATOM     22  C   UNL     1      -1.971  -0.173   1.425  0.00  0.00    -0.018 C 
ENDBRANCH  16  22
ENDBRANCH   1  16
TORSDOF 5
