REMARK  Name = ZINC39370736
REMARK  4 active torsions:
REMARK  status: ('A' for Active; 'I' for Inactive)
REMARK    1  A    between atoms: C_1  and  C_2
REMARK    2  A    between atoms: C_5  and  C_9
REMARK    3  A    between atoms: C_10  and  C_11
REMARK    4  A    between atoms: C_10  and  C_13
REMARK                            x       y       z     vdW  Elec       q    Type
REMARK                         _______ _______ _______ _____ _____    ______ ____
ROOT
ATOM      1  C   UNL     1      -0.196  -4.295   0.005  0.00  0.00    +0.026 C 
ATOM      2  C   UNL     1       0.177  -4.926   1.136  0.00  0.00    +0.072 C 
ENDROOT
BRANCH   2   3
ATOM      3  C   UNL     1       0.174  -4.185   2.448  0.00  0.00    +0.216 C 
ATOM      4  N   UNL     1       1.450  -4.390   3.146  0.00  0.00    -0.359 N 
ATOM      5  C   UNL     1       1.185  -4.970   4.281  0.00  0.00    +0.060 A 
ATOM      6  C   UNL     1       2.032  -5.421   5.394  0.00  0.00    +0.027 A 
ATOM      7  C   UNL     1       1.464  -6.004   6.468  0.00  0.00    +0.002 A 
ATOM      8  C   UNL     1       0.076  -6.203   6.577  0.00  0.00    +0.002 A 
ATOM      9  C   UNL     1      -0.790  -5.827   5.615  0.00  0.00    +0.027 A 
ATOM     10  C   UNL     1      -0.284  -5.180   4.396  0.00  0.00    +0.060 A 
ATOM     11  N   UNL     1      -0.871  -4.723   3.328  0.00  0.00    -0.359 N 
ATOM     12  H   UNL     1       2.329  -4.139   2.821  0.00  0.00    +0.162 HD
ATOM     13  H   UNL     1      -1.823  -4.735   3.147  0.00  0.00    +0.162 HD
ENDBRANCH   2   3
BRANCH   1  18
ATOM     14  C   UNL     1      -2.416   1.002   0.267  0.00  0.00    +0.045 C 
ATOM     15  C   UNL     1      -1.834  -0.386   0.198  0.00  0.00    -0.036 A 
ATOM     16  C   UNL     1      -2.193  -1.331   1.143  0.00  0.00    +0.005 A 
ATOM     17  C   UNL     1      -1.665  -2.603   1.087  0.00  0.00    +0.008 A 
ATOM     18  C   UNL     1      -0.765  -2.939   0.071  0.00  0.00    -0.023 A 
ATOM     19  C   UNL     1      -0.406  -1.980  -0.880  0.00  0.00    +0.023 A 
ATOM     20  C   UNL     1      -0.947  -0.712  -0.814  0.00  0.00    +0.021 A 
ATOM     21 BR   UNL     1      -0.470   0.586  -2.104  0.00  0.00    -0.050 Br
ENDBRANCH   1  18
BRANCH   2  22
ATOM     22  C   UNL     1       0.578  -6.300   1.091  0.00  0.00    +0.099 C 
ATOM     23  N   UNL     1       0.895  -7.390   1.055  0.00  0.00    -0.191 NA
ENDBRANCH   2  22
TORSDOF 3
