REMARK  Name = ZINC65385270
REMARK  9 active torsions:
REMARK  status: ('A' for Active; 'I' for Inactive)
REMARK    1  A    between atoms: C_1  and  C_2
REMARK    2  A    between atoms: C_2  and  C_3
REMARK    3  A    between atoms: C_2  and  C_4
REMARK    4  A    between atoms: C_2  and  C_5
REMARK    5  A    between atoms: C_8  and  C_10
REMARK    6  A    between atoms: C_10  and  N_11
REMARK    7  A    between atoms: C_20  and  C_22
REMARK    8  A    between atoms: C_22  and  C_23
REMARK    9  A    between atoms: C_23  and  N_24
REMARK                            x       y       z     vdW  Elec       q    Type
REMARK                         _______ _______ _______ _____ _____    ______ ____
ROOT
ATOM      1  N   UNL     1      -0.237  -0.946  -5.540  0.00  0.00    -0.322 N 
ATOM      2  C   UNL     1      -0.794  -1.253  -6.763  0.00  0.00    +0.130 A 
ATOM      3  C   UNL     1      -1.083  -0.237  -7.707  0.00  0.00    +0.040 A 
ATOM      4  C   UNL     1      -0.823   1.113  -7.450  0.00  0.00    +0.013 A 
ATOM      5  C   UNL     1      -1.123   2.047  -8.397  0.00  0.00    +0.001 A 
ATOM      6  C   UNL     1      -1.685   1.675  -9.615  0.00  0.00    +0.002 A 
ATOM      7  C   UNL     1      -1.951   0.368  -9.896  0.00  0.00    +0.028 A 
ATOM      8  C   UNL     1      -1.655  -0.618  -8.945  0.00  0.00    +0.076 A 
ATOM      9  N   UNL     1      -1.895  -1.918  -9.171  0.00  0.00    -0.232 NA
ATOM     10  C   UNL     1      -1.606  -2.816  -8.260  0.00  0.00    +0.130 A 
ATOM     11  N   UNL     1      -1.067  -2.509  -7.091  0.00  0.00    -0.217 NA
ATOM     12  H   UNL     1      -0.043  -0.022  -5.314  0.00  0.00    +0.148 HD
ENDROOT
BRANCH   1  13
ATOM     13  C   UNL     1       0.060  -2.013  -4.581  0.00  0.00    +0.166 C 
BRANCH  13  17
ATOM     14  C   UNL     1       0.707  -0.490  -1.238  0.00  0.00    +0.054 A 
ATOM     15  C   UNL     1       2.059  -0.430  -1.355  0.00  0.00    +0.070 A 
ATOM     16  S   UNL     1       2.279  -1.128  -2.984  0.00  0.00    -0.079 S 
ATOM     17  C   UNL     1       0.657  -1.415  -3.333  0.00  0.00    +0.096 A 
ATOM     18  N   UNL     1       0.041  -0.998  -2.256  0.00  0.00    -0.247 NA
BRANCH  14  20
ATOM     19  C   UNL     1      -0.019   1.526   0.010  0.00  0.00    +0.017 C 
ATOM     20  C   UNL     1       0.002  -0.004   0.002  0.00  0.00    +0.005 C 
ATOM     21  C   UNL     1       0.742  -0.511   1.242  0.00  0.00    +0.017 C 
ATOM     22  C   UNL     1      -1.433  -0.534   0.013  0.00  0.00    +0.017 C 
ENDBRANCH  14  20
ENDBRANCH  13  17
ENDBRANCH   1  13
BRANCH  10  23
ATOM     23  C   UNL     1      -1.895  -4.265  -8.560  0.00  0.00    +0.057 C 
BRANCH  23  24
ATOM     24  C   UNL     1      -0.673  -4.901  -9.225  0.00  0.00    -0.079 C 
BRANCH  24  25
ATOM     25  N   UNL     1      -0.955  -6.313  -9.517  0.00  0.00    +0.378 N 
ATOM     26  H   UNL     1      -1.162  -6.800  -8.658  0.00  0.00    -0.090 HD
ATOM     27  H   UNL     1      -1.747  -6.376 -10.139  0.00  0.00    -0.090 HD
ATOM     28  H   UNL     1      -0.149  -6.733  -9.956  0.00  0.00    -0.090 HD
ENDBRANCH  24  25
ENDBRANCH  23  24
ENDBRANCH  10  23
TORSDOF 6
