REMARK  Name = ZINC48375828
REMARK  7 active torsions:
REMARK  status: ('A' for Active; 'I' for Inactive)
REMARK    1  A    between atoms: C_4  and  O_8
REMARK    2  A    between atoms: O_8  and  C_9
REMARK    3  A    between atoms: C_9  and  C_10
REMARK    4  A    between atoms: C_10  and  C_12
REMARK    5  A    between atoms: C_10  and  O_20
REMARK    6  A    between atoms: C_12  and  S_13
REMARK    7  A    between atoms: S_13  and  C_14
REMARK                            x       y       z     vdW  Elec       q    Type
REMARK                         _______ _______ _______ _____ _____    ______ ____
ROOT
ATOM      1  C   UNL     1       4.955  -2.625  -0.062  0.00  0.00    +0.162 C 
ENDROOT
BRANCH   1   2
ATOM      2  O   UNL     1       5.620  -2.278   1.154  0.00  0.00    -0.388 OA
ATOM      3  H   UNL     1       5.188  -2.618   1.950  0.00  0.00    +0.210 HD
ENDBRANCH   1   2
BRANCH   1   4
ATOM      4  C   UNL     1       3.532  -2.061  -0.044  0.00  0.00    +0.261 C 
BRANCH   4   5
ATOM      5  O   UNL     1       3.586  -0.633  -0.037  0.00  0.00    -0.488 OA
BRANCH   5   9
ATOM      6  C   UNL     1      -0.017   1.379   0.010  0.00  0.00    +0.021 A 
ATOM      7  C   UNL     1       1.170   2.089   0.002  0.00  0.00    +0.025 A 
ATOM      8  C   UNL     1       2.378   1.418  -0.013  0.00  0.00    +0.083 A 
ATOM      9  C   UNL     1       2.400   0.029  -0.021  0.00  0.00    +0.140 A 
ATOM     10  C   UNL     1       1.208  -0.680  -0.013  0.00  0.00    +0.067 A 
ATOM     11  C   UNL     1       0.002  -0.004   0.002  0.00  0.00    +0.045 A 
ATOM     12 CL   UNL     1      -1.490  -0.892   0.012  0.00  0.00    -0.083 Cl
ATOM     13 CL   UNL     1       3.867   2.310  -0.024  0.00  0.00    -0.080 Cl
ENDBRANCH   5   9
ENDBRANCH   4   5
ENDBRANCH   1   4
BRANCH   1  14
ATOM     14  C   UNL     1       4.897  -4.148  -0.195  0.00  0.00    +0.111 C 
BRANCH  14  15
ATOM     15  S   UNL     1       6.584  -4.817  -0.216  0.00  0.00    -0.094 S 
BRANCH  15  16
ATOM     16  C   UNL     1       6.350  -6.556  -0.372  0.00  0.00    +0.160 A 
ATOM     17  N   UNL     1       5.229  -7.245  -0.462  0.00  0.00    -0.133 NA
ATOM     18  N   UNL     1       5.274  -8.615  -0.579  0.00  0.00    -0.125 NA
ATOM     19  C   UNL     1       6.438  -9.233  -0.601  0.00  0.00    +0.180 A 
ATOM     20  S   UNL     1       7.570  -7.859  -0.458  0.00  0.00    -0.025 S 
ATOM     21  N   UNL     1       6.712 -10.592  -0.710  0.00  0.00    -0.336 N 
ATOM     22  H   UNL     1       5.984 -11.229  -0.786  0.00  0.00    +0.144 HD
ATOM     23  H   UNL     1       7.630 -10.903  -0.712  0.00  0.00    +0.144 HD
ENDBRANCH  15  16
ENDBRANCH  14  15
ENDBRANCH   1  14
TORSDOF 7
