REMARK  Name = ZINC64311208
REMARK  10 active torsions:
REMARK  status: ('A' for Active; 'I' for Inactive)
REMARK    1  A    between atoms: C_1  and  C_2
REMARK    2  A    between atoms: C_4  and  C_24
REMARK    3  A    between atoms: N_6  and  C_8
REMARK    4  A    between atoms: C_8  and  C_9
REMARK    5  A    between atoms: C_8  and  C_10
REMARK    6  A    between atoms: C_8  and  C_11
REMARK    7  A    between atoms: C_11  and  N_12
REMARK    8  A    between atoms: C_13  and  C_15
REMARK    9  A    between atoms: C_18  and  S_20
REMARK   10  A    between atoms: S_20  and  N_23
REMARK                            x       y       z     vdW  Elec       q    Type
REMARK                         _______ _______ _______ _____ _____    ______ ____
ROOT
ATOM      1  N   UNL     1       3.477  -2.389   0.896  0.00  0.00    -0.310 N 
ATOM      2  C   UNL     1       4.769  -2.196   0.567  0.00  0.00    +0.279 C 
ATOM      3  O   UNL     1       5.539  -1.720   1.381  0.00  0.00    -0.267 OA
ATOM      4  H   UNL     1       2.863  -2.769   0.247  0.00  0.00    +0.149 HD
ENDROOT
BRANCH   2   5
ATOM      5  C   UNL     1       5.248  -2.558  -0.771  0.00  0.00    +0.192 A 
ATOM      6  C   UNL     1       6.526  -2.420  -1.230  0.00  0.00    +0.057 A 
ATOM      7  C   UNL     1       6.532  -2.889  -2.554  0.00  0.00    +0.072 A 
ATOM      8  C   UNL     1       5.273  -3.287  -2.840  0.00  0.00    +0.258 A 
ATOM      9  O   UNL     1       4.503  -3.091  -1.762  0.00  0.00    -0.432 OA
BRANCH   8  10
ATOM     10  S   UNL     1       4.735  -3.960  -4.377  0.00  0.00    +0.089 S 
ATOM     11  O   UNL     1       3.337  -3.719  -4.458  0.00  0.00    -0.150 OA
ATOM     12  O   UNL     1       5.646  -3.497  -5.364  0.00  0.00    -0.150 OA
BRANCH  10  13
ATOM     13  N   UNL     1       4.928  -5.602  -4.288  0.00  0.00    -0.201 NA
ATOM     14  H   UNL     1       5.284  -6.005  -3.481  0.00  0.00    +0.144 HD
ATOM     15  H   UNL     1       4.686  -6.160  -5.043  0.00  0.00    +0.144 HD
ENDBRANCH  10  13
ENDBRANCH   8  10
ENDBRANCH   2   5
BRANCH   1  16
ATOM     16  C   UNL     1       2.998  -2.028   2.232  0.00  0.00    +0.092 C 
BRANCH  16  17
ATOM     17  C   UNL     1       1.483  -2.227   2.303  0.00  0.00    -0.055 C 
ATOM     18  C   UNL     1       0.972  -1.768   3.670  0.00  0.00    -0.008 C 
ATOM     19  C   UNL     1       1.153  -3.707   2.106  0.00  0.00    -0.008 C 
BRANCH  17  25
ATOM     20  C   UNL     1       0.933   2.275   0.459  0.00  0.00    +0.005 C 
ATOM     21  C   UNL     1       0.575   0.799   0.276  0.00  0.00    -0.031 C 
ATOM     22  C   UNL     1      -0.948   0.636   0.290  0.00  0.00    +0.003 C 
ATOM     23  C   UNL     1      -1.294  -0.852   0.185  0.00  0.00    -0.031 C 
ATOM     24  C   UNL     1      -0.620  -1.609   1.332  0.00  0.00    -0.075 C 
ATOM     25  N   UNL     1       0.836  -1.436   1.248  0.00  0.00    +0.384 N 
ATOM     26  C   UNL     1       1.180  -0.019   1.419  0.00  0.00    -0.075 C 
ATOM     27  C   UNL     1      -0.793  -1.400  -1.153  0.00  0.00    +0.005 C 
ATOM     28  H   UNL     1       1.160  -1.753   0.346  0.00  0.00    -0.081 HD
ENDBRANCH  17  25
ENDBRANCH  16  17
ENDBRANCH   1  16
TORSDOF 6
