REMARK  Name = ZINC40658435
REMARK  6 active torsions:
REMARK  status: ('A' for Active; 'I' for Inactive)
REMARK    1  A    between atoms: C_3  and  C_10
REMARK    2  A    between atoms: C_5  and  N_7
REMARK    3  A    between atoms: N_12  and  N_13
REMARK    4  A    between atoms: C_15  and  N_28
REMARK    5  A    between atoms: C_16  and  N_20
REMARK    6  A    between atoms: N_20  and  C_21
REMARK                            x       y       z     vdW  Elec       q    Type
REMARK                         _______ _______ _______ _____ _____    ______ ____
ROOT
ATOM      1  N   UNL     1       4.831   4.247   0.342  0.00  0.00    -0.246 N 
ATOM      2  C   UNL     1       4.825   5.619   0.143  0.00  0.00    +0.171 A 
ATOM      3  C   UNL     1       6.015   6.341   0.161  0.00  0.00    +0.207 A 
ATOM      4  C   UNL     1       5.955   7.715  -0.043  0.00  0.00    +0.159 A 
ATOM      5  N   UNL     1       4.770   8.287  -0.248  0.00  0.00    -0.218 NA
ATOM      6  C   UNL     1       3.666   7.570  -0.258  0.00  0.00    +0.225 A 
ATOM      7  N   UNL     1       3.681   6.265  -0.073  0.00  0.00    -0.217 NA
ATOM      8  H   UNL     1       5.669   3.784   0.499  0.00  0.00    +0.172 HD
ENDROOT
BRANCH   1  11
ATOM      9  C   UNL     1       3.634   2.196   0.509  0.00  0.00    +0.260 C 
ATOM     10  O   UNL     1       4.683   1.616   0.707  0.00  0.00    -0.269 OA
ATOM     11  N   UNL     1       3.628   3.530   0.316  0.00  0.00    -0.231 N 
ATOM     12  H   UNL     1       2.790   3.994   0.159  0.00  0.00    +0.173 HD
BRANCH   9  15
ATOM     13  C   UNL     1      -0.024   1.391   0.231  0.00  0.00    +0.003 A 
ATOM     14  C   UNL     1       1.157   2.104   0.256  0.00  0.00    +0.013 A 
ATOM     15  C   UNL     1       2.364   1.440   0.482  0.00  0.00    +0.040 A 
ATOM     16  C   UNL     1       2.367   0.058   0.681  0.00  0.00    +0.045 A 
ATOM     17  C   UNL     1       1.179  -0.642   0.654  0.00  0.00    +0.127 A 
ATOM     18  C   UNL     1      -0.015   0.022   0.429  0.00  0.00    +0.033 A 
BRANCH  17  19
ATOM     19  N   UNL     1       1.179  -2.107   0.865  0.00  0.00    +0.056 N 
ATOM     20  O   UNL     1       2.221  -2.689   1.061  0.00  0.00    -0.126 OA
ATOM     21  O   UNL     1       0.139  -2.722   0.841  0.00  0.00    -0.126 OA
ENDBRANCH  17  19
ENDBRANCH   9  15
ENDBRANCH   1  11
BRANCH   3  22
ATOM     22  N   UNL     1       7.311   5.663   0.393  0.00  0.00    +0.063 N 
ATOM     23  O   UNL     1       7.946   5.237  -0.543  0.00  0.00    -0.126 OA
ATOM     24  O   UNL     1       7.734   5.535   1.518  0.00  0.00    -0.126 OA
ENDBRANCH   3  22
BRANCH   4  25
ATOM     25  N   UNL     1       7.114   8.479  -0.034  0.00  0.00    -0.297 N 
ATOM     26  H   UNL     1       7.979   8.047   0.040  0.00  0.00    +0.154 HD
BRANCH  25  27
ATOM     27  C   UNL     1       7.033   9.871  -0.132  0.00  0.00    +0.033 A 
ATOM     28  C   UNL     1       7.996  10.576  -0.843  0.00  0.00    +0.023 A 
ATOM     29  C   UNL     1       7.915  11.951  -0.938  0.00  0.00    +0.003 A 
ATOM     30  C   UNL     1       6.876  12.628  -0.325  0.00  0.00    +0.015 A 
ATOM     31  C   UNL     1       5.915  11.930   0.385  0.00  0.00    +0.020 A 
ATOM     32  C   UNL     1       5.988  10.553   0.478  0.00  0.00    +0.038 A 
ATOM     33 BR   UNL     1       4.497  12.859   1.221  0.00  0.00    -0.050 Br
ENDBRANCH  25  27
ENDBRANCH   4  25
TORSDOF 6
