REMARK  Name = ZINC45554748
REMARK  10 active torsions:
REMARK  status: ('A' for Active; 'I' for Inactive)
REMARK    1  A    between atoms: C_1  and  C_2
REMARK    2  A    between atoms: C_2  and  N_3
REMARK    3  A    between atoms: N_3  and  C_4
REMARK    4  A    between atoms: C_4  and  C_5
REMARK    5  A    between atoms: C_4  and  C_6
REMARK    6  A    between atoms: C_4  and  C_19
REMARK    7  A    between atoms: C_6  and  C_7
REMARK    8  A    between atoms: C_7  and  C_8
REMARK    9  A    between atoms: C_8  and  S_9
REMARK   10  A    between atoms: S_9  and  C_10
REMARK                            x       y       z     vdW  Elec       q    Type
REMARK                         _______ _______ _______ _____ _____    ______ ____
ROOT
ATOM      1  C   UNL     1       1.426  -2.440  -2.474  0.00  0.00    -0.003 C 
ENDROOT
BRANCH   1   2
ATOM      2  C   UNL     1       0.710  -1.947  -1.215  0.00  0.00    +0.007 C 
ATOM      3  C   UNL     1       1.450  -2.454   0.025  0.00  0.00    -0.001 C 
BRANCH   2   4
ATOM      4  C   UNL     1      -0.704  -2.468  -1.204  0.00  0.00    +0.199 C 
ATOM      5  O   UNL     1      -0.970  -3.489  -0.604  0.00  0.00    -0.278 OA
ATOM      6  N   UNL     1      -1.674  -1.801  -1.861  0.00  0.00    -0.330 N 
ATOM      7  H   UNL     1      -1.461  -0.985  -2.340  0.00  0.00    +0.145 HD
ATOM      8  H   UNL     1      -2.584  -2.137  -1.854  0.00  0.00    +0.145 HD
ENDBRANCH   2   4
BRANCH   2   9
ATOM      9  N   UNL     1       0.690  -0.478  -1.207  0.00  0.00    +0.388 N 
ATOM     10  H   UNL     1       0.202  -0.144  -2.024  0.00  0.00    -0.084 HD
ATOM     11  H   UNL     1       1.636  -0.129  -1.214  0.00  0.00    -0.084 HD
BRANCH   9  13
ATOM     12  C   UNL     1      -0.019   1.526   0.010  0.00  0.00    -0.017 C 
ATOM     13  C   UNL     1       0.002  -0.004   0.002  0.00  0.00    -0.085 C 
ENDBRANCH   9  13
ENDBRANCH   2   9
ENDBRANCH   1   2
BRANCH   1  14
ATOM     14  C   UNL     1       1.446  -3.970  -2.482  0.00  0.00    +0.010 C 
BRANCH  14  15
ATOM     15  C   UNL     1       2.163  -4.463  -3.741  0.00  0.00    +0.076 C 
BRANCH  15  16
ATOM     16  S   UNL     1       2.187  -6.277  -3.751  0.00  0.00    -0.099 S 
BRANCH  16  17
ATOM     17  C   UNL     1       3.034  -6.684  -5.242  0.00  0.00    +0.136 A 
ATOM     18  N   UNL     1       3.543  -5.878  -6.147  0.00  0.00    -0.233 NA
ATOM     19  C   UNL     1       4.171  -6.334  -7.252  0.00  0.00    +0.079 A 
ATOM     20  C   UNL     1       4.759  -5.582  -8.295  0.00  0.00    +0.029 A 
ATOM     21  C   UNL     1       5.362  -6.206  -9.355  0.00  0.00    +0.002 A 
ATOM     22  C   UNL     1       5.419  -7.589  -9.445  0.00  0.00    +0.001 A 
ATOM     23  C   UNL     1       4.854  -8.357  -8.442  0.00  0.00    +0.017 A 
ATOM     24  C   UNL     1       4.248  -7.740  -7.377  0.00  0.00    +0.040 A 
ATOM     25  S   UNL     1       3.425  -8.297  -5.904  0.00  0.00    -0.061 S 
ENDBRANCH  16  17
ENDBRANCH  15  16
ENDBRANCH  14  15
ENDBRANCH   1  14
TORSDOF 8
