REMARK  Name = ZINC20021320
REMARK  6 active torsions:
REMARK  status: ('A' for Active; 'I' for Inactive)
REMARK    1  A    between atoms: C_3  and  S_17
REMARK    2  A    between atoms: C_6  and  C_7
REMARK    3  A    between atoms: C_7  and  N_8
REMARK    4  A    between atoms: N_8  and  C_9
REMARK    5  A    between atoms: C_9  and  C_10
REMARK    6  A    between atoms: S_17  and  N_20
REMARK                            x       y       z     vdW  Elec       q    Type
REMARK                         _______ _______ _______ _____ _____    ______ ____
ROOT
ATOM      1  C   UNL     1      -0.403   2.811   4.206  0.00  0.00    +0.003 A 
ATOM      2  C   UNL     1      -1.078   3.276   5.319  0.00  0.00    +0.029 A 
ATOM      3  C   UNL     1      -2.092   2.521   5.878  0.00  0.00    +0.105 A 
ATOM      4  C   UNL     1      -2.434   1.303   5.321  0.00  0.00    +0.029 A 
ATOM      5  C   UNL     1      -1.762   0.840   4.205  0.00  0.00    +0.003 A 
ATOM      6  C   UNL     1      -0.749   1.596   3.646  0.00  0.00    -0.064 A 
ENDROOT
BRANCH   3   7
ATOM      7  S   UNL     1      -2.949   3.112   7.300  0.00  0.00    +0.056 S 
ATOM      8  O   UNL     1      -2.807   4.526   7.301  0.00  0.00    -0.153 OA
ATOM      9  O   UNL     1      -4.219   2.473   7.303  0.00  0.00    -0.153 OA
BRANCH   7  10
ATOM     10  N   UNL     1      -2.135   2.553   8.629  0.00  0.00    -0.204 NA
ATOM     11  H   UNL     1      -2.641   2.901   9.542  0.00  0.00    +0.144 HD
ATOM     12  H   UNL     1      -1.103   2.933   8.614  0.00  0.00    +0.144 HD
ENDBRANCH   7  10
ENDBRANCH   3   7
BRANCH   6  13
ATOM     13  C   UNL     1      -0.016   1.091   2.429  0.00  0.00    -0.046 C 
BRANCH  13  14
ATOM     14  N   UNL     1      -0.700   1.560   1.217  0.00  0.00    +0.384 N 
ATOM     15  H   UNL     1      -1.732   1.179   1.208  0.00  0.00    -0.085 HD
ATOM     16  H   UNL     1      -0.715   2.659   1.206  0.00  0.00    -0.085 HD
BRANCH  14  17
ATOM     17  C   UNL     1      -0.013   1.086   0.008  0.00  0.00    -0.046 C 
BRANCH  17  18
ATOM     18  C   UNL     1      -0.742   1.585  -1.213  0.00  0.00    -0.064 A 
ATOM     19  C   UNL     1      -1.750   0.824  -1.775  0.00  0.00    +0.003 A 
ATOM     20  C   UNL     1      -2.422   1.284  -2.892  0.00  0.00    +0.015 A 
ATOM     21  C   UNL     1      -2.078   2.501  -3.454  0.00  0.00    +0.018 A 
ATOM     22  C   UNL     1      -1.066   3.259  -2.894  0.00  0.00    +0.015 A 
ATOM     23  C   UNL     1      -0.398   2.801  -1.774  0.00  0.00    +0.003 A 
ATOM     24 BR   UNL     1      -2.993   3.127  -4.986  0.00  0.00    -0.050 Br
ENDBRANCH  17  18
ENDBRANCH  14  17
ENDBRANCH  13  14
ENDBRANCH   6  13
TORSDOF 6
