REMARK  Name = ZINC28939369
REMARK  10 active torsions:
REMARK  status: ('A' for Active; 'I' for Inactive)
REMARK    1  A    between atoms: C_1  and  C_2
REMARK    2  A    between atoms: C_9  and  C_16
REMARK    3  A    between atoms: C_11  and  O_12
REMARK    4  A    between atoms: C_16  and  O_17
REMARK    5  A    between atoms: O_17  and  C_18
REMARK    6  A    between atoms: C_18  and  C_20
REMARK    7  A    between atoms: C_25  and  N_26
REMARK    8  A    between atoms: N_26  and  C_27
REMARK    9  A    between atoms: C_27  and  C_28
REMARK   10  A    between atoms: C_28  and  O_29
REMARK                            x       y       z     vdW  Elec       q    Type
REMARK                         _______ _______ _______ _____ _____    ______ ____
ROOT
ATOM      1  C   UNL     1      -0.731   1.506  -2.168  0.00  0.00    +0.109 C 
ATOM      2  C   UNL     1      -0.715  -0.001  -2.169  0.00  0.00    +0.214 C 
ATOM      3  O   UNL     1      -1.262  -0.613  -3.062  0.00  0.00    -0.276 OA
ATOM      4  N   UNL     1      -0.093  -0.668  -1.177  0.00  0.00    -0.286 N 
ATOM      5  C   UNL     1      -0.154  -2.061  -1.128  0.00  0.00    +0.037 A 
ATOM      6  C   UNL     1      -0.207  -2.709   0.106  0.00  0.00    +0.024 A 
ATOM      7  C   UNL     1      -0.274  -4.070   0.170  0.00  0.00    +0.014 A 
ATOM      8  C   UNL     1      -0.277  -4.822  -1.011  0.00  0.00    +0.024 A 
ATOM      9  C   UNL     1      -0.342  -6.285  -0.972  0.00  0.00    +0.007 A 
ATOM     10  C   UNL     1      -0.342  -6.959  -2.151  0.00  0.00    +0.095 A 
ATOM     11  C   UNL     1      -0.281  -6.246  -3.366  0.00  0.00    +0.285 A 
ATOM     12  O   UNL     1      -0.222  -4.906  -3.395  0.00  0.00    -0.425 OA
ATOM     13  C   UNL     1      -0.218  -4.176  -2.259  0.00  0.00    +0.141 A 
ATOM     14  C   UNL     1      -0.157  -2.791  -2.307  0.00  0.00    +0.070 A 
ATOM     15  H   UNL     1       0.463  -0.115  -0.406  0.00  0.00    +0.155 HD
ENDROOT
BRANCH  11  16
ATOM     16  O   UNL     1      -0.282  -6.863  -4.417  0.00  0.00    -0.480 OA
ATOM     17  H   UNL     1      -0.235  -6.321  -5.373  0.00  0.00    +0.295 HD
ENDBRANCH  11  16
BRANCH   9  18
ATOM     18  C   UNL     1      -0.407  -7.022   0.341  0.00  0.00    +0.269 C 
BRANCH  18  19
ATOM     19  O   UNL     1      -0.464  -8.451   0.091  0.00  0.00    -0.456 OA
BRANCH  19  20
ATOM     20  C   UNL     1      -0.526  -9.259   1.169  0.00  0.00    +0.341 C 
ATOM     21  O   UNL     1      -0.533  -8.781   2.286  0.00  0.00    -0.245 OA
BRANCH  20  22
ATOM     22  C   UNL     1      -0.586 -10.720   0.992  0.00  0.00    +0.080 A 
ATOM     23  C   UNL     1      -0.470 -11.279  -0.284  0.00  0.00    +0.017 A 
ATOM     24  C   UNL     1      -0.521 -12.646  -0.442  0.00  0.00    +0.001 A 
ATOM     25  C   UNL     1      -0.699 -13.472   0.656  0.00  0.00    +0.002 A 
ATOM     26  C   UNL     1      -0.822 -12.936   1.921  0.00  0.00    +0.024 A 
ATOM     27  C   UNL     1      -0.767 -11.559   2.102  0.00  0.00    +0.041 A 
BRANCH  27  28
ATOM     28  N   UNL     1      -0.890 -11.017   3.374  0.00  0.00    -0.341 N 
ATOM     29  H   UNL     1      -0.759  -9.935   3.526  0.00  0.00    +0.146 HD
BRANCH  28  30
ATOM     30  C   UNL     1      -1.195 -11.885   4.514  0.00  0.00    +0.129 C 
BRANCH  30  31
ATOM     31  C   UNL     1      -1.276 -11.043   5.789  0.00  0.00    +0.174 C 
BRANCH  31  32
ATOM     32  O   UNL     1      -2.380 -10.140   5.695  0.00  0.00    -0.393 OA
ATOM     33  H   UNL     1      -2.599  -9.450   6.523  0.00  0.00    +0.209 HD
ENDBRANCH  31  32
ENDBRANCH  30  31
ENDBRANCH  28  30
ENDBRANCH  27  28
ENDBRANCH  20  22
ENDBRANCH  19  20
ENDBRANCH  18  19
ENDBRANCH   9  18
TORSDOF 9
