REMARK  Name = ZINC63213078
REMARK  4 active torsions:
REMARK  status: ('A' for Active; 'I' for Inactive)
REMARK    1  A    between atoms: C_6  and  S_7
REMARK    2  A    between atoms: S_7  and  N_10
REMARK    3  A    between atoms: N_10  and  C_11
REMARK    4  A    between atoms: C_18  and  N_20
REMARK                            x       y       z     vdW  Elec       q    Type
REMARK                         _______ _______ _______ _____ _____    ______ ____
ROOT
ATOM      1  N   UNL     1      -1.947  -1.149  -1.567  0.00  0.00    -0.188 NA
ATOM      2  H   UNL     1      -2.755  -0.740  -1.915  0.00  0.00    +0.148 HD
ENDROOT
BRANCH   1   3
ATOM      3  C   UNL     1      -1.113  -1.980  -2.438  0.00  0.00    +0.062 C 
ATOM      4  C   UNL     1      -0.122  -1.073  -3.190  0.00  0.00    +0.019 C 
ATOM      5  C   UNL     1       0.480  -1.749  -4.392  0.00  0.00    +0.001 C 
ATOM      6  C   UNL     1      -0.357  -1.379  -5.633  0.00  0.00    -0.000 C 
ATOM      7  C   UNL     1      -1.573  -2.171  -5.739  0.00  0.00    -0.002 C 
ATOM      8  C   UNL     1      -2.522  -1.955  -4.542  0.00  0.00    -0.015 C 
ATOM      9  C   UNL     1      -2.027  -2.779  -3.387  0.00  0.00    -0.056 C 
BRANCH   9  10
ATOM     10  N   UNL     1      -3.185  -3.272  -2.628  0.00  0.00    +0.381 N 
ATOM     11  H   UNL     1      -3.693  -2.490  -2.243  0.00  0.00    -0.090 HD
ATOM     12  H   UNL     1      -3.790  -3.797  -3.242  0.00  0.00    -0.090 HD
ATOM     13  H   UNL     1      -2.867  -3.868  -1.879  0.00  0.00    -0.090 HD
ENDBRANCH   9  10
ENDBRANCH   1   3
BRANCH   1  14
ATOM     14  S   UNL     1      -1.511  -0.907   0.012  0.00  0.00    +0.059 S 
ATOM     15  O   UNL     1      -1.217  -2.187   0.553  0.00  0.00    -0.153 OA
ATOM     16  O   UNL     1      -2.492  -0.048   0.578  0.00  0.00    -0.153 OA
BRANCH  14  22
ATOM     17  C   UNL     1      -0.017   1.378   0.010  0.00  0.00    +0.029 A 
ATOM     18  C   UNL     1       1.171   2.083   0.002  0.00  0.00    +0.006 A 
ATOM     19  C   UNL     1       2.381   1.411  -0.014  0.00  0.00    -0.044 A 
ATOM     20  C   UNL     1       2.400   0.028  -0.021  0.00  0.00    -0.042 A 
ATOM     21  C   UNL     1       1.208  -0.677  -0.014  0.00  0.00    +0.032 A 
ATOM     22  C   UNL     1       0.002  -0.004   0.002  0.00  0.00    +0.106 A 
ATOM     23  C   UNL     1       3.831  -0.464  -0.038  0.00  0.00    +0.036 C 
ATOM     24  C   UNL     1       4.671   0.753  -0.480  0.00  0.00    +0.009 C 
ATOM     25  C   UNL     1       3.799   1.942  -0.025  0.00  0.00    +0.036 C 
ENDBRANCH  14  22
ENDBRANCH   1  14
TORSDOF 4
