REMARK  Name = ZINC58209758
REMARK  11 active torsions:
REMARK  status: ('A' for Active; 'I' for Inactive)
REMARK    1  A    between atoms: C_1  and  C_2
REMARK    2  A    between atoms: C_2  and  N_3
REMARK    3  A    between atoms: C_7  and  C_9
REMARK    4  A    between atoms: C_9  and  N_10
REMARK    5  A    between atoms: C_15  and  C_17
REMARK    6  A    between atoms: C_17  and  N_18
REMARK    7  A    between atoms: C_19  and  O_21
REMARK    8  A    between atoms: O_21  and  C_22
REMARK    9  A    between atoms: C_22  and  C_23
REMARK   10  A    between atoms: C_22  and  C_24
REMARK   11  A    between atoms: C_22  and  C_25
REMARK                            x       y       z     vdW  Elec       q    Type
REMARK                         _______ _______ _______ _____ _____    ______ ____
ROOT
ATOM      1  N   UNL     1      -4.456  -5.729  -0.055  0.00  0.00    +0.388 N 
ATOM      2  C   UNL     1      -3.732  -6.212   1.127  0.00  0.00    -0.078 C 
ATOM      3  C   UNL     1      -3.750  -7.742   1.152  0.00  0.00    -0.019 C 
ATOM      4  C   UNL     1      -5.201  -8.229   1.206  0.00  0.00    -0.003 C 
ATOM      5  C   UNL     1      -5.965  -7.659   0.007  0.00  0.00    -0.014 C 
ATOM      6  C   UNL     1      -5.865  -6.132   0.025  0.00  0.00    -0.050 C 
ATOM      7  H   UNL     1      -4.041  -6.125  -0.886  0.00  0.00    -0.081 HD
ENDROOT
BRANCH   1   8
ATOM      8  C   UNL     1      -4.369  -4.264  -0.116  0.00  0.00    +0.019 C 
BRANCH   8  13
ATOM      9  N   UNL     1      -1.018  -0.878  -0.762  0.00  0.00    -0.299 N 
ATOM     10  C   UNL     1      -1.339  -2.184  -0.668  0.00  0.00    +0.306 C 
ATOM     11  O   UNL     1      -0.475  -3.031  -0.779  0.00  0.00    -0.252 OA
ATOM     12  N   UNL     1      -2.618  -2.550  -0.452  0.00  0.00    -0.242 N 
ATOM     13  C   UNL     1      -2.939  -3.855  -0.358  0.00  0.00    +0.204 C 
ATOM     14  O   UNL     1      -2.077  -4.701  -0.469  0.00  0.00    -0.277 OA
ATOM     15  H   UNL     1      -1.708  -0.202  -0.673  0.00  0.00    +0.150 HD
ATOM     16  H   UNL     1      -3.308  -1.873  -0.363  0.00  0.00    +0.159 HD
BRANCH   9  18
ATOM     17  C   UNL     1       0.463   1.045  -1.061  0.00  0.00    +0.024 C 
ATOM     18  C   UNL     1       0.372  -0.481  -0.997  0.00  0.00    +0.102 C 
ENDBRANCH   9  18
ENDBRANCH   8  13
ENDBRANCH   1   8
BRANCH   6  19
ATOM     19  C   UNL     1      -6.628  -5.557  -1.170  0.00  0.00    +0.092 C 
BRANCH  19  20
ATOM     20  N   UNL     1      -5.967  -5.965  -2.413  0.00  0.00    -0.283 N 
ATOM     21  C   UNL     1      -6.405  -5.491  -3.596  0.00  0.00    +0.401 C 
ATOM     22  O   UNL     1      -7.349  -4.727  -3.632  0.00  0.00    -0.226 OA
ATOM     23  H   UNL     1      -5.213  -6.575  -2.384  0.00  0.00    +0.152 HD
BRANCH  21  24
ATOM     24  O   UNL     1      -5.798  -5.865  -4.738  0.00  0.00    -0.445 OA
BRANCH  24  25
ATOM     25  C   UNL     1      -6.315  -5.325  -5.955  0.00  0.00    +0.107 C 
ATOM     26  C   UNL     1      -6.216  -3.799  -5.918  0.00  0.00    +0.055 C 
ATOM     27  C   UNL     1      -5.503  -5.860  -7.136  0.00  0.00    +0.055 C 
ATOM     28  C   UNL     1      -7.780  -5.738  -6.114  0.00  0.00    +0.055 C 
ENDBRANCH  24  25
ENDBRANCH  21  24
ENDBRANCH  19  20
ENDBRANCH   6  19
TORSDOF 7
