REMARK  Name = ZINC54908728
REMARK  6 active torsions:
REMARK  status: ('A' for Active; 'I' for Inactive)
REMARK    1  A    between atoms: C_1  and  N_2
REMARK    2  A    between atoms: N_2  and  C_3
REMARK    3  A    between atoms: N_13  and  C_14
REMARK    4  A    between atoms: N_13  and  C_15
REMARK    5  A    between atoms: C_15  and  C_16
REMARK    6  A    between atoms: N_19  and  C_21
REMARK                            x       y       z     vdW  Elec       q    Type
REMARK                         _______ _______ _______ _____ _____    ______ ____
ROOT
ATOM      1  C   UNL     1       0.707  -0.583  -1.150  0.00  0.00    -0.033 C 
ATOM      2  C   UNL     1       0.519  -2.109  -1.159  0.00  0.00    -0.010 C 
ATOM      3  C   UNL     1       1.509  -2.722  -2.154  0.00  0.00    +0.005 C 
ATOM      4  C   UNL     1       2.937  -2.604  -1.617  0.00  0.00    +0.056 C 
ATOM      5  C   UNL     1       3.198  -1.152  -1.240  0.00  0.00    +0.052 A 
ATOM      6  C   UNL     1       2.165  -0.293  -1.045  0.00  0.00    +0.000 A 
ATOM      7  S   UNL     1       2.991   1.222  -0.643  0.00  0.00    -0.059 S 
ATOM      8  C   UNL     1       4.571   0.646  -0.754  0.00  0.00    +0.161 A 
ATOM      9  N   UNL     1       4.407  -0.620  -1.077  0.00  0.00    -0.230 NA
ATOM     10  N   UNL     1       5.756   1.337  -0.553  0.00  0.00    -0.308 N 
ATOM     11  C   UNL     1       5.724   2.758  -0.195  0.00  0.00    +0.131 C 
ENDROOT
BRANCH   1  13
ATOM     12  C   UNL     1      -1.446  -0.175  -0.174  0.00  0.00    -0.100 C 
ATOM     13  N   UNL     1       0.002  -0.004   0.002  0.00  0.00    +0.382 N 
ATOM     14  H   UNL     1       0.219   0.979   0.070  0.00  0.00    -0.085 HD
ATOM     15  H   UNL     1       0.296  -0.472   0.846  0.00  0.00    -0.085 HD
ENDBRANCH   1  13
BRANCH  10  16
ATOM     16  C   UNL     1       7.040   0.648  -0.700  0.00  0.00    +0.144 C 
BRANCH  16  17
ATOM     17  C   UNL     1       7.511   0.760  -2.127  0.00  0.00    +0.007 A 
ATOM     18  C   UNL     1       7.219  -0.134  -3.162  0.00  0.00    +0.139 A 
ATOM     19  N   UNL     1       7.802   0.297  -4.251  0.00  0.00    -0.180 NA
ATOM     20  N   UNL     1       8.484   1.481  -3.943  0.00  0.00    -0.274 N 
ATOM     21  C   UNL     1       8.285   1.746  -2.635  0.00  0.00    +0.113 A 
ATOM     22  C   UNL     1       9.270   2.291  -4.877  0.00  0.00    +0.172 C 
ENDBRANCH  16  17
ENDBRANCH  10  16
TORSDOF 3
