REMARK  Name = ZINC43410000
REMARK  2 active torsions:
REMARK  status: ('A' for Active; 'I' for Inactive)
REMARK    1  A    between atoms: C_6  and  C_7
REMARK    2  A    between atoms: C_12  and  N_15
REMARK                            x       y       z     vdW  Elec       q    Type
REMARK                         _______ _______ _______ _____ _____    ______ ____
ROOT
ATOM      1  C   UNL     1      -0.035   1.320  -0.228  0.00  0.00    +0.022 A 
ATOM      2  C   UNL     1       1.146   2.050  -0.285  0.00  0.00    -0.025 A 
ATOM      3  C   UNL     1       2.347   1.416  -0.052  0.00  0.00    +0.047 A 
ATOM      4  N   UNL     1       2.380   0.116   0.217  0.00  0.00    -0.232 NA
ATOM      5  C   UNL     1       1.290  -0.623   0.282  0.00  0.00    +0.166 A 
ATOM      6  C   UNL     1       0.030  -0.045   0.062  0.00  0.00    +0.081 A 
ATOM      7  N   UNL     1       1.389  -1.982   0.570  0.00  0.00    -0.219 N 
ATOM      8  C   UNL     1       2.457  -2.785   0.297  0.00  0.00    +0.139 A 
ATOM      9  C   UNL     1       2.152  -4.032   0.735  0.00  0.00    +0.063 A 
ATOM     10  C   UNL     1       0.863  -3.990   1.291  0.00  0.00    +0.157 A 
ATOM     11  N   UNL     1       0.412  -2.766   1.197  0.00  0.00    -0.172 NA
ATOM     12  C   UNL     1       3.664   2.150  -0.081  0.00  0.00    +0.056 C 
ATOM     13  C   UNL     1       3.521   3.482  -0.813  0.00  0.00    +0.006 C 
ATOM     14  C   UNL     1       2.333   4.242  -0.210  0.00  0.00    +0.005 C 
ATOM     15  C   UNL     1       1.048   3.518  -0.608  0.00  0.00    +0.037 C 
ENDROOT
BRANCH   6  16
ATOM     16  C   UNL     1      -1.198  -0.860   0.135  0.00  0.00    +0.245 C 
ATOM     17  O   UNL     1      -1.209  -1.985  -0.327  0.00  0.00    -0.270 OA
ATOM     18  N   UNL     1      -2.307  -0.357   0.713  0.00  0.00    -0.325 N 
ATOM     19  H   UNL     1      -2.298   0.540   1.081  0.00  0.00    +0.145 HD
ATOM     20  H   UNL     1      -3.114  -0.893   0.760  0.00  0.00    +0.145 HD
ENDBRANCH   6  16
BRANCH   9  21
ATOM     21  N   UNL     1       2.980  -5.166   0.648  0.00  0.00    -0.356 N 
ATOM     22  H   UNL     1       3.860  -5.095   0.245  0.00  0.00    +0.142 HD
ATOM     23  H   UNL     1       2.672  -6.019   0.992  0.00  0.00    +0.142 HD
ENDBRANCH   9  21
TORSDOF 2
