REMARK  Name = ZINC04116307
REMARK  5 active torsions:
REMARK  status: ('A' for Active; 'I' for Inactive)
REMARK    1  A    between atoms: C_1  and  C_2
REMARK    2  A    between atoms: C_7  and  C_17
REMARK    3  A    between atoms: C_29  and  C_31
REMARK    4  A    between atoms: C_31  and  O_33
REMARK    5  A    between atoms: O_33  and  C_34
REMARK                            x       y       z     vdW  Elec       q    Type
REMARK                         _______ _______ _______ _____ _____    ______ ____
ROOT
ATOM      1  C   UNL     1       2.472   4.410   4.984  0.00  0.00    +0.009 C 
ATOM      2  C   UNL     1       2.186   3.504   3.785  0.00  0.00    +0.013 C 
ATOM      3  C   UNL     1       0.723   3.640   3.370  0.00  0.00    +0.055 C 
ATOM      4  C   UNL     1       0.439   2.749   2.170  0.00  0.00    +0.017 C 
ATOM      5  C   UNL     1       1.392   2.527   1.252  0.00  0.00    +0.037 C 
ATOM      6  C   UNL     1       1.239   1.695  -0.001  0.00  0.00    +0.138 C 
ATOM      7  N   UNL     1       0.030   0.901  -0.042  0.00  0.00    -0.331 N 
ATOM      8  C   UNL     1      -1.224   1.504  -0.083  0.00  0.00    +0.049 A 
ATOM      9  C   UNL     1      -2.044   1.398  -1.191  0.00  0.00    +0.025 A 
ATOM     10  C   UNL     1      -3.257   2.062  -1.210  0.00  0.00    +0.002 A 
ATOM     11  C   UNL     1      -3.654   2.830  -0.130  0.00  0.00    +0.002 A 
ATOM     12  C   UNL     1      -2.849   2.920   0.993  0.00  0.00    +0.025 A 
ATOM     13  C   UNL     1      -1.647   2.237   1.022  0.00  0.00    +0.052 A 
ATOM     14  N   UNL     1      -0.817   2.234   2.139  0.00  0.00    -0.316 N 
ATOM     15  C   UNL     1       2.681   3.089   1.408  0.00  0.00    +0.177 C 
ATOM     16  O   UNL     1       3.518   2.882   0.552  0.00  0.00    -0.291 OA
ATOM     17  C   UNL     1       3.051   3.931   2.592  0.00  0.00    +0.171 C 
ATOM     18  H   UNL     1       0.094  -0.067  -0.046  0.00  0.00    +0.147 HD
ATOM     19  H   UNL     1      -1.161   1.836   2.954  0.00  0.00    +0.152 HD
ENDROOT
BRANCH   6  20
ATOM     20  C   UNL     1       1.248   2.617  -1.192  0.00  0.00    +0.002 A 
ATOM     21  C   UNL     1       0.981   3.933  -1.186  0.00  0.00    +0.089 A 
ATOM     22  N   UNL     1       1.091   4.437  -2.454  0.00  0.00    -0.360 N 
ATOM     23  H   UNL     1       0.946   5.365  -2.699  0.00  0.00    +0.165 HD
ATOM     24  C   UNL     1       1.431   3.431  -3.330  0.00  0.00    +0.047 A 
ATOM     25  C   UNL     1       1.545   2.247  -2.579  0.00  0.00    +0.005 A 
ATOM     26  C   UNL     1       1.883   1.050  -3.212  0.00  0.00    +0.010 A 
ATOM     27  C   UNL     1       2.103   1.035  -4.561  0.00  0.00    +0.001 A 
ATOM     28  C   UNL     1       1.992   2.200  -5.306  0.00  0.00    +0.002 A 
ATOM     29  C   UNL     1       1.659   3.393  -4.701  0.00  0.00    +0.026 A 
ENDBRANCH   6  20
BRANCH  17  30
ATOM     30  C   UNL     1       4.507   3.726   2.924  0.00  0.00    +0.318 C 
ATOM     31  O   UNL     1       4.825   3.300   4.009  0.00  0.00    -0.250 OA
BRANCH  30  32
ATOM     32  O   UNL     1       5.450   4.018   2.014  0.00  0.00    -0.467 OA
ATOM     33  C   UNL     1       6.831   3.796   2.402  0.00  0.00    +0.280 C 
ENDBRANCH  30  32
ENDBRANCH  17  30
TORSDOF 3
