REMARK  Name = ZINC63196246
REMARK  6 active torsions:
REMARK  status: ('A' for Active; 'I' for Inactive)
REMARK    1  A    between atoms: C_1  and  C_2
REMARK    2  A    between atoms: C_2  and  C_4
REMARK    3  A    between atoms: C_2  and  N_22
REMARK    4  A    between atoms: N_10  and  C_11
REMARK    5  A    between atoms: C_11  and  C_12
REMARK    6  A    between atoms: C_17  and  N_18
REMARK                            x       y       z     vdW  Elec       q    Type
REMARK                         _______ _______ _______ _____ _____    ______ ____
ROOT
ATOM      1  C   UNL     1       0.973  -0.554   0.989  0.00  0.00    +0.042 C 
ATOM      2  C   UNL     1       2.481  -0.305   0.925  0.00  0.00    +0.017 C 
ATOM      3  C   UNL     1       3.087  -0.511   2.316  0.00  0.00    +0.003 C 
ATOM      4  C   UNL     1       2.769  -1.930   2.797  0.00  0.00    +0.015 C 
ATOM      5  C   UNL     1       1.252  -2.132   2.807  0.00  0.00    +0.085 C 
ATOM      6  N   UNL     1       0.721  -1.925   1.453  0.00  0.00    -0.297 NA
ENDROOT
BRANCH   1   8
ATOM      7  C   UNL     1       0.911  -1.445  -1.345  0.00  0.00    -0.013 C 
ATOM      8  C   UNL     1       0.366  -0.369  -0.404  0.00  0.00    -0.061 C 
BRANCH   8   9
ATOM      9  N   UNL     1       0.723   0.959  -0.920  0.00  0.00    +0.381 N 
ATOM     10  H   UNL     1       1.721   1.007  -1.065  0.00  0.00    -0.090 HD
ATOM     11  H   UNL     1       0.249   1.118  -1.796  0.00  0.00    -0.090 HD
ATOM     12  H   UNL     1       0.446   1.665  -0.255  0.00  0.00    -0.090 HD
ENDBRANCH   8   9
ENDBRANCH   1   8
BRANCH   6  13
ATOM     13  C   UNL     1      -0.711  -2.246   1.395  0.00  0.00    +0.122 C 
BRANCH  13  14
ATOM     14  C   UNL     1      -0.894  -3.740   1.470  0.00  0.00    -0.003 A 
ATOM     15  C   UNL     1       0.208  -4.574   1.428  0.00  0.00    +0.008 A 
ATOM     16  C   UNL     1       0.040  -5.944   1.498  0.00  0.00    +0.020 A 
ATOM     17  C   UNL     1      -1.230  -6.481   1.609  0.00  0.00    +0.043 A 
ATOM     18  C   UNL     1      -2.332  -5.645   1.651  0.00  0.00    +0.053 A 
ATOM     19  C   UNL     1      -2.163  -4.275   1.587  0.00  0.00    +0.132 A 
ATOM     20 CL   UNL     1      -1.441  -8.202   1.696  0.00  0.00    -0.083 Cl
BRANCH  19  21
ATOM     21  N   UNL     1      -3.341  -3.381   1.637  0.00  0.00    +0.057 N 
ATOM     22  O   UNL     1      -4.442  -3.842   1.832  0.00  0.00    -0.126 OA
ATOM     23  O   UNL     1      -3.203  -2.190   1.485  0.00  0.00    -0.126 OA
ENDBRANCH  19  21
ENDBRANCH  13  14
ENDBRANCH   6  13
TORSDOF 5
