REMARK  Name = ZINC39626229
REMARK  11 active torsions:
REMARK  status: ('A' for Active; 'I' for Inactive)
REMARK    1  A    between atoms: C_1  and  C_2
REMARK    2  A    between atoms: C_2  and  C_3
REMARK    3  A    between atoms: C_3  and  C_4
REMARK    4  A    between atoms: C_3  and  C_6
REMARK    5  A    between atoms: C_4  and  C_5
REMARK    6  A    between atoms: C_10  and  C_19
REMARK    7  A    between atoms: N_21  and  C_22
REMARK    8  A    between atoms: C_22  and  C_23
REMARK    9  A    between atoms: C_23  and  N_24
REMARK   10  A    between atoms: N_24  and  C_25
REMARK   11  A    between atoms: N_24  and  C_26
REMARK                            x       y       z     vdW  Elec       q    Type
REMARK                         _______ _______ _______ _____ _____    ______ ____
ROOT
ATOM      1  C   UNL     1       0.557  -1.958  -1.197  0.00  0.00    +0.219 C 
ATOM      2  O   UNL     1      -0.162  -2.511  -0.391  0.00  0.00    -0.275 OA
ATOM      3  N   UNL     1       1.178  -2.679  -2.152  0.00  0.00    -0.300 N 
ATOM      4  C   UNL     1       2.010  -2.177  -3.271  0.00  0.00    +0.121 C 
ATOM      5  C   UNL     1       3.171  -3.192  -3.378  0.00  0.00    +0.100 C 
ATOM      6  C   UNL     1       2.620  -4.485  -2.755  0.00  0.00    -0.004 C 
ATOM      7  C   UNL     1       1.187  -4.152  -2.317  0.00  0.00    +0.115 C 
ATOM      8  C   UNL     1       2.611  -5.607  -3.789  0.00  0.00    -0.010 C 
ATOM      9  C   UNL     1       2.114  -6.897  -3.130  0.00  0.00    -0.082 C 
ATOM     10  N   UNL     1       2.994  -7.247  -2.008  0.00  0.00    +0.379 N 
ATOM     11  C   UNL     1       2.926  -6.205  -0.976  0.00  0.00    -0.082 C 
ATOM     12  C   UNL     1       3.457  -4.886  -1.544  0.00  0.00    -0.010 C 
ATOM     13  H   UNL     1       2.701  -8.128  -1.615  0.00  0.00    -0.086 HD
ATOM     14  H   UNL     1       3.943  -7.328  -2.340  0.00  0.00    -0.086 HD
ENDROOT
BRANCH   5  15
ATOM     15  C   UNL     1       3.539  -3.417  -4.822  0.00  0.00    +0.218 C 
ATOM     16  O   UNL     1       2.714  -3.236  -5.693  0.00  0.00    -0.275 OA
ATOM     17  N   UNL     1       4.783  -3.820  -5.146  0.00  0.00    -0.317 N 
ATOM     18  H   UNL     1       5.443  -3.965  -4.449  0.00  0.00    +0.149 HD
BRANCH  17  19
ATOM     19  C   UNL     1       5.141  -4.039  -6.550  0.00  0.00    +0.085 C 
BRANCH  19  20
ATOM     20  C   UNL     1       6.600  -4.489  -6.640  0.00  0.00    -0.061 C 
BRANCH  20  21
ATOM     21  N   UNL     1       6.959  -4.708  -8.048  0.00  0.00    +0.377 N 
ATOM     22  C   UNL     1       6.899  -3.432  -8.773  0.00  0.00    -0.097 C 
ATOM     23  C   UNL     1       8.320  -5.254  -8.127  0.00  0.00    -0.097 C 
ATOM     24  H   UNL     1       6.310  -5.361  -8.462  0.00  0.00    -0.083 HD
ENDBRANCH  20  21
ENDBRANCH  19  20
ENDBRANCH  17  19
ENDBRANCH   5  15
BRANCH   1  25
ATOM     25  C   UNL     1       0.755  -0.466  -1.130  0.00  0.00    +0.075 C 
BRANCH  25  27
ATOM     26  C   UNL     1      -0.110   1.740  -1.924  0.00  0.00    +0.004 C 
ATOM     27  C   UNL     1      -0.377   0.234  -1.884  0.00  0.00    +0.009 C 
ENDBRANCH  25  27
BRANCH  25  28
ATOM     28  C   UNL     1       0.749  -0.015   0.332  0.00  0.00    +0.009 C 
ATOM     29  C   UNL     1       1.963  -0.606   1.053  0.00  0.00    +0.004 C 
ENDBRANCH  25  28
ENDBRANCH   1  25
TORSDOF 7
