REMARK  Name = ZINC04518783
REMARK  7 active torsions:
REMARK  status: ('A' for Active; 'I' for Inactive)
REMARK    1  A    between atoms: C_1  and  O_2
REMARK    2  A    between atoms: O_2  and  C_3
REMARK    3  A    between atoms: C_6  and  N_11
REMARK    4  A    between atoms: C_8  and  O_9
REMARK    5  A    between atoms: O_9  and  C_10
REMARK    6  A    between atoms: C_14  and  C_24
REMARK    7  A    between atoms: C_16  and  C_18
REMARK                            x       y       z     vdW  Elec       q    Type
REMARK                         _______ _______ _______ _____ _____    ______ ____
ROOT
ATOM      1  N   UNL     1       2.102   0.662  -0.015  0.00  0.00    -0.245 N 
ATOM      2  C   UNL     1       1.323   1.805  -0.001  0.00  0.00    +0.170 A 
ATOM      3  C   UNL     1      -0.017   1.379   0.010  0.00  0.00    +0.117 A 
ATOM      4  C   UNL     1      -1.021   2.346   0.029  0.00  0.00    +0.154 A 
ATOM      5  N   UNL     1      -0.665   3.633   0.030  0.00  0.00    -0.225 NA
ATOM      6  C   UNL     1       0.602   3.986   0.019  0.00  0.00    +0.135 A 
ATOM      7  N   UNL     1       1.583   3.102   0.004  0.00  0.00    -0.212 NA
ATOM      8  N   UNL     1       0.002  -0.004   0.002  0.00  0.00    -0.303 N 
ATOM      9  H   UNL     1      -0.776  -0.583   0.007  0.00  0.00    +0.171 HD
ATOM     10  C   UNL     1       1.287  -0.410  -0.012  0.00  0.00    +0.333 A 
ATOM     11  O   UNL     1       1.655  -1.569  -0.023  0.00  0.00    -0.246 OA
ENDROOT
BRANCH   1  15
ATOM     12  C   UNL     1       6.276   0.560  -0.053  0.00  0.00    +0.162 A 
ATOM     13  C   UNL     1       5.611   1.776  -0.042  0.00  0.00    +0.051 A 
ATOM     14  C   UNL     1       4.230   1.810  -0.029  0.00  0.00    +0.030 A 
ATOM     15  C   UNL     1       3.505   0.626  -0.028  0.00  0.00    +0.057 A 
ATOM     16  C   UNL     1       4.167  -0.594  -0.035  0.00  0.00    +0.075 A 
ATOM     17  C   UNL     1       5.552  -0.628  -0.052  0.00  0.00    +0.163 A 
BRANCH  12  19
ATOM     18  C   UNL     1       8.314   1.785  -0.065  0.00  0.00    +0.277 C 
ATOM     19  O   UNL     1       7.636   0.528  -0.065  0.00  0.00    -0.491 OA
ENDBRANCH  12  19
BRANCH  17  20
ATOM     20  O   UNL     1       6.203  -1.822  -0.064  0.00  0.00    -0.491 OA
ATOM     21  C   UNL     1       5.395  -3.002  -0.062  0.00  0.00    +0.277 C 
ENDBRANCH  17  20
ENDBRANCH   1  15
BRANCH   6  22
ATOM     22  C   UNL     1       0.946   5.453   0.024  0.00  0.00    +0.057 C 
ATOM     23  C   UNL     1       0.373   6.107   1.283  0.00  0.00    +0.011 C 
ATOM     24  C   UNL     1       0.723   7.596   1.288  0.00  0.00    +0.001 C 
ATOM     25  C   UNL     1       0.125   8.265   0.049  0.00  0.00    +0.000 C 
ATOM     26  C   UNL     1       0.698   7.611  -1.210  0.00  0.00    +0.001 C 
ATOM     27  C   UNL     1       0.348   6.121  -1.215  0.00  0.00    +0.011 C 
ENDBRANCH   6  22
BRANCH   4  28
ATOM     28  C   UNL     1      -2.449   1.954   0.048  0.00  0.00    +0.262 C 
ATOM     29  O   UNL     1      -2.757   0.779   0.047  0.00  0.00    -0.269 OA
ATOM     30  N   UNL     1      -3.407   2.902   0.067  0.00  0.00    -0.324 N 
ATOM     31  H   UNL     1      -3.161   3.840   0.069  0.00  0.00    +0.145 HD
ATOM     32  H   UNL     1      -4.343   2.646   0.080  0.00  0.00    +0.145 HD
ENDBRANCH   4  28
TORSDOF 5
