REMARK  Name = ZINC61595698
REMARK  5 active torsions:
REMARK  status: ('A' for Active; 'I' for Inactive)
REMARK    1  A    between atoms: C_3  and  C_19
REMARK    2  A    between atoms: C_6  and  C_7
REMARK    3  A    between atoms: C_7  and  S_8
REMARK    4  A    between atoms: S_8  and  C_9
REMARK    5  A    between atoms: N_15  and  C_16
REMARK                            x       y       z     vdW  Elec       q    Type
REMARK                         _______ _______ _______ _____ _____    ______ ____
ROOT
ATOM      1  C   UNL     1      -0.017   1.379   0.010  0.00  0.00    +0.005 A 
ATOM      2  C   UNL     1       1.167   2.088   0.002  0.00  0.00    +0.011 A 
ATOM      3  C   UNL     1       2.385   1.407  -0.013  0.00  0.00    +0.012 A 
ATOM      4  C   UNL     1       2.397   0.012  -0.021  0.00  0.00    +0.011 A 
ATOM      5  C   UNL     1       1.206  -0.685  -0.013  0.00  0.00    +0.005 A 
ATOM      6  C   UNL     1       0.002  -0.004   0.002  0.00  0.00    -0.037 A 
ENDROOT
BRANCH   3   7
ATOM      7  C   UNL     1       3.658   2.161  -0.022  0.00  0.00    +0.094 C 
ATOM      8  N   UNL     1       4.818   1.508  -0.036  0.00  0.00    -0.387 N 
ATOM      9  N   UNL     1       3.643   3.493  -0.015  0.00  0.00    -0.345 N 
ATOM     10  H   UNL     1       4.829   0.538  -0.041  0.00  0.00    +0.157 HD
ATOM     11  H   UNL     1       2.797   3.968  -0.004  0.00  0.00    +0.144 HD
ATOM     12  H   UNL     1       4.477   3.987  -0.021  0.00  0.00    +0.144 HD
ATOM     13  H   UNL     1       5.652   2.003  -0.042  0.00  0.00    +0.157 HD
ENDBRANCH   3   7
BRANCH   6  14
ATOM     14  C   UNL     1      -1.294  -0.772   0.011  0.00  0.00    +0.112 C 
BRANCH  14  15
ATOM     15  S   UNL     1      -1.832  -1.071  -1.696  0.00  0.00    -0.081 S 
BRANCH  15  16
ATOM     16  C   UNL     1      -3.339  -1.966  -1.518  0.00  0.00    +0.193 A 
ATOM     17  N   UNL     1      -3.894  -2.301  -0.389  0.00  0.00    -0.145 NA
ATOM     18  N   UNL     1      -5.075  -2.999  -0.677  0.00  0.00    -0.226 N 
ATOM     19  H   UNL     1      -5.695  -3.370  -0.029  0.00  0.00    +0.194 HD
ATOM     20  C   UNL     1      -5.191  -3.061  -2.019  0.00  0.00    +0.345 A 
ATOM     21  O   UNL     1      -6.093  -3.594  -2.640  0.00  0.00    -0.245 OA
ATOM     22  N   UNL     1      -4.129  -2.422  -2.549  0.00  0.00    -0.268 N 
BRANCH  22  23
ATOM     23  C   UNL     1      -3.859  -2.246  -3.978  0.00  0.00    +0.094 C 
ATOM     24  C   UNL     1      -4.960  -2.651  -4.960  0.00  0.00    +0.027 C 
ATOM     25  C   UNL     1      -3.700  -3.509  -4.828  0.00  0.00    +0.027 C 
ENDBRANCH  22  23
ENDBRANCH  15  16
ENDBRANCH  14  15
ENDBRANCH   6  14
TORSDOF 5
