REMARK  Name = ZINC20554123
REMARK  5 active torsions:
REMARK  status: ('A' for Active; 'I' for Inactive)
REMARK    1  A    between atoms: C_1  and  C_2
REMARK    2  A    between atoms: C_2  and  C_4
REMARK    3  A    between atoms: C_2  and  N_12
REMARK    4  A    between atoms: N_12  and  C_13
REMARK    5  A    between atoms: C_13  and  C_14
REMARK                            x       y       z     vdW  Elec       q    Type
REMARK                         _______ _______ _______ _____ _____    ______ ____
ROOT
ATOM      1  N   UNL     1      -0.018   1.465   0.010  0.00  0.00    +0.388 N 
ATOM      2  H   UNL     1      -0.469   1.820   0.948  0.00  0.00    -0.084 HD
ATOM      3  H   UNL     1       1.011   1.846  -0.069  0.00  0.00    -0.084 HD
ENDROOT
BRANCH   1   5
ATOM      4  C   UNL     1       1.122  -0.494  -0.918  0.00  0.00    -0.009 C 
ATOM      5  C   UNL     1       0.002  -0.004   0.002  0.00  0.00    -0.043 C 
BRANCH   5   6
ATOM      6  C   UNL     1       0.243  -0.511   1.401  0.00  0.00    -0.060 A 
ATOM      7  C   UNL     1       1.156   0.129   2.219  0.00  0.00    +0.005 A 
ATOM      8  C   UNL     1       1.375  -0.332   3.504  0.00  0.00    +0.040 A 
ATOM      9  C   UNL     1       0.687  -1.440   3.968  0.00  0.00    +0.142 A 
ATOM     10  C   UNL     1      -0.223  -2.083   3.146  0.00  0.00    +0.076 A 
ATOM     11  C   UNL     1      -0.444  -1.618   1.862  0.00  0.00    +0.025 A 
ATOM     12 CL   UNL     1      -1.086  -3.474   3.726  0.00  0.00    -0.081 Cl
ATOM     13  F   UNL     1       0.904  -1.893   5.222  0.00  0.00    -0.204 F 
ENDBRANCH   5   6
ENDBRANCH   1   5
BRANCH   1  14
ATOM     14  C   UNL     1      -0.802   1.987  -1.117  0.00  0.00    -0.004 C 
BRANCH  14  15
ATOM     15  C   UNL     1      -0.799   3.493  -1.076  0.00  0.00    +0.121 A 
ATOM     16  N   UNL     1       0.071   4.282  -1.652  0.00  0.00    -0.136 NA
ATOM     17  N   UNL     1      -0.219   5.513  -1.418  0.00  0.00    -0.129 NA
ATOM     18  C   UNL     1      -1.307   5.576  -0.668  0.00  0.00    +0.161 A 
ATOM     19  N   UNL     1      -1.706   4.282  -0.437  0.00  0.00    -0.288 N 
ATOM     20  C   UNL     1      -2.809   4.024   0.322  0.00  0.00    +0.094 A 
ATOM     21  C   UNL     1      -3.532   5.035   0.847  0.00  0.00    +0.018 A 
ATOM     22  C   UNL     1      -3.152   6.370   0.623  0.00  0.00    +0.005 A 
ATOM     23  C   UNL     1      -2.050   6.642  -0.127  0.00  0.00    +0.048 A 
ENDBRANCH  14  15
ENDBRANCH   1  14
TORSDOF 4
