REMARK  Name = ZINC04617298
REMARK  10 active torsions:
REMARK  status: ('A' for Active; 'I' for Inactive)
REMARK    1  A    between atoms: C_1  and  C_2
REMARK    2  A    between atoms: C_2  and  C_22
REMARK    3  A    between atoms: C_6  and  C_20
REMARK    4  A    between atoms: C_6  and  C_21
REMARK    5  A    between atoms: N_7  and  P_8
REMARK    6  A    between atoms: P_9  and  N_10
REMARK    7  A    between atoms: C_11  and  C_18
REMARK    8  A    between atoms: C_11  and  C_19
REMARK    9  A    between atoms: C_15  and  C_16
REMARK   10  A    between atoms: C_15  and  C_17
REMARK                            x       y       z     vdW  Elec       q    Type
REMARK                         _______ _______ _______ _____ _____    ______ ____
ROOT
ATOM      1  P   UNL     1       1.926  -0.193   2.411  0.00  0.00    -0.128 P 
ATOM      2  P   UNL     1       3.656   0.433   1.848  0.00  0.00    -0.128 P 
ENDROOT
BRANCH   1   9
ATOM      3  C   UNL     1       0.787   3.094   4.041  0.00  0.00    -0.009 C 
ATOM      4  C   UNL     1       0.504   1.592   4.125  0.00  0.00    -0.065 C 
ATOM      5  C   UNL     1      -0.916   1.365   4.652  0.00  0.00    -0.012 C 
ATOM      6  C   UNL     1      -1.925   1.908   3.638  0.00  0.00    -0.003 C 
ATOM      7  C   UNL     1      -1.776   1.155   2.314  0.00  0.00    -0.012 C 
ATOM      8  C   UNL     1      -0.365   1.379   1.760  0.00  0.00    -0.065 C 
ATOM      9  N   UNL     1       0.613   0.995   2.787  0.00  0.00    +0.394 N 
ATOM     10  C   UNL     1      -0.182   2.856   1.405  0.00  0.00    -0.009 C 
ATOM     11  C   UNL     1      -0.162   0.520   0.511  0.00  0.00    -0.009 C 
ATOM     12  C   UNL     1       1.513   0.933   5.068  0.00  0.00    -0.009 C 
ATOM     13  H   UNL     1      -0.184   1.718   3.015  0.00  0.00    -0.073 HD
ENDBRANCH   1   9
BRANCH   2  14
ATOM     14  N   UNL     1       4.969  -0.755   1.472  0.00  0.00    +0.394 N 
ATOM     15  C   UNL     1       5.187  -1.219   0.095  0.00  0.00    -0.065 C 
ATOM     16  C   UNL     1       6.660  -0.986  -0.272  0.00  0.00    -0.012 C 
ATOM     17  C   UNL     1       7.553  -1.665   0.768  0.00  0.00    -0.003 C 
ATOM     18  C   UNL     1       7.296  -1.047   2.145  0.00  0.00    -0.012 C 
ATOM     19  C   UNL     1       5.834  -1.277   2.539  0.00  0.00    -0.065 C 
ATOM     20  C   UNL     1       5.534  -0.544   3.847  0.00  0.00    -0.009 C 
ATOM     21  C   UNL     1       5.580  -2.775   2.717  0.00  0.00    -0.009 C 
ATOM     22  C   UNL     1       4.860  -2.711  -0.000  0.00  0.00    -0.009 C 
ATOM     23  C   UNL     1       4.287  -0.432  -0.860  0.00  0.00    -0.009 C 
ATOM     24  H   UNL     1       5.781  -1.460   1.240  0.00  0.00    -0.073 HD
ENDBRANCH   2  14
TORSDOF 2
