REMARK  Name = ZINC46813608
REMARK  8 active torsions:
REMARK  status: ('A' for Active; 'I' for Inactive)
REMARK    1  A    between atoms: C_1  and  C_2
REMARK    2  A    between atoms: C_3  and  C_12
REMARK    3  A    between atoms: C_12  and  C_13
REMARK    4  A    between atoms: C_13  and  C_14
REMARK    5  A    between atoms: N_20  and  C_23
REMARK    6  A    between atoms: C_23  and  C_24
REMARK    7  A    between atoms: N_26  and  C_27
REMARK    8  A    between atoms: N_26  and  C_28
REMARK                            x       y       z     vdW  Elec       q    Type
REMARK                         _______ _______ _______ _____ _____    ______ ____
ROOT
ATOM      1  C   UNL     1      -4.161   0.101  -1.268  0.00  0.00    +0.216 C 
ATOM      2  O   UNL     1      -4.606   0.547  -0.232  0.00  0.00    -0.276 OA
ATOM      3  N   UNL     1      -4.720   0.447  -2.445  0.00  0.00    -0.303 N 
ATOM      4  C   UNL     1      -4.162  -0.116  -3.691  0.00  0.00    +0.106 C 
ATOM      5  C   UNL     1      -5.282  -0.523  -4.665  0.00  0.00    +0.000 C 
ATOM      6  C   UNL     1      -6.417  -1.156  -3.891  0.00  0.00    -0.077 C 
ATOM      7  N   UNL     1      -7.405  -0.132  -3.560  0.00  0.00    +0.386 N 
ATOM      8  C   UNL     1      -7.167   0.558  -2.351  0.00  0.00    -0.059 C 
ATOM      9  C   UNL     1      -5.849   1.353  -2.442  0.00  0.00    +0.089 C 
ATOM     10  H   UNL     1      -7.429   0.542  -4.311  0.00  0.00    -0.081 HD
ENDROOT
BRANCH   1  11
ATOM     11  C   UNL     1      -2.985  -0.841  -1.241  0.00  0.00    +0.101 C 
BRANCH  11  12
ATOM     12  C   UNL     1      -2.547  -1.067   0.208  0.00  0.00    +0.051 C 
BRANCH  12  15
ATOM     13  C   UNL     1       0.133  -0.039   0.283  0.00  0.00    +0.064 C 
ATOM     14  C   UNL     1      -0.109  -1.526   0.271  0.00  0.00    +0.026 A 
ATOM     15  C   UNL     1      -1.370  -2.008   0.235  0.00  0.00    +0.036 A 
ATOM     16  C   UNL     1      -1.572  -3.409   0.225  0.00  0.00    +0.257 A 
ATOM     17  O   UNL     1      -2.700  -3.867   0.192  0.00  0.00    -0.267 OA
ATOM     18  N   UNL     1      -0.504  -4.232   0.251  0.00  0.00    -0.275 N 
ATOM     19  H   UNL     1      -0.634  -5.193   0.243  0.00  0.00    +0.173 HD
ATOM     20  C   UNL     1       0.742  -3.725   0.286  0.00  0.00    +0.327 A 
ATOM     21  O   UNL     1       1.696  -4.479   0.309  0.00  0.00    -0.247 OA
ATOM     22  N   UNL     1       0.948  -2.395   0.291  0.00  0.00    -0.311 N 
ATOM     23  H   UNL     1       1.854  -2.049   0.313  0.00  0.00    +0.170 HD
ENDBRANCH  12  15
ENDBRANCH  11  12
ENDBRANCH   1  11
BRANCH   7  24
ATOM     24  C   UNL     1      -8.725  -0.771  -3.477  0.00  0.00    +0.019 C 
BRANCH  24  25
ATOM     25  C   UNL     1      -9.133  -1.262  -4.842  0.00  0.00    +0.199 C 
ATOM     26  O   UNL     1      -8.447  -1.004  -5.809  0.00  0.00    -0.278 OA
ATOM     27  N   UNL     1     -10.259  -1.987  -4.989  0.00  0.00    -0.309 N 
ATOM     28  C   UNL     1     -10.655  -2.465  -6.316  0.00  0.00    +0.131 C 
ATOM     29  C   UNL     1     -11.087  -2.299  -3.821  0.00  0.00    +0.131 C 
ENDBRANCH  24  25
ENDBRANCH   7  24
TORSDOF 5
