REMARK  Name = ZINC34925731
REMARK  3 active torsions:
REMARK  status: ('A' for Active; 'I' for Inactive)
REMARK    1  A    between atoms: C_1  and  C_2
REMARK    2  A    between atoms: C_12  and  C_15
REMARK    3  A    between atoms: C_18  and  N_21
REMARK                            x       y       z     vdW  Elec       q    Type
REMARK                         _______ _______ _______ _____ _____    ______ ____
ROOT
ATOM      1  C   UNL     1      -0.018   1.503   0.010  0.00  0.00    +0.068 C 
ATOM      2  C   UNL     1       0.002  -0.004   0.002  0.00  0.00    +0.067 A 
ATOM      3  C   UNL     1      -1.258  -0.748   0.004  0.00  0.00    +0.008 A 
ATOM      4  C   UNL     1      -2.494  -0.099   0.013  0.00  0.00    +0.010 A 
ATOM      5  C   UNL     1      -3.646  -0.834   0.014  0.00  0.00    +0.001 A 
ATOM      6  C   UNL     1      -3.606  -2.222   0.006  0.00  0.00    +0.001 A 
ATOM      7  C   UNL     1      -2.401  -2.891  -0.003  0.00  0.00    +0.012 A 
ATOM      8  C   UNL     1      -1.213  -2.161  -0.004  0.00  0.00    +0.030 A 
ATOM      9  C   UNL     1       0.100  -2.811  -0.015  0.00  0.00    +0.186 A 
ATOM     10  N   UNL     1       0.498  -4.067  -0.024  0.00  0.00    -0.127 NA
ATOM     11  N   UNL     1       1.783  -4.116  -0.031  0.00  0.00    -0.127 NA
ATOM     12  C   UNL     1       2.282  -2.896  -0.026  0.00  0.00    +0.185 A 
ATOM     13  N   UNL     1       1.227  -2.025  -0.016  0.00  0.00    -0.192 N 
ATOM     14  N   UNL     1       1.139  -0.634  -0.012  0.00  0.00    -0.168 NA
ENDROOT
BRANCH  12  15
ATOM     15  C   UNL     1       3.715  -2.535  -0.031  0.00  0.00    +0.021 A 
ATOM     16  C   UNL     1       4.111  -1.236   0.293  0.00  0.00    +0.013 A 
ATOM     17  C   UNL     1       5.448  -0.903   0.289  0.00  0.00    +0.023 A 
ATOM     18  C   UNL     1       6.403  -1.859  -0.039  0.00  0.00    +0.025 A 
ATOM     19  C   UNL     1       6.012  -3.154  -0.363  0.00  0.00    +0.023 A 
ATOM     20  C   UNL     1       4.677  -3.494  -0.355  0.00  0.00    +0.013 A 
BRANCH  18  21
ATOM     21  N   UNL     1       7.757  -1.519  -0.043  0.00  0.00    -0.358 N 
ATOM     22  H   UNL     1       8.030  -0.616   0.182  0.00  0.00    +0.142 HD
ATOM     23  H   UNL     1       8.424  -2.185  -0.272  0.00  0.00    +0.142 HD
ENDBRANCH  18  21
ENDBRANCH  12  15
TORSDOF 2
