REMARK  Name = ZINC62261739
REMARK  4 active torsions:
REMARK  status: ('A' for Active; 'I' for Inactive)
REMARK    1  A    between atoms: C_10  and  N_11
REMARK    2  A    between atoms: C_12  and  C_18
REMARK    3  A    between atoms: C_13  and  C_16
REMARK    4  A    between atoms: C_16  and  N_17
REMARK                            x       y       z     vdW  Elec       q    Type
REMARK                         _______ _______ _______ _____ _____    ______ ____
ROOT
ATOM      1  N   UNL     1       4.912   0.090  -0.302  0.00  0.00    -0.211 N 
ATOM      2  C   UNL     1       6.142  -0.417   0.033  0.00  0.00    +0.102 A 
ATOM      3  C   UNL     1       6.956   0.659   0.248  0.00  0.00    +0.074 A 
ATOM      4  N   UNL     1       6.255   1.772   0.053  0.00  0.00    -0.135 NA
ATOM      5  N   UNL     1       5.045   1.486  -0.278  0.00  0.00    -0.060 NA
ENDROOT
BRANCH   1  15
ATOM      6  C   UNL     1       0.084   0.289   1.162  0.00  0.00    +0.001 A 
ATOM      7  C   UNL     1       1.221   1.028   1.484  0.00  0.00    +0.001 A 
ATOM      8  C   UNL     1       2.426   0.741   0.918  0.00  0.00    +0.010 A 
ATOM      9  C   UNL     1       2.527  -0.312  -0.004  0.00  0.00    +0.008 A 
ATOM     10  C   UNL     1       1.372  -1.064  -0.332  0.00  0.00    -0.016 A 
ATOM     11  C   UNL     1       0.145  -0.739   0.273  0.00  0.00    +0.008 A 
ATOM     12  C   UNL     1       1.472  -2.119  -1.254  0.00  0.00    +0.008 A 
ATOM     13  C   UNL     1       2.673  -2.412  -1.824  0.00  0.00    +0.003 A 
ATOM     14  C   UNL     1       3.815  -1.681  -1.509  0.00  0.00    +0.028 A 
ATOM     15  C   UNL     1       3.759  -0.638  -0.611  0.00  0.00    +0.075 A 
ENDBRANCH   1  15
BRANCH   2  16
ATOM     16  C   UNL     1       6.511  -1.840   0.139  0.00  0.00    +0.039 A 
ATOM     17  C   UNL     1       7.543  -2.512  -0.465  0.00  0.00    +0.018 A 
ATOM     18  C   UNL     1       7.692  -3.858  -0.211  0.00  0.00    +0.008 A 
ATOM     19  C   UNL     1       6.818  -4.475   0.625  0.00  0.00    +0.046 A 
ATOM     20  S   UNL     1       5.737  -3.135   1.094  0.00  0.00    -0.095 S 
ENDBRANCH   2  16
BRANCH   3  21
ATOM     21  C   UNL     1       8.410   0.594   0.641  0.00  0.00    -0.026 C 
BRANCH  21  22
ATOM     22  N   UNL     1       9.243   0.567  -0.568  0.00  0.00    +0.382 N 
ATOM     23  H   UNL     1      10.216   0.523  -0.305  0.00  0.00    -0.090 HD
ATOM     24  H   UNL     1       9.008  -0.244  -1.121  0.00  0.00    -0.090 HD
ATOM     25  H   UNL     1       9.078   1.402  -1.110  0.00  0.00    -0.090 HD
ENDBRANCH  21  22
ENDBRANCH   3  21
TORSDOF 4
