REMARK  Name = ZINC67481926
REMARK  7 active torsions:
REMARK  status: ('A' for Active; 'I' for Inactive)
REMARK    1  A    between atoms: C_4  and  C_7
REMARK    2  A    between atoms: C_7  and  N_8
REMARK    3  A    between atoms: C_12  and  C_14
REMARK    4  A    between atoms: C_14  and  N_15
REMARK    5  A    between atoms: N_18  and  C_19
REMARK    6  A    between atoms: C_19  and  C_20
REMARK    7  A    between atoms: C_19  and  C_23
REMARK                            x       y       z     vdW  Elec       q    Type
REMARK                         _______ _______ _______ _____ _____    ______ ____
ROOT
ATOM      1  N   UNL     1       6.261  -3.192  -2.066  0.00  0.00    -0.301 N 
ATOM      2  C   UNL     1       7.401  -3.113  -1.352  0.00  0.00    +0.301 C 
ATOM      3  O   UNL     1       8.207  -4.023  -1.390  0.00  0.00    -0.253 OA
ATOM      4  N   UNL     1       7.649  -2.025  -0.595  0.00  0.00    -0.281 N 
ATOM      5  H   UNL     1       5.618  -2.466  -2.035  0.00  0.00    +0.150 HD
ATOM      6  H   UNL     1       7.006  -1.300  -0.564  0.00  0.00    +0.151 HD
ENDROOT
BRANCH   1   7
ATOM      7  C   UNL     1       5.992  -4.374  -2.888  0.00  0.00    +0.090 C 
BRANCH   7  12
ATOM      8  N   UNL     1       3.588  -3.943  -2.593  0.00  0.00    +0.383 N 
ATOM      9  C   UNL     1       2.595  -5.036  -2.651  0.00  0.00    -0.078 C 
ATOM     10  C   UNL     1       2.733  -5.620  -4.080  0.00  0.00    -0.020 C 
ATOM     11  C   UNL     1       4.263  -5.521  -4.312  0.00  0.00    -0.016 C 
ATOM     12  C   UNL     1       4.641  -4.211  -3.589  0.00  0.00    -0.051 C 
ATOM     13  H   UNL     1       3.995  -3.905  -1.670  0.00  0.00    -0.081 HD
BRANCH   8  14
ATOM     14  C   UNL     1       2.934  -2.663  -2.897  0.00  0.00    -0.075 C 
BRANCH  14  18
ATOM     15  C   UNL     1       0.987  -0.471   0.285  0.00  0.00    +0.000 C 
ATOM     16  C   UNL     1       1.737  -1.754   0.647  0.00  0.00    +0.000 C 
ATOM     17  C   UNL     1       2.719  -2.104  -0.472  0.00  0.00    +0.002 C 
ATOM     18  C   UNL     1       1.951  -2.313  -1.778  0.00  0.00    -0.028 C 
ATOM     19  C   UNL     1       1.201  -1.030  -2.140  0.00  0.00    +0.002 C 
ATOM     20  C   UNL     1       0.218  -0.680  -1.021  0.00  0.00    +0.000 C 
ENDBRANCH  14  18
ENDBRANCH   8  14
ENDBRANCH   7  12
ENDBRANCH   1   7
BRANCH   4  21
ATOM     21  C   UNL     1       8.888  -1.940   0.181  0.00  0.00    +0.246 C 
BRANCH  21  22
ATOM     22  C   UNL     1       9.231  -0.492   0.422  0.00  0.00    +0.240 C 
ATOM     23  O   UNL     1       8.351   0.342   0.456  0.00  0.00    -0.273 OA
ATOM     24  N   UNL     1      10.515  -0.124   0.599  0.00  0.00    -0.327 N 
ATOM     25  H   UNL     1      11.225  -0.777   0.500  0.00  0.00    +0.145 HD
ATOM     26  H   UNL     1      10.730   0.795   0.826  0.00  0.00    +0.145 HD
ENDBRANCH  21  22
BRANCH  21  27
ATOM     27  C   UNL     1       8.703  -2.639   1.503  0.00  0.00    +0.240 C 
ATOM     28  O   UNL     1       7.588  -2.806   1.949  0.00  0.00    -0.273 OA
ATOM     29  N   UNL     1       9.776  -3.078   2.189  0.00  0.00    -0.327 N 
ATOM     30  H   UNL     1      10.671  -2.881   1.869  0.00  0.00    +0.145 HD
ATOM     31  H   UNL     1       9.655  -3.592   3.003  0.00  0.00    +0.145 HD
ENDBRANCH  21  27
ENDBRANCH   4  21
TORSDOF 7
