REMARK  Name = ZINC41583520
REMARK  4 active torsions:
REMARK  status: ('A' for Active; 'I' for Inactive)
REMARK    1  A    between atoms: C_1  and  C_2
REMARK    2  A    between atoms: C_5  and  O_21
REMARK    3  A    between atoms: C_6  and  C_8
REMARK    4  A    between atoms: O_21  and  C_22
REMARK                            x       y       z     vdW  Elec       q    Type
REMARK                         _______ _______ _______ _____ _____    ______ ____
ROOT
ATOM      1  C   UNL     1       0.052  -2.842   2.466  0.00  0.00    +0.007 A 
ATOM      2  C   UNL     1      -0.989  -2.804   3.333  0.00  0.00    +0.056 A 
ATOM      3  S   UNL     1      -0.451  -3.857   4.663  0.00  0.00    -0.078 S 
ATOM      4  C   UNL     1       1.052  -4.308   4.093  0.00  0.00    +0.094 A 
ATOM      5  C   UNL     1       1.190  -3.671   2.862  0.00  0.00    +0.078 A 
ATOM      6  C   UNL     1       2.456  -3.919   2.143  0.00  0.00    +0.263 A 
ATOM      7  O   UNL     1       2.662  -3.399   1.062  0.00  0.00    -0.267 OA
ATOM      8  N   UNL     1       3.379  -4.726   2.696  0.00  0.00    -0.275 N 
ATOM      9  H   UNL     1       4.210  -4.888   2.223  0.00  0.00    +0.173 HD
ATOM     10  C   UNL     1       3.179  -5.313   3.888  0.00  0.00    +0.328 A 
ATOM     11  O   UNL     1       4.043  -6.035   4.348  0.00  0.00    -0.247 OA
ATOM     12  N   UNL     1       2.047  -5.112   4.588  0.00  0.00    -0.302 N 
ATOM     13  H   UNL     1       1.929  -5.549   5.446  0.00  0.00    +0.171 HD
ENDROOT
BRANCH   1  19
ATOM     14  C   UNL     1      -0.018   1.503   0.010  0.00  0.00    +0.044 C 
ATOM     15  C   UNL     1       0.002  -0.004   0.002  0.00  0.00    -0.050 A 
ATOM     16  C   UNL     1       0.006  -0.687  -1.202  0.00  0.00    +0.007 A 
ATOM     17  C   UNL     1       0.024  -2.069  -1.219  0.00  0.00    +0.046 A 
ATOM     18  C   UNL     1       0.039  -2.778  -0.030  0.00  0.00    +0.128 A 
ATOM     19  C   UNL     1       0.036  -2.091   1.188  0.00  0.00    +0.025 A 
ATOM     20  C   UNL     1       0.023  -0.698   1.195  0.00  0.00    +0.015 A 
BRANCH  18  21
ATOM     21  O   UNL     1       0.057  -4.137  -0.046  0.00  0.00    -0.495 OA
ATOM     22  C   UNL     1       0.058  -4.770  -1.327  0.00  0.00    +0.277 C 
ENDBRANCH  18  21
ENDBRANCH   1  19
TORSDOF 2
