REMARK  Name = ZINC63985331
REMARK  8 active torsions:
REMARK  status: ('A' for Active; 'I' for Inactive)
REMARK    1  A    between atoms: C_4  and  C_7
REMARK    2  A    between atoms: C_8  and  C_9
REMARK    3  A    between atoms: C_9  and  S_10
REMARK    4  A    between atoms: S_10  and  C_11
REMARK    5  A    between atoms: C_15  and  C_18
REMARK    6  A    between atoms: C_18  and  C_20
REMARK    7  A    between atoms: C_18  and  N_30
REMARK    8  A    between atoms: C_20  and  C_21
REMARK                            x       y       z     vdW  Elec       q    Type
REMARK                         _______ _______ _______ _____ _____    ______ ____
ROOT
ATOM      1  C   UNL     1       6.838  -4.489   1.302  0.00  0.00    +0.262 C 
ATOM      2  N   UNL     1       7.906  -3.487   1.043  0.00  0.00    -0.218 NA
ATOM      3  N   UNL     1       8.945  -4.261   0.354  0.00  0.00    -0.228 NA
ATOM      4  C   UNL     1       8.259  -5.434  -0.226  0.00  0.00    +0.188 C 
ATOM      5  O   UNL     1       6.864  -5.317   0.118  0.00  0.00    -0.334 OA
ATOM      6  H   UNL     1       7.565  -2.739   0.459  0.00  0.00    +0.144 HD
ATOM      7  H   UNL     1       9.389  -3.709  -0.365  0.00  0.00    +0.143 HD
ENDROOT
BRANCH   1   8
ATOM      8  S   UNL     1       5.226  -3.676   1.480  0.00  0.00    -0.109 S 
BRANCH   8   9
ATOM      9  C   UNL     1       5.033  -2.743  -0.063  0.00  0.00    +0.100 C 
BRANCH   9  11
ATOM     10  C   UNL     1       3.695  -0.685  -0.038  0.00  0.00    +0.004 C 
ATOM     11  C   UNL     1       3.716  -2.010  -0.046  0.00  0.00    -0.015 C 
BRANCH  10  15
ATOM     12  C   UNL     1      -0.017   1.379   0.010  0.00  0.00    +0.000 A 
ATOM     13  C   UNL     1       1.168   2.093   0.002  0.00  0.00    +0.001 A 
ATOM     14  C   UNL     1       2.377   1.429  -0.013  0.00  0.00    +0.008 A 
ATOM     15  C   UNL     1       2.403   0.034  -0.021  0.00  0.00    -0.025 A 
ATOM     16  C   UNL     1       1.204  -0.681  -0.013  0.00  0.00    +0.008 A 
ATOM     17  C   UNL     1       0.002  -0.004   0.002  0.00  0.00    +0.001 A 
ENDBRANCH  10  15
ENDBRANCH   9  11
ENDBRANCH   8   9
ENDBRANCH   1   8
BRANCH   4  18
ATOM     18  C   UNL     1       8.427  -5.438  -1.747  0.00  0.00    -0.025 C 
BRANCH  18  19
ATOM     19  N   UNL     1       9.856  -5.500  -2.082  0.00  0.00    +0.383 N 
ATOM     20  H   UNL     1       9.966  -5.503  -3.084  0.00  0.00    -0.089 HD
ATOM     21  H   UNL     1      10.327  -4.696  -1.694  0.00  0.00    -0.089 HD
ATOM     22  H   UNL     1      10.256  -6.343  -1.696  0.00  0.00    -0.089 HD
ENDBRANCH  18  19
BRANCH  18  23
ATOM     23  C   UNL     1       7.712  -6.657  -2.335  0.00  0.00    +0.021 C 
BRANCH  23  24
ATOM     24  C   UNL     1       7.772  -6.596  -3.839  0.00  0.00    -0.043 C 
ATOM     25  C   UNL     1       8.679  -7.199  -4.642  0.00  0.00    -0.001 A 
ATOM     26  C   UNL     1       9.837  -8.057  -4.365  0.00  0.00    +0.010 A 
ATOM     27  C   UNL     1      10.574  -8.520  -5.401  0.00  0.00    +0.001 A 
ATOM     28  C   UNL     1      10.260  -8.200  -6.729  0.00  0.00    +0.002 A 
ATOM     29  C   UNL     1       9.212  -7.418  -7.062  0.00  0.00    +0.026 A 
ATOM     30  C   UNL     1       8.368  -6.877  -6.053  0.00  0.00    +0.043 A 
ATOM     31  N   UNL     1       7.311  -6.105  -6.120  0.00  0.00    -0.380 N 
ATOM     32  C   UNL     1       6.827  -5.855  -4.758  0.00  0.00    +0.144 C 
ATOM     33  H   UNL     1       6.912  -5.761  -6.935  0.00  0.00    +0.160 HD
ENDBRANCH  23  24
ENDBRANCH  18  23
ENDBRANCH   4  18
TORSDOF 8
