REMARK  Name = ZINC15523604
REMARK  4 active torsions:
REMARK  status: ('A' for Active; 'I' for Inactive)
REMARK    1  A    between atoms: C_1  and  C_2
REMARK    2  A    between atoms: C_12  and  C_14
REMARK    3  A    between atoms: C_12  and  O_21
REMARK    4  A    between atoms: C_26  and  C_33
REMARK                            x       y       z     vdW  Elec       q    Type
REMARK                         _______ _______ _______ _____ _____    ______ ____
ROOT
ATOM      1  C   UNL     1       6.287   0.465  -2.640  0.00  0.00    +0.012 C 
ATOM      2  C   UNL     1       5.007   0.031  -3.357  0.00  0.00    +0.009 C 
ATOM      3  C   UNL     1       4.882  -1.494  -3.301  0.00  0.00    +0.010 C 
ATOM      4  C   UNL     1       4.757  -1.939  -1.843  0.00  0.00    +0.032 C 
ATOM      5  C   UNL     1       3.911  -3.212  -1.773  0.00  0.00    +0.125 C 
ATOM      6  C   UNL     1       2.467  -2.848  -1.425  0.00  0.00    +0.076 C 
ATOM      7  C   UNL     1       2.277  -2.910   0.093  0.00  0.00    +0.184 C 
ATOM      8  C   UNL     1       2.449  -4.354   0.568  0.00  0.00    +0.111 C 
ATOM      9  C   UNL     1       3.502  -5.053  -0.295  0.00  0.00    +0.190 C 
ATOM     10  O   UNL     1       4.440  -4.085  -0.773  0.00  0.00    -0.344 OA
ATOM     11  O   UNL     1       0.939  -2.450   0.421  0.00  0.00    -0.458 OA
ATOM     12  C   UNL     1       0.747  -1.117   0.501  0.00  0.00    +0.332 C 
ATOM     13  O   UNL     1       1.692  -0.358   0.419  0.00  0.00    -0.246 OA
ATOM     14  C   UNL     1      -0.611  -0.587   0.688  0.00  0.00    +0.090 C 
ATOM     15  C   UNL     1      -0.808   0.723   0.810  0.00  0.00    -0.066 C 
ATOM     16  C   UNL     1       0.359   1.674   0.773  0.00  0.00    +0.035 C 
ATOM     17  C   UNL     1       0.462   2.316  -0.613  0.00  0.00    +0.031 C 
ATOM     18  C   UNL     1       1.662   1.755  -1.332  0.00  0.00    -0.027 C 
ATOM     19  C   UNL     1       2.336   2.500  -2.200  0.00  0.00    -0.005 C 
ATOM     20  C   UNL     1       3.507   1.927  -2.885  0.00  0.00    -0.004 C 
ATOM     21  C   UNL     1       3.813   0.649  -2.678  0.00  0.00    -0.024 C 
ATOM     22  C   UNL     1      -2.208   1.257   0.979  0.00  0.00    +0.039 C 
ENDROOT
BRANCH   9  23
ATOM     23  C   UNL     1       4.234  -6.104   0.542  0.00  0.00    +0.143 C 
ATOM     24  C   UNL     1       5.292  -6.793  -0.344  0.00  0.00    +0.106 C 
ATOM     25  S   UNL     1       4.741  -8.539  -0.245  0.00  0.00    -0.066 S 
ATOM     26  C   UNL     1       3.326  -8.333   0.817  0.00  0.00    +0.272 C 
ATOM     27  O   UNL     1       2.573  -9.202   1.214  0.00  0.00    -0.263 OA
ATOM     28  N   UNL     1       3.262  -7.021   1.089  0.00  0.00    -0.298 N 
ATOM     29  H   UNL     1       2.554  -6.685   1.660  0.00  0.00    +0.150 HD
ENDBRANCH   9  23
BRANCH   9  30
ATOM     30  O   UNL     1       2.864  -5.687  -1.405  0.00  0.00    -0.363 OA
ATOM     31  H   UNL     1       2.157  -6.299  -1.156  0.00  0.00    +0.213 HD
ENDBRANCH   9  30
TORSDOF 2
