REMARK  Name = ZINC37844925
REMARK  4 active torsions:
REMARK  status: ('A' for Active; 'I' for Inactive)
REMARK    1  A    between atoms: C_1  and  N_2
REMARK    2  A    between atoms: C_6  and  C_7
REMARK    3  A    between atoms: N_9  and  C_10
REMARK    4  A    between atoms: C_15  and  N_17
REMARK                            x       y       z     vdW  Elec       q    Type
REMARK                         _______ _______ _______ _____ _____    ______ ____
ROOT
ATOM      1  C   UNL     1      -0.189  -0.374   2.507  0.00  0.00    +0.261 C 
ATOM      2  O   UNL     1      -0.102  -1.183   3.412  0.00  0.00    -0.269 OA
ATOM      3  N   UNL     1      -0.393   0.929   2.785  0.00  0.00    -0.305 N 
ATOM      4  H   UNL     1      -0.537   1.562   2.064  0.00  0.00    +0.149 HD
ENDROOT
BRANCH   1  10
ATOM      5  C   UNL     1       0.070  -3.305   1.538  0.00  0.00    +0.149 C 
ATOM      6  N   UNL     1       0.044  -2.118   0.680  0.00  0.00    -0.345 N 
ATOM      7  C   UNL     1       0.124  -2.119  -0.673  0.00  0.00    +0.101 A 
ATOM      8  C   UNL     1       0.067  -0.840  -1.117  0.00  0.00    +0.036 A 
ATOM      9  C   UNL     1      -0.053  -0.004  -0.001  0.00  0.00    +0.047 A 
ATOM     10  C   UNL     1      -0.071  -0.817   1.113  0.00  0.00    +0.105 A 
ATOM     11 BR   UNL     1       0.137  -0.282  -2.922  0.00  0.00    -0.049 Br
ENDBRANCH   1  10
BRANCH   3  12
ATOM     12  C   UNL     1      -0.399   1.389   4.176  0.00  0.00    +0.096 C 
ATOM     13  C   UNL     1      -1.814   1.246   4.774  0.00  0.00    +0.024 C 
ATOM     14  C   UNL     1      -1.969   2.490   5.684  0.00  0.00    +0.004 C 
ATOM     15  C   UNL     1      -1.256   3.599   4.871  0.00  0.00    +0.027 C 
ATOM     16  C   UNL     1      -0.043   2.885   4.238  0.00  0.00    +0.108 C 
BRANCH  16  17
ATOM     17  N   UNL     1       1.147   3.083   5.068  0.00  0.00    -0.334 N 
ATOM     18  C   UNL     1       1.283   2.744   6.388  0.00  0.00    +0.105 A 
ATOM     19  C   UNL     1       2.529   3.099   6.755  0.00  0.00    +0.101 A 
ATOM     20  N   UNL     1       3.138   3.639   5.689  0.00  0.00    -0.352 N 
ATOM     21  C   UNL     1       2.318   3.628   4.674  0.00  0.00    +0.174 A 
ATOM     22  H   UNL     1       4.046   3.981   5.674  0.00  0.00    +0.166 HD
ENDBRANCH  16  17
ENDBRANCH   3  12
TORSDOF 3
