REMARK  Name = ZINC55161318
REMARK  7 active torsions:
REMARK  status: ('A' for Active; 'I' for Inactive)
REMARK    1  A    between atoms: C_4  and  N_6
REMARK    2  A    between atoms: N_6  and  C_7
REMARK    3  A    between atoms: C_7  and  C_8
REMARK    4  A    between atoms: C_11  and  C_13
REMARK    5  A    between atoms: C_18  and  C_21
REMARK    6  A    between atoms: C_21  and  C_22
REMARK    7  A    between atoms: C_22  and  N_23
REMARK                            x       y       z     vdW  Elec       q    Type
REMARK                         _______ _______ _______ _____ _____    ______ ____
ROOT
ATOM      1  N   UNL     1       1.327  -1.123  -1.912  0.00  0.00    -0.289 N 
ATOM      2  C   UNL     1       1.730  -2.409  -1.964  0.00  0.00    +0.219 C 
ATOM      3  O   UNL     1       1.452  -3.093  -2.926  0.00  0.00    -0.275 OA
ENDROOT
BRANCH   2   4
ATOM      4  C   UNL     1       2.525  -2.996  -0.826  0.00  0.00    +0.075 C 
ATOM      5  C   UNL     1       1.591  -3.289   0.350  0.00  0.00    +0.013 C 
ATOM      6  C   UNL     1       2.398  -3.885   1.506  0.00  0.00    +0.001 C 
ATOM      7  C   UNL     1       3.064  -5.184   1.046  0.00  0.00    +0.003 C 
ATOM      8  C   UNL     1       3.997  -4.890  -0.130  0.00  0.00    -0.012 C 
ATOM      9  C   UNL     1       3.190  -4.294  -1.285  0.00  0.00    +0.016 C 
BRANCH   8  10
ATOM     10  C   UNL     1       4.663  -6.189  -0.590  0.00  0.00    -0.016 C 
BRANCH  10  11
ATOM     11  C   UNL     1       5.569  -6.719   0.523  0.00  0.00    -0.086 C 
BRANCH  11  12
ATOM     12  N   UNL     1       6.208  -7.966   0.082  0.00  0.00    +0.378 N 
ATOM     13  H   UNL     1       6.759  -7.788  -0.744  0.00  0.00    -0.090 HD
ATOM     14  H   UNL     1       6.805  -8.316   0.816  0.00  0.00    -0.090 HD
ATOM     15  H   UNL     1       5.498  -8.652  -0.129  0.00  0.00    -0.090 HD
ENDBRANCH  11  12
ENDBRANCH  10  11
ENDBRANCH   8  10
ENDBRANCH   2   4
BRANCH   1  19
ATOM     16  C   UNL     1       0.456   1.722  -0.076  0.00  0.00    +0.002 C 
ATOM     17  C   UNL     1       1.932   2.112  -0.334  0.00  0.00    +0.002 C 
ATOM     18  C   UNL     1       2.415   1.002  -1.301  0.00  0.00    +0.022 C 
ATOM     19  C   UNL     1       1.724  -0.276  -0.784  0.00  0.00    +0.077 C 
ATOM     20  C   UNL     1       0.478   0.181  -0.005  0.00  0.00    +0.022 C 
ENDBRANCH   1  19
BRANCH   1  21
ATOM     21  C   UNL     1       0.493  -0.573  -2.984  0.00  0.00    +0.203 C 
BRANCH  21  22
ATOM     22  C   UNL     1       1.376   0.009  -4.058  0.00  0.00    +0.228 C 
ATOM     23  O   UNL     1       2.582  -0.031  -3.940  0.00  0.00    -0.274 OA
ATOM     24  N   UNL     1       0.824   0.575  -5.149  0.00  0.00    -0.328 N 
ATOM     25  H   UNL     1      -0.141   0.608  -5.244  0.00  0.00    +0.145 HD
ATOM     26  H   UNL     1       1.392   0.950  -5.841  0.00  0.00    +0.145 HD
ENDBRANCH  21  22
ENDBRANCH   1  21
TORSDOF 7
