REMARK  Name = ZINC12779795
REMARK  13 active torsions:
REMARK  status: ('A' for Active; 'I' for Inactive)
REMARK    1  A    between atoms: C_1  and  C_2
REMARK    2  A    between atoms: C_2  and  C_3
REMARK    3  A    between atoms: C_6  and  C_9
REMARK    4  A    between atoms: C_9  and  C_11
REMARK    5  A    between atoms: C_9  and  N_55
REMARK    6  A    between atoms: C_11  and  N_12
REMARK    7  A    between atoms: C_13  and  C_15
REMARK    8  A    between atoms: C_17  and  S_23
REMARK    9  A    between atoms: C_20  and  O_21
REMARK   10  A    between atoms: O_21  and  C_22
REMARK   11  A    between atoms: S_23  and  N_26
REMARK   12  A    between atoms: C_27  and  N_55
REMARK   13  A    between atoms: C_28  and  N_55
REMARK                            x       y       z     vdW  Elec       q    Type
REMARK                         _______ _______ _______ _____ _____    ______ ____
ROOT
ATOM      1  N   UNL     1      -0.297  -1.328   1.879  0.00  0.00    -0.312 N 
ATOM      2  C   UNL     1      -0.546  -1.588   3.178  0.00  0.00    +0.248 C 
ATOM      3  O   UNL     1      -0.693  -0.671   3.963  0.00  0.00    -0.270 OA
ATOM      4  H   UNL     1      -0.180  -2.059   1.252  0.00  0.00    +0.149 HD
ENDROOT
BRANCH   2   5
ATOM      5  C   UNL     1      -0.639  -2.983   3.647  0.00  0.00    +0.080 A 
ATOM      6  C   UNL     1      -0.476  -4.039   2.747  0.00  0.00    +0.045 A 
ATOM      7  C   UNL     1      -0.560  -5.341   3.192  0.00  0.00    +0.106 A 
ATOM      8  C   UNL     1      -0.815  -5.607   4.528  0.00  0.00    +0.032 A 
ATOM      9  C   UNL     1      -0.984  -4.573   5.427  0.00  0.00    +0.048 A 
ATOM     10  C   UNL     1      -0.897  -3.257   4.997  0.00  0.00    +0.132 A 
BRANCH   7  11
ATOM     11  S   UNL     1      -0.348  -6.671   2.057  0.00  0.00    +0.056 S 
ATOM     12  O   UNL     1       0.420  -6.163   0.975  0.00  0.00    -0.153 OA
ATOM     13  O   UNL     1       0.063  -7.796   2.822  0.00  0.00    -0.153 OA
BRANCH  11  14
ATOM     14  N   UNL     1      -1.843  -7.036   1.446  0.00  0.00    -0.204 NA
ATOM     15  H   UNL     1      -2.622  -6.536   1.737  0.00  0.00    +0.144 HD
ATOM     16  H   UNL     1      -1.941  -7.750   0.796  0.00  0.00    +0.144 HD
ENDBRANCH  11  14
ENDBRANCH   7  11
BRANCH  10  17
ATOM     17  O   UNL     1      -1.062  -2.240   5.879  0.00  0.00    -0.494 OA
ATOM     18  C   UNL     1      -1.323  -2.596   7.238  0.00  0.00    +0.277 C 
ENDBRANCH  10  17
ENDBRANCH   2   5
BRANCH   1  19
ATOM     19  C   UNL     1      -0.205   0.058   1.413  0.00  0.00    +0.094 C 
BRANCH  19  20
ATOM     20  C   UNL     1      -0.040   0.074  -0.108  0.00  0.00    -0.021 C 
BRANCH  20  24
ATOM     21  C   UNL     1       0.011   4.116  -1.490  0.00  0.00    -0.048 A 
ATOM     22  C   UNL     1       1.180   3.379  -1.467  0.00  0.00    +0.004 A 
ATOM     23  C   UNL     1       1.163   2.071  -1.019  0.00  0.00    +0.002 A 
ATOM     24  C   UNL     1      -0.022   1.500  -0.595  0.00  0.00    -0.059 A 
ATOM     25  C   UNL     1      -1.192   2.236  -0.624  0.00  0.00    +0.002 A 
ATOM     26  C   UNL     1      -1.175   3.545  -1.066  0.00  0.00    +0.004 A 
BRANCH  21  28
ATOM     27  C   UNL     1      -0.227   5.567  -3.487  0.00  0.00    +0.009 C 
ATOM     28  C   UNL     1       0.028   5.542  -1.979  0.00  0.00    +0.032 C 
ENDBRANCH  21  28
ENDBRANCH  20  24
BRANCH  20  31
ATOM     29  C   UNL     1      -2.376  -0.531   0.089  0.00  0.00    -0.096 C 
ATOM     30  C   UNL     1      -1.403  -0.158  -2.096  0.00  0.00    -0.096 C 
ATOM     31  N   UNL     1      -1.155  -0.669  -0.731  0.00  0.00    +0.382 N 
ATOM     32  H   UNL     1      -0.902  -1.663  -0.789  0.00  0.00    -0.082 HD
ENDBRANCH  20  31
ENDBRANCH  19  20
ENDBRANCH   1  19
TORSDOF 9
