REMARK  Name = ZINC51270935
REMARK  10 active torsions:
REMARK  status: ('A' for Active; 'I' for Inactive)
REMARK    1  A    between atoms: C_1  and  C_2
REMARK    2  A    between atoms: C_2  and  C_3
REMARK    3  A    between atoms: C_3  and  C_4
REMARK    4  A    between atoms: C_4  and  C_6
REMARK    5  A    between atoms: C_4  and  N_7
REMARK    6  A    between atoms: C_8  and  C_10
REMARK    7  A    between atoms: N_19  and  C_20
REMARK    8  A    between atoms: C_20  and  C_21
REMARK    9  A    between atoms: N_27  and  C_28
REMARK   10  A    between atoms: N_27  and  C_29
REMARK                            x       y       z     vdW  Elec       q    Type
REMARK                         _______ _______ _______ _____ _____    ______ ____
ROOT
ATOM      1  C   UNL     1      -2.327  -4.292   1.026  0.00  0.00    +0.092 C 
ATOM      2  C   UNL     1      -2.412  -5.693   0.416  0.00  0.00    +0.016 C 
ATOM      3  C   UNL     1      -3.848  -6.212   0.524  0.00  0.00    +0.020 C 
ATOM      4  C   UNL     1      -4.245  -6.302   2.000  0.00  0.00    +0.109 C 
ATOM      5  N   UNL     1      -4.027  -4.992   2.630  0.00  0.00    -0.285 N 
ATOM      6  C   UNL     1      -2.707  -4.360   2.508  0.00  0.00    +0.122 C 
ATOM      7  C   UNL     1      -5.021  -4.381   3.305  0.00  0.00    +0.302 C 
ATOM      8  O   UNL     1      -4.804  -3.342   3.898  0.00  0.00    -0.253 OA
ATOM      9  N   UNL     1      -6.256  -4.922   3.322  0.00  0.00    -0.295 N 
ATOM     10  H   UNL     1      -6.412  -5.787   2.912  0.00  0.00    +0.151 HD
ENDROOT
BRANCH   1  12
ATOM     11  N   UNL     1      -0.607  -2.546   1.362  0.00  0.00    -0.312 N 
ATOM     12  C   UNL     1      -0.920  -3.769   0.891  0.00  0.00    +0.218 C 
ATOM     13  O   UNL     1      -0.069  -4.449   0.358  0.00  0.00    -0.275 OA
ATOM     14  H   UNL     1      -1.288  -2.002   1.788  0.00  0.00    +0.149 HD
BRANCH  11  15
ATOM     15  C   UNL     1       0.760  -2.038   1.230  0.00  0.00    +0.070 C 
ATOM     16  C   UNL     1       1.607  -2.543   2.400  0.00  0.00    +0.028 C 
BRANCH  15  17
ATOM     17  C   UNL     1       0.739  -0.508   1.240  0.00  0.00    +0.022 C 
BRANCH  17  19
ATOM     18  C   UNL     1      -0.023   1.530   0.011  0.00  0.00    +0.004 C 
ATOM     19  C   UNL     1      -0.002  -0.000   0.001  0.00  0.00    -0.002 C 
ENDBRANCH  17  19
ENDBRANCH  15  17
ENDBRANCH  11  15
ENDBRANCH   1  12
BRANCH   9  20
ATOM     20  C   UNL     1      -7.361  -4.204   3.962  0.00  0.00    +0.142 C 
BRANCH  20  21
ATOM     21  C   UNL     1      -8.624  -5.018   3.845  0.00  0.00    -0.014 A 
ATOM     22  C   UNL     1      -9.460  -4.862   2.747  0.00  0.00    +0.010 A 
ATOM     23  C   UNL     1     -10.609  -5.629   2.678  0.00  0.00    +0.042 A 
ATOM     24  C   UNL     1     -10.886  -6.526   3.705  0.00  0.00    +0.098 A 
ATOM     25  N   UNL     1     -10.064  -6.645   4.735  0.00  0.00    -0.349 N 
ATOM     26  C   UNL     1      -8.958  -5.931   4.825  0.00  0.00    +0.089 A 
ATOM     27  N   UNL     1     -12.038  -7.302   3.649  0.00  0.00    -0.323 N 
ATOM     28  C   UNL     1     -12.953  -7.175   2.511  0.00  0.00    +0.130 C 
ATOM     29  C   UNL     1     -12.337  -8.248   4.727  0.00  0.00    +0.130 C 
ATOM     30  H   UNL     1     -10.278  -7.276   5.440  0.00  0.00    +0.167 HD
ENDBRANCH  20  21
ENDBRANCH   9  20
TORSDOF 6
