REMARK  Name = ZINC65529804
REMARK  10 active torsions:
REMARK  status: ('A' for Active; 'I' for Inactive)
REMARK    1  A    between atoms: C_1  and  C_2
REMARK    2  A    between atoms: C_2  and  C_3
REMARK    3  A    between atoms: C_6  and  S_9
REMARK    4  A    between atoms: S_9  and  C_10
REMARK    5  A    between atoms: C_10  and  C_11
REMARK    6  A    between atoms: N_13  and  C_14
REMARK    7  A    between atoms: C_14  and  C_15
REMARK    8  A    between atoms: C_15  and  C_16
REMARK    9  A    between atoms: C_22  and  C_27
REMARK   10  A    between atoms: C_23  and  C_26
REMARK                            x       y       z     vdW  Elec       q    Type
REMARK                         _______ _______ _______ _____ _____    ______ ____
ROOT
ATOM      1  C   UNL     1       9.093  -2.450  -1.830  0.00  0.00    +0.108 C 
ENDROOT
BRANCH   1   4
ATOM      2  C   UNL     1       6.791  -2.510  -2.629  0.00  0.00    +0.223 C 
ATOM      3  O   UNL     1       7.193  -3.009  -3.659  0.00  0.00    -0.275 OA
ATOM      4  N   UNL     1       7.662  -2.193  -1.650  0.00  0.00    -0.314 N 
ATOM      5  H   UNL     1       7.341  -1.794  -0.826  0.00  0.00    +0.149 HD
BRANCH   2   6
ATOM      6  C   UNL     1       5.319  -2.246  -2.443  0.00  0.00    +0.173 C 
BRANCH   6   7
ATOM      7  S   UNL     1       4.418  -2.778  -3.925  0.00  0.00    -0.077 S 
BRANCH   7  11
ATOM      8  C   UNL     1       0.962  -1.730  -2.512  0.00  0.00    +0.152 A 
ATOM      9  N   UNL     1       2.287  -1.866  -2.443  0.00  0.00    -0.206 NA
ATOM     10  H   UNL     1       1.695  -3.016  -5.254  0.00  0.00    +0.191 HD
ATOM     11  C   UNL     1       2.735  -2.408  -3.556  0.00  0.00    +0.185 A 
ATOM     12  N   UNL     1       1.677  -2.627  -4.365  0.00  0.00    -0.254 N 
ATOM     13  N   UNL     1       0.544  -2.185  -3.663  0.00  0.00    -0.157 NA
BRANCH   8  15
ATOM     14  C   UNL     1      -0.046   0.360  -1.638  0.00  0.00    +0.012 C 
ATOM     15  C   UNL     1       0.086  -1.150  -1.432  0.00  0.00    +0.075 C 
ENDBRANCH   8  15
ENDBRANCH   7  11
ENDBRANCH   6   7
ENDBRANCH   2   6
ENDBRANCH   1   4
BRANCH   1  16
ATOM     16  C   UNL     1       9.853  -2.001  -0.580  0.00  0.00    +0.065 C 
BRANCH  16  17
ATOM     17  C   UNL     1      11.347  -2.269  -0.769  0.00  0.00    +0.175 C 
ATOM     18  N   UNL     1      11.887  -1.399  -1.821  0.00  0.00    -0.363 N 
ATOM     19  C   UNL     1      12.809  -0.657  -1.279  0.00  0.00    +0.060 A 
ATOM     20  C   UNL     1      13.692   0.389  -1.814  0.00  0.00    +0.027 A 
ATOM     21  C   UNL     1      14.571   1.000  -0.995  0.00  0.00    +0.006 A 
ATOM     22  C   UNL     1      14.686   0.679   0.369  0.00  0.00    -0.045 A 
ATOM     23  C   UNL     1      13.925  -0.263   0.960  0.00  0.00    -0.023 A 
ATOM     24  C   UNL     1      12.930  -0.996   0.165  0.00  0.00    +0.063 A 
ATOM     25  N   UNL     1      12.078  -1.937   0.461  0.00  0.00    -0.363 N 
ATOM     26  C   UNL     1      14.093  -0.563   2.428  0.00  0.00    +0.046 C 
ATOM     27  C   UNL     1      15.700   1.418   1.203  0.00  0.00    +0.044 C 
ATOM     28  H   UNL     1      11.949  -2.342   1.333  0.00  0.00    +0.162 HD
ATOM     29  H   UNL     1      11.608  -1.381  -2.750  0.00  0.00    +0.162 HD
ENDBRANCH  16  17
ENDBRANCH   1  16
TORSDOF 7
