REMARK  Name = ZINC16855265
REMARK  0 active torsions:
REMARK  status: ('A' for Active; 'I' for Inactive)
REMARK                            x       y       z     vdW  Elec       q    Type
REMARK                         _______ _______ _______ _____ _____    ______ ____
ROOT
ATOM      1  C   UNL     1      -0.013   1.076   0.008  0.00  0.00    +0.120 A 
ATOM      2  C   UNL     1       1.142   1.785   0.001  0.00  0.00    +0.068 A 
ATOM      3  S   UNL     1       0.507   3.455   0.015  0.00  0.00    -0.061 S 
ATOM      4  C   UNL     1      -1.183   3.054   0.029  0.00  0.00    +0.164 A 
ATOM      5  N   UNL     1      -1.155   1.735   0.017  0.00  0.00    -0.233 NA
ATOM      6  N   UNL     1      -2.281   3.903   0.043  0.00  0.00    -0.264 N 
ATOM      7  C   UNL     1      -3.550   3.383   0.053  0.00  0.00    +0.202 A 
ATOM      8  N   UNL     1      -4.619   4.225   0.067  0.00  0.00    -0.295 N 
ATOM      9  H   UNL     1      -4.485   5.186   0.068  0.00  0.00    +0.172 HD
ATOM     10  C   UNL     1      -5.867   3.714   0.079  0.00  0.00    +0.256 A 
ATOM     11  O   UNL     1      -6.838   4.452   0.090  0.00  0.00    -0.267 OA
ATOM     12  C   UNL     1      -6.034   2.312   0.079  0.00  0.00    +0.038 A 
ATOM     13  C   UNL     1      -4.932   1.520   0.058  0.00  0.00    +0.053 A 
ATOM     14  N   UNL     1      -3.716   2.079   0.042  0.00  0.00    -0.220 NA
ATOM     15  C   UNL     1      -5.012   0.016   0.043  0.00  0.00    +0.056 C 
ATOM     16  C   UNL     1      -6.393  -0.453   0.497  0.00  0.00    +0.006 C 
ATOM     17  C   UNL     1      -7.452   0.300  -0.317  0.00  0.00    +0.005 C 
ATOM     18  C   UNL     1      -7.436   1.766   0.113  0.00  0.00    +0.042 C 
ATOM     19  H   UNL     1      -2.151   4.865   0.047  0.00  0.00    +0.157 HD
ENDROOT
TORSDOF 0
