REMARK  Name = ZINC00802654
REMARK  8 active torsions:
REMARK  status: ('A' for Active; 'I' for Inactive)
REMARK    1  A    between atoms: C_1  and  O_2
REMARK    2  A    between atoms: O_2  and  C_3
REMARK    3  A    between atoms: C_7  and  C_11
REMARK    4  A    between atoms: C_8  and  O_9
REMARK    5  A    between atoms: O_9  and  C_10
REMARK    6  A    between atoms: C_24  and  C_26
REMARK    7  A    between atoms: C_26  and  O_28
REMARK    8  A    between atoms: O_28  and  C_29
REMARK                            x       y       z     vdW  Elec       q    Type
REMARK                         _______ _______ _______ _____ _____    ______ ____
ROOT
ATOM      1  C   UNL     1       3.613   4.898  -0.013  0.00  0.00    +0.012 C 
ATOM      2  C   UNL     1       2.986   3.529   0.124  0.00  0.00    +0.010 A 
ATOM      3  C   UNL     1       1.652   3.333   0.156  0.00  0.00    -0.021 A 
ATOM      4  C   UNL     1       1.425   1.901   0.292  0.00  0.00    +0.003 A 
ATOM      5  C   UNL     1       0.287   1.094   0.378  0.00  0.00    +0.010 A 
ATOM      6  C   UNL     1       0.420  -0.259   0.506  0.00  0.00    +0.001 A 
ATOM      7  C   UNL     1       1.679  -0.843   0.551  0.00  0.00    +0.002 A 
ATOM      8  C   UNL     1       2.815  -0.068   0.467  0.00  0.00    +0.026 A 
ATOM      9  C   UNL     1       2.704   1.312   0.336  0.00  0.00    +0.047 A 
ATOM     10  N   UNL     1       3.627   2.330   0.231  0.00  0.00    -0.359 N 
ATOM     11  H   UNL     1       4.590   2.211   0.234  0.00  0.00    +0.166 HD
ATOM     12  C   UNL     1       0.640   4.446   0.065  0.00  0.00    +0.033 C 
ATOM     13  C   UNL     1       1.369   5.770   0.330  0.00  0.00    +0.045 C 
ATOM     14  N   UNL     1       2.585   5.842  -0.507  0.00  0.00    +0.396 N 
ATOM     15  H   UNL     1       2.343   5.602  -1.475  0.00  0.00    -0.083 HD
ATOM     16  H   UNL     1       2.961   6.797  -0.475  0.00  0.00    -0.083 HD
ENDROOT
BRANCH   1  21
ATOM     17  C   UNL     1       6.746   5.790  -1.941  0.00  0.00    +0.162 A 
ATOM     18  C   UNL     1       6.834   4.725  -2.823  0.00  0.00    +0.049 A 
ATOM     19  C   UNL     1       5.882   3.723  -2.794  0.00  0.00    +0.004 A 
ATOM     20  C   UNL     1       4.845   3.777  -1.882  0.00  0.00    +0.006 A 
ATOM     21  C   UNL     1       4.748   4.839  -1.002  0.00  0.00    -0.010 A 
ATOM     22  C   UNL     1       5.699   5.847  -1.026  0.00  0.00    +0.163 A 
BRANCH  17  24
ATOM     23  C   UNL     1       8.728   6.652  -2.933  0.00  0.00    +0.277 C 
ATOM     24  O   UNL     1       7.682   6.777  -1.968  0.00  0.00    -0.491 OA
ENDBRANCH  17  24
BRANCH  22  25
ATOM     25  O   UNL     1       5.609   6.889  -0.158  0.00  0.00    -0.491 OA
ATOM     26  C   UNL     1       6.362   6.792   1.053  0.00  0.00    +0.277 C 
ENDBRANCH  22  25
ENDBRANCH   1  21
BRANCH  13  27
ATOM     27  C   UNL     1       0.463   6.922  -0.020  0.00  0.00    +0.293 C 
ATOM     28  O   UNL     1       0.593   7.494  -1.076  0.00  0.00    -0.253 OA
BRANCH  27  29
ATOM     29  O   UNL     1      -0.489   7.313   0.842  0.00  0.00    -0.469 OA
ATOM     30  C   UNL     1      -1.325   8.430   0.439  0.00  0.00    +0.280 C 
ENDBRANCH  27  29
ENDBRANCH  13  27
TORSDOF 5
