REMARK  Name = ZINC50092895
REMARK  7 active torsions:
REMARK  status: ('A' for Active; 'I' for Inactive)
REMARK    1  A    between atoms: C_1  and  C_2
REMARK    2  A    between atoms: C_7  and  C_9
REMARK    3  A    between atoms: C_7  and  N_11
REMARK    4  A    between atoms: C_9  and  N_10
REMARK    5  A    between atoms: N_11  and  C_12
REMARK    6  A    between atoms: N_11  and  S_13
REMARK    7  A    between atoms: S_13  and  N_16
REMARK                            x       y       z     vdW  Elec       q    Type
REMARK                         _______ _______ _______ _____ _____    ______ ____
ROOT
ATOM      1  C   UNL     1      -0.640   1.083  -0.231  0.00  0.00    +0.007 C 
ATOM      2  C   UNL     1      -0.305  -0.404  -0.371  0.00  0.00    -0.012 C 
ATOM      3  C   UNL     1      -1.596  -1.202  -0.564  0.00  0.00    +0.003 C 
ATOM      4  C   UNL     1      -1.262  -2.688  -0.705  0.00  0.00    +0.002 C 
ATOM      5  C   UNL     1      -0.547  -3.171   0.559  0.00  0.00    +0.022 C 
ATOM      6  C   UNL     1       0.744  -2.373   0.752  0.00  0.00    +0.029 C 
ATOM      7  C   UNL     1       0.409  -0.887   0.892  0.00  0.00    +0.025 C 
ENDROOT
BRANCH   6   8
ATOM      8  N   UNL     1       1.617  -2.570  -0.408  0.00  0.00    -0.165 NA
ATOM      9  C   UNL     1       1.225  -3.498  -1.471  0.00  0.00    +0.133 C 
BRANCH   8  10
ATOM     10  S   UNL     1       3.047  -1.742  -0.517  0.00  0.00    +0.100 S 
ATOM     11  O   UNL     1       3.263  -1.483  -1.897  0.00  0.00    -0.141 OA
ATOM     12  O   UNL     1       2.992  -0.706   0.453  0.00  0.00    -0.141 OA
BRANCH  10  13
ATOM     13  N   UNL     1       4.249  -2.776  -0.037  0.00  0.00    -0.166 NA
ATOM     14  C   UNL     1       4.787  -2.890   1.327  0.00  0.00    +0.110 C 
ATOM     15  C   UNL     1       5.902  -3.957   1.292  0.00  0.00    +0.018 C 
ATOM     16  C   UNL     1       6.314  -3.979  -0.204  0.00  0.00    +0.018 C 
ATOM     17  C   UNL     1       4.951  -3.739  -0.904  0.00  0.00    +0.110 C 
ENDBRANCH  10  13
ENDBRANCH   8  10
ENDBRANCH   6   8
BRANCH   6  18
ATOM     18  C   UNL     1       1.458  -2.857   2.016  0.00  0.00    -0.062 C 
BRANCH  18  19
ATOM     19  N   UNL     1       1.715  -4.299   1.912  0.00  0.00    +0.379 N 
ATOM     20  H   UNL     1       2.140  -4.628   2.766  0.00  0.00    -0.090 HD
ATOM     21  H   UNL     1       0.844  -4.786   1.762  0.00  0.00    -0.090 HD
ATOM     22  H   UNL     1       2.337  -4.475   1.137  0.00  0.00    -0.090 HD
ENDBRANCH  18  19
ENDBRANCH   6  18
TORSDOF 5
