REMARK  Name = ZINC64713602
REMARK  11 active torsions:
REMARK  status: ('A' for Active; 'I' for Inactive)
REMARK    1  A    between atoms: C_1  and  C_2
REMARK    2  A    between atoms: C_6  and  C_24
REMARK    3  A    between atoms: C_7  and  C_8
REMARK    4  A    between atoms: C_8  and  C_9
REMARK    5  A    between atoms: C_9  and  C_10
REMARK    6  A    between atoms: N_12  and  C_13
REMARK    7  A    between atoms: C_13  and  C_14
REMARK    8  A    between atoms: C_14  and  C_15
REMARK    9  A    between atoms: N_25  and  C_28
REMARK   10  A    between atoms: C_28  and  C_29
REMARK   11  A    between atoms: C_28  and  C_30
REMARK                            x       y       z     vdW  Elec       q    Type
REMARK                         _______ _______ _______ _____ _____    ______ ____
ROOT
ATOM      1  C   UNL     1       0.025  -0.009   2.518  0.00  0.00    +0.046 C 
ENDROOT
BRANCH   1   8
ATOM      2  C   UNL     1      -0.018   1.503   0.010  0.00  0.00    +0.044 C 
ATOM      3  C   UNL     1       0.002  -0.004   0.002  0.00  0.00    -0.038 A 
ATOM      4  C   UNL     1       0.006  -0.704  -1.184  0.00  0.00    +0.010 A 
ATOM      5  C   UNL     1       0.026  -2.095  -1.175  0.00  0.00    +0.118 A 
ATOM      6  N   UNL     1       0.040  -2.743  -0.014  0.00  0.00    -0.346 N 
ATOM      7  C   UNL     1       0.036  -2.103   1.138  0.00  0.00    +0.018 A 
ATOM      8  C   UNL     1       0.023  -0.724   1.191  0.00  0.00    -0.025 A 
ATOM      9  C   UNL     1       0.052  -2.893   2.422  0.00  0.00    +0.063 C 
ATOM     10  N   UNL     1       0.026  -2.568  -2.480  0.00  0.00    -0.249 N 
ATOM     11  N   UNL     1       0.007  -1.552  -3.387  0.00  0.00    -0.234 NA
ATOM     12  C   UNL     1      -0.007  -0.283  -2.633  0.00  0.00    +0.141 C 
ATOM     13  H   UNL     1       0.808  -1.599  -4.000  0.00  0.00    +0.145 HD
ATOM     14  H   UNL     1       0.053  -3.712  -0.015  0.00  0.00    +0.167 HD
BRANCH  10  15
ATOM     15  C   UNL     1       0.044  -3.988  -2.839  0.00  0.00    +0.086 C 
ATOM     16  C   UNL     1      -1.204  -4.324  -3.657  0.00  0.00    +0.029 C 
ATOM     17  C   UNL     1       1.294  -4.288  -3.669  0.00  0.00    +0.029 C 
ENDBRANCH  10  15
ENDBRANCH   1   8
BRANCH   1  18
ATOM     18  C   UNL     1      -1.416   0.213   2.981  0.00  0.00    +0.100 C 
BRANCH  18  19
ATOM     19  C   UNL     1      -1.414   0.927   4.307  0.00  0.00    +0.213 C 
ATOM     20  O   UNL     1      -0.363   1.230   4.832  0.00  0.00    -0.276 OA
ATOM     21  N   UNL     1      -2.580   1.231   4.911  0.00  0.00    -0.315 N 
ATOM     22  H   UNL     1      -3.421   0.989   4.492  0.00  0.00    +0.149 HD
BRANCH  21  23
ATOM     23  C   UNL     1      -2.578   1.925   6.201  0.00  0.00    +0.108 C 
BRANCH  23  24
ATOM     24  C   UNL     1      -4.019   2.147   6.663  0.00  0.00    +0.052 C 
BRANCH  24  25
ATOM     25  C   UNL     1      -4.017   2.862   7.990  0.00  0.00    -0.040 C 
ATOM     26  C   UNL     1      -4.133   4.194   8.197  0.00  0.00    -0.001 A 
ATOM     27  C   UNL     1      -4.290   5.332   7.283  0.00  0.00    +0.010 A 
ATOM     28  C   UNL     1      -4.381   6.579   7.798  0.00  0.00    +0.001 A 
ATOM     29  C   UNL     1      -4.330   6.811   9.180  0.00  0.00    +0.002 A 
ATOM     30  C   UNL     1      -4.188   5.817  10.082  0.00  0.00    +0.026 A 
ATOM     31  C   UNL     1      -4.082   4.465   9.651  0.00  0.00    +0.043 A 
ATOM     32  N   UNL     1      -3.940   3.346  10.318  0.00  0.00    -0.380 N 
ATOM     33  C   UNL     1      -3.891   2.235   9.361  0.00  0.00    +0.144 C 
ATOM     34  H   UNL     1      -3.881   3.265  11.283  0.00  0.00    +0.160 HD
ENDBRANCH  24  25
ENDBRANCH  23  24
ENDBRANCH  21  23
ENDBRANCH  18  19
ENDBRANCH   1  18
TORSDOF 7
