REMARK  Name = ZINC45665702
REMARK  3 active torsions:
REMARK  status: ('A' for Active; 'I' for Inactive)
REMARK    1  A    between atoms: C_3  and  N_20
REMARK    2  A    between atoms: C_6  and  N_7
REMARK    3  A    between atoms: N_10  and  C_11
REMARK                            x       y       z     vdW  Elec       q    Type
REMARK                         _______ _______ _______ _____ _____    ______ ____
ROOT
ATOM      1  N   UNL     1      -1.202  -0.742   0.008  0.00  0.00    -0.268 N 
ATOM      2  C   UNL     1      -0.977  -2.066   0.114  0.00  0.00    +0.305 C 
ATOM      3  O   UNL     1       0.157  -2.480   0.265  0.00  0.00    -0.252 OA
ATOM      4  N   UNL     1      -2.008  -2.932   0.052  0.00  0.00    -0.288 N 
ATOM      5  H   UNL     1      -2.111  -0.406  -0.032  0.00  0.00    +0.156 HD
ATOM      6  H   UNL     1      -2.912  -2.602  -0.069  0.00  0.00    +0.151 HD
ENDROOT
BRANCH   4   7
ATOM      7  C   UNL     1      -1.763  -4.372   0.167  0.00  0.00    +0.160 C 
ATOM      8  C   UNL     1      -3.028  -5.069   0.674  0.00  0.00    +0.032 C 
ATOM      9  C   UNL     1      -2.681  -6.376   1.365  0.00  0.00    +0.004 C 
ATOM     10  C   UNL     1      -2.116  -7.431   0.432  0.00  0.00    +0.019 C 
ATOM     11  C   UNL     1      -0.745  -7.011  -0.101  0.00  0.00    +0.104 C 
ATOM     12  N   UNL     1      -0.940  -6.181  -1.301  0.00  0.00    -0.314 N 
ATOM     13  C   UNL     1      -1.409  -4.938  -1.192  0.00  0.00    +0.233 C 
ATOM     14  O   UNL     1      -1.558  -4.260  -2.186  0.00  0.00    -0.274 OA
ATOM     15  H   UNL     1      -0.723  -6.539  -2.175  0.00  0.00    +0.149 HD
ENDBRANCH   4   7
BRANCH   1  21
ATOM     16  C   UNL     1       1.063  -0.213  -0.682  0.00  0.00    +0.028 A 
ATOM     17  C   UNL     1       2.103   0.699  -0.711  0.00  0.00    +0.043 A 
ATOM     18  C   UNL     1       1.932   1.941  -0.108  0.00  0.00    +0.099 A 
ATOM     19  N   UNL     1       0.792   2.252   0.488  0.00  0.00    -0.348 N 
ATOM     20  C   UNL     1      -0.220   1.407   0.535  0.00  0.00    +0.107 A 
ATOM     21  C   UNL     1      -0.122   0.151  -0.045  0.00  0.00    +0.051 A 
ATOM     22  H   UNL     1       0.698   3.125   0.902  0.00  0.00    +0.167 HD
BRANCH  18  23
ATOM     23  N   UNL     1       2.972   2.866  -0.131  0.00  0.00    -0.312 N 
ATOM     24  C   UNL     1       2.787   4.228   0.395  0.00  0.00    +0.134 C 
ATOM     25  C   UNL     1       3.933   4.530   1.367  0.00  0.00    +0.178 C 
ATOM     26  O   UNL     1       5.180   4.264   0.721  0.00  0.00    -0.377 OA
ATOM     27  C   UNL     1       5.362   2.898   0.341  0.00  0.00    +0.178 C 
ATOM     28  C   UNL     1       4.291   2.510  -0.678  0.00  0.00    +0.134 C 
ENDBRANCH  18  23
ENDBRANCH   1  21
TORSDOF 3
