REMARK  Name = ZINC46277874
REMARK  9 active torsions:
REMARK  status: ('A' for Active; 'I' for Inactive)
REMARK    1  A    between atoms: C_1  and  C_2
REMARK    2  A    between atoms: C_2  and  N_3
REMARK    3  A    between atoms: N_3  and  C_4
REMARK    4  A    between atoms: N_3  and  C_6
REMARK    5  A    between atoms: C_4  and  C_5
REMARK    6  A    between atoms: C_6  and  C_8
REMARK    7  A    between atoms: C_6  and  C_9
REMARK    8  A    between atoms: C_9  and  N_10
REMARK    9  A    between atoms: C_21  and  C_23
REMARK                            x       y       z     vdW  Elec       q    Type
REMARK                         _______ _______ _______ _____ _____    ______ ____
ROOT
ATOM      1  N   UNL     1       0.966  -1.655  -1.277  0.00  0.00    -0.301 N 
ATOM      2  C   UNL     1       1.313  -2.123  -2.492  0.00  0.00    +0.303 C 
ATOM      3  O   UNL     1       2.043  -3.091  -2.585  0.00  0.00    -0.253 OA
ATOM      4  N   UNL     1       0.851  -1.518  -3.604  0.00  0.00    -0.278 N 
ATOM      5  C   UNL     1       0.100  -0.258  -3.511  0.00  0.00    +0.115 C 
ATOM      6  C   UNL     1       0.920   0.845  -4.197  0.00  0.00    +0.062 C 
ATOM      7  C   UNL     1       1.476   0.303  -5.474  0.00  0.00    -0.004 A 
ATOM      8  C   UNL     1       1.584  -0.999  -5.853  0.00  0.00    -0.017 A 
ATOM      9  C   UNL     1       2.152  -1.242  -7.103  0.00  0.00    +0.013 A 
ATOM     10  C   UNL     1       2.558  -0.207  -7.874  0.00  0.00    +0.046 A 
ATOM     11  S   UNL     1       2.150   1.198  -6.849  0.00  0.00    -0.101 S 
ATOM     12  C   UNL     1       1.096  -2.107  -4.928  0.00  0.00    +0.105 C 
ATOM     13  C   UNL     1       2.163  -3.198  -4.821  0.00  0.00    +0.033 C 
ATOM     14  H   UNL     1       0.320  -0.935  -1.201  0.00  0.00    +0.150 HD
ENDROOT
BRANCH   1  15
ATOM     15  C   UNL     1       1.565  -2.232  -0.071  0.00  0.00    +0.090 C 
BRANCH  15  16
ATOM     16  C   UNL     1       1.177  -1.388   1.145  0.00  0.00    -0.054 C 
ATOM     17  C   UNL     1       1.329  -2.226   2.416  0.00  0.00    -0.012 C 
BRANCH  16  18
ATOM     18  N   UNL     1       2.055  -0.213   1.225  0.00  0.00    +0.382 N 
ATOM     19  H   UNL     1       1.897   0.267   2.098  0.00  0.00    -0.081 HD
BRANCH  18  21
ATOM     20  C   UNL     1       4.373   0.547   1.442  0.00  0.00    -0.017 C 
ATOM     21  C   UNL     1       3.458  -0.644   1.152  0.00  0.00    -0.082 C 
ENDBRANCH  18  21
BRANCH  18  22
ATOM     22  C   UNL     1       1.763   0.694   0.108  0.00  0.00    -0.082 C 
ATOM     23  C   UNL     1       0.307   1.155   0.193  0.00  0.00    -0.017 C 
ENDBRANCH  18  22
ENDBRANCH  16  18
ENDBRANCH  15  16
ENDBRANCH   1  15
TORSDOF 5
