REMARK  Name = ZINC05354367
REMARK  7 active torsions:
REMARK  status: ('A' for Active; 'I' for Inactive)
REMARK    1  A    between atoms: C_1  and  C_2
REMARK    2  A    between atoms: C_2  and  C_3
REMARK    3  A    between atoms: C_2  and  C_4
REMARK    4  A    between atoms: C_10  and  N_14
REMARK    5  A    between atoms: N_14  and  C_15
REMARK    6  A    between atoms: C_15  and  C_16
REMARK    7  A    between atoms: C_16  and  N_44
REMARK                            x       y       z     vdW  Elec       q    Type
REMARK                         _______ _______ _______ _____ _____    ______ ____
ROOT
ATOM      1  C   UNL     1       0.002  -0.004   0.002  0.00  0.00    +0.049 A 
ATOM      2  C   UNL     1      -0.576  -0.707   1.051  0.00  0.00    -0.022 A 
ATOM      3  C   UNL     1      -0.562  -2.083   1.042  0.00  0.00    -0.031 A 
ATOM      4  C   UNL     1       0.051  -2.763  -0.032  0.00  0.00    +0.037 A 
ATOM      5  C   UNL     1       0.176  -4.220  -0.224  0.00  0.00    +0.093 A 
ATOM      6  C   UNL     1       0.836  -4.630  -1.389  0.00  0.00    +0.080 A 
ATOM      7  C   UNL     1       1.009  -5.977  -1.674  0.00  0.00    +0.136 A 
ATOM      8  N   UNL     1       0.532  -6.872  -0.809  0.00  0.00    -0.220 NA
ATOM      9  C   UNL     1      -0.086  -6.469   0.285  0.00  0.00    +0.224 A 
ATOM     10  N   UNL     1      -0.268  -5.208   0.586  0.00  0.00    -0.234 NA
ATOM     11  S   UNL     1       1.280  -3.122  -2.206  0.00  0.00    -0.064 S 
ATOM     12  C   UNL     1       0.612  -1.960  -1.041  0.00  0.00    +0.111 A 
ATOM     13  N   UNL     1       0.574  -0.645  -0.998  0.00  0.00    -0.244 NA
ATOM     14  C   UNL     1      -1.252  -2.618   2.275  0.00  0.00    +0.036 C 
ATOM     15  C   UNL     1      -2.075  -1.431   2.821  0.00  0.00    +0.009 C 
ATOM     16  C   UNL     1      -1.288  -0.212   2.292  0.00  0.00    +0.037 C 
ENDROOT
BRANCH   1  18
ATOM     17  C   UNL     1       1.417   2.032  -0.001  0.00  0.00    +0.014 C 
ATOM     18  C   UNL     1      -0.018   1.503   0.010  0.00  0.00    +0.032 C 
ATOM     19  C   UNL     1      -0.758   2.010  -1.229  0.00  0.00    +0.014 C 
ENDBRANCH   1  18
BRANCH   7  20
ATOM     20  N   UNL     1       1.661  -6.381  -2.829  0.00  0.00    -0.330 N 
ATOM     21  H   UNL     1       2.004  -5.719  -3.449  0.00  0.00    +0.147 HD
BRANCH  20  22
ATOM     22  C   UNL     1       1.834  -7.809  -3.111  0.00  0.00    +0.083 C 
BRANCH  22  23
ATOM     23  C   UNL     1       2.580  -7.980  -4.436  0.00  0.00    -0.068 C 
BRANCH  23  26
ATOM     24  H   UNL     1       1.864  -9.888  -4.724  0.00  0.00    -0.090 HD
ATOM     25  H   UNL     1       3.243  -9.550  -5.590  0.00  0.00    -0.090 HD
ATOM     26  N   UNL     1       2.767  -9.417  -4.699  0.00  0.00    +0.379 N 
ATOM     27  H   UNL     1       3.337  -9.826  -3.950  0.00  0.00    -0.090 HD
ENDBRANCH  23  26
ENDBRANCH  22  23
ENDBRANCH  20  22
ENDBRANCH   7  20
TORSDOF 5
