REMARK  Name = ZINC09549634
REMARK  3 active torsions:
REMARK  status: ('A' for Active; 'I' for Inactive)
REMARK    1  A    between atoms: C_1  and  C_2
REMARK    2  A    between atoms: C_5  and  C_11
REMARK    3  A    between atoms: C_7  and  N_8
REMARK                            x       y       z     vdW  Elec       q    Type
REMARK                         _______ _______ _______ _____ _____    ______ ____
ROOT
ATOM      1  C   UNL     1      -4.992   1.142  -0.188  0.00  0.00    +0.190 C 
ATOM      2  N   UNL     1      -6.062   2.055  -0.607  0.00  0.00    -0.322 N 
ATOM      3  C   UNL     1      -6.114   2.459  -1.932  0.00  0.00    +0.041 A 
ATOM      4  C   UNL     1      -6.623   3.691  -2.306  0.00  0.00    +0.024 A 
ATOM      5  C   UNL     1      -6.643   4.046  -3.641  0.00  0.00    +0.002 A 
ATOM      6  C   UNL     1      -6.158   3.179  -4.608  0.00  0.00    +0.001 A 
ATOM      7  C   UNL     1      -5.649   1.947  -4.252  0.00  0.00    +0.015 A 
ATOM      8  C   UNL     1      -5.624   1.576  -2.911  0.00  0.00    +0.058 A 
ATOM      9  C   UNL     1      -5.095   0.270  -2.476  0.00  0.00    +0.247 C 
ATOM     10  O   UNL     1      -4.895  -0.613  -3.287  0.00  0.00    -0.270 OA
ATOM     11  N   UNL     1      -4.834   0.068  -1.167  0.00  0.00    -0.289 N 
ATOM     12  H   UNL     1      -6.721   2.372   0.031  0.00  0.00    +0.148 HD
ATOM     13  H   UNL     1      -4.537  -0.807  -0.871  0.00  0.00    +0.151 HD
ENDROOT
BRANCH   1  18
ATOM     14  C   UNL     1      -0.034   4.080   0.242  0.00  0.00    +0.046 C 
ATOM     15  C   UNL     1      -1.327   3.314   0.131  0.00  0.00    -0.020 A 
ATOM     16  C   UNL     1      -2.531   3.953   0.360  0.00  0.00    +0.006 A 
ATOM     17  C   UNL     1      -3.717   3.250   0.257  0.00  0.00    +0.007 A 
ATOM     18  C   UNL     1      -3.699   1.908  -0.075  0.00  0.00    -0.007 A 
ATOM     19  C   UNL     1      -2.495   1.271  -0.310  0.00  0.00    +0.040 A 
ATOM     20  C   UNL     1      -1.308   1.972  -0.202  0.00  0.00    +0.129 A 
BRANCH  20  21
ATOM     21  N   UNL     1      -0.019   1.288  -0.448  0.00  0.00    +0.057 N 
ATOM     22  O   UNL     1       0.888   1.881  -1.004  0.00  0.00    -0.126 OA
ATOM     23  O   UNL     1       0.136   0.135  -0.090  0.00  0.00    -0.126 OA
ENDBRANCH  20  21
ENDBRANCH   1  18
TORSDOF 2
