REMARK  Name = ZINC35868082
REMARK  14 active torsions:
REMARK  status: ('A' for Active; 'I' for Inactive)
REMARK    1  A    between atoms: C_1  and  C_2
REMARK    2  A    between atoms: C_2  and  C_3
REMARK    3  A    between atoms: C_3  and  C_5
REMARK    4  A    between atoms: C_3  and  N_6
REMARK    5  A    between atoms: N_9  and  C_10
REMARK    6  A    between atoms: C_11  and  C_20
REMARK    7  A    between atoms: N_13  and  C_16
REMARK    8  A    between atoms: C_14  and  N_15
REMARK    9  A    between atoms: C_16  and  C_17
REMARK   10  A    between atoms: C_16  and  C_18
REMARK   11  A    between atoms: C_16  and  C_19
REMARK   12  A    between atoms: C_20  and  C_21
REMARK   13  A    between atoms: C_20  and  C_22
REMARK   14  A    between atoms: C_20  and  C_23
REMARK                            x       y       z     vdW  Elec       q    Type
REMARK                         _______ _______ _______ _____ _____    ______ ____
ROOT
ATOM      1  C   UNL     1      -5.412   0.534   2.514  0.00  0.00    +0.096 A 
ATOM      2  C   UNL     1      -6.109   1.245   3.499  0.00  0.00    +0.063 A 
ATOM      3  N   UNL     1      -7.387   1.194   3.220  0.00  0.00    -0.297 N 
ATOM      4  N   UNL     1      -7.556   0.447   2.047  0.00  0.00    -0.266 N 
ATOM      5  C   UNL     1      -6.325   0.053   1.622  0.00  0.00    +0.135 A 
ATOM      6  H   UNL     1      -8.097   1.603   3.739  0.00  0.00    +0.187 HD
ENDROOT
BRANCH   1  10
ATOM      7  N   UNL     1      -1.983   0.681   1.346  0.00  0.00    -0.297 N 
ATOM      8  C   UNL     1      -3.328   0.756   1.363  0.00  0.00    +0.304 C 
ATOM      9  O   UNL     1      -3.925   1.186   0.395  0.00  0.00    -0.252 OA
ATOM     10  N   UNL     1      -4.012   0.353   2.452  0.00  0.00    -0.265 N 
ATOM     11  H   UNL     1      -1.506   0.338   2.118  0.00  0.00    +0.151 HD
ATOM     12  H   UNL     1      -3.543  -0.061   3.193  0.00  0.00    +0.157 HD
BRANCH   7  13
ATOM     13  C   UNL     1      -1.239   1.119   0.162  0.00  0.00    +0.071 C 
ATOM     14  C   UNL     1      -1.169  -0.028  -0.848  0.00  0.00    +0.028 C 
BRANCH  13  16
ATOM     15  C   UNL     1       0.113   2.752   1.484  0.00  0.00    +0.005 C 
ATOM     16  C   UNL     1       0.178   1.526   0.571  0.00  0.00    +0.019 C 
ENDBRANCH  13  16
ENDBRANCH   7  13
ENDBRANCH   1  10
BRANCH   4  17
ATOM     17  C   UNL     1      -8.831   0.149   1.391  0.00  0.00    +0.055 C 
ATOM     18  C   UNL     1      -9.975   0.782   2.186  0.00  0.00    +0.036 C 
ATOM     19  C   UNL     1      -8.821   0.719  -0.029  0.00  0.00    +0.036 C 
ATOM     20  C   UNL     1      -9.031  -1.367   1.330  0.00  0.00    +0.036 C 
ENDBRANCH   4  17
BRANCH   2  21
ATOM     21  C   UNL     1      -5.492   1.951   4.679  0.00  0.00    +0.006 C 
ATOM     22  C   UNL     1      -6.594   2.606   5.514  0.00  0.00    +0.017 C 
ATOM     23  C   UNL     1      -4.734   0.938   5.539  0.00  0.00    +0.017 C 
ATOM     24  C   UNL     1      -4.523   3.025   4.182  0.00  0.00    +0.017 C 
ENDBRANCH   2  21
BRANCH   5  25
ATOM     25  N   UNL     1      -6.049  -0.708   0.485  0.00  0.00    -0.342 N 
ATOM     26  H   UNL     1      -5.146  -1.024   0.322  0.00  0.00    +0.144 HD
ATOM     27  H   UNL     1      -6.758  -0.920  -0.141  0.00  0.00    +0.144 HD
ENDBRANCH   5  25
TORSDOF 6
