REMARK  Name = ZINC04963402
REMARK  9 active torsions:
REMARK  status: ('A' for Active; 'I' for Inactive)
REMARK    1  A    between atoms: C_1  and  N_41
REMARK    2  A    between atoms: C_2  and  N_41
REMARK    3  A    between atoms: C_4  and  C_24
REMARK    4  A    between atoms: C_7  and  N_12
REMARK    5  A    between atoms: C_9  and  O_11
REMARK    6  A    between atoms: C_20  and  N_21
REMARK    7  A    between atoms: N_21  and  C_22
REMARK    8  A    between atoms: N_21  and  C_23
REMARK    9  A    between atoms: C_24  and  O_25
REMARK                            x       y       z     vdW  Elec       q    Type
REMARK                         _______ _______ _______ _____ _____    ______ ____
ROOT
ATOM      1  C   UNL     1       2.536   3.740   0.117  0.00  0.00    -0.007 C 
ATOM      2  C   UNL     1       1.145   3.085   0.008  0.00  0.00    +0.135 C 
ATOM      3  O   UNL     1       0.556   3.529  -1.226  0.00  0.00    -0.350 OA
ATOM      4  C   UNL     1       1.149   4.811  -1.537  0.00  0.00    +0.249 C 
ATOM      5  C   UNL     1       2.638   4.627  -1.148  0.00  0.00    +0.153 C 
ENDROOT
BRANCH   4   6
ATOM      6  N   UNL     1       1.021   5.105  -2.966  0.00  0.00    -0.286 N 
ATOM      7  C   UNL     1       0.779   4.202  -3.958  0.00  0.00    +0.203 A 
ATOM      8  N   UNL     1       0.727   4.807  -5.109  0.00  0.00    -0.231 NA
ATOM      9  C   UNL     1       0.932   6.134  -4.929  0.00  0.00    +0.148 A 
ATOM     10  C   UNL     1       1.117   6.342  -3.552  0.00  0.00    +0.167 A 
ATOM     11  N   UNL     1       1.333   7.576  -3.108  0.00  0.00    -0.216 NA
ATOM     12  C   UNL     1       1.371   8.593  -3.944  0.00  0.00    +0.225 A 
ATOM     13  N   UNL     1       1.200   8.447  -5.245  0.00  0.00    -0.218 NA
ATOM     14  C   UNL     1       0.987   7.250  -5.782  0.00  0.00    +0.152 A 
BRANCH  14  15
ATOM     15  N   UNL     1       0.806   7.107  -7.146  0.00  0.00    -0.319 N 
ATOM     16  C   UNL     1       0.906   8.405  -7.829  0.00  0.00    +0.130 C 
ATOM     17  C   UNL     1       1.762   6.143  -7.706  0.00  0.00    +0.130 C 
ENDBRANCH  14  15
ENDBRANCH   4   6
BRANCH   1  19
ATOM     18  C   UNL     1       3.029   3.754   2.487  0.00  0.00    -0.100 C 
ATOM     19  N   UNL     1       2.621   4.574   1.330  0.00  0.00    +0.383 N 
ATOM     20  H   UNL     1       3.312   5.318   1.182  0.00  0.00    -0.086 HD
ATOM     21  H   UNL     1       1.702   4.992   1.519  0.00  0.00    -0.086 HD
ENDBRANCH   1  19
BRANCH   5  22
ATOM     22  O   UNL     1       3.356   3.955  -2.185  0.00  0.00    -0.389 OA
ATOM     23  H   UNL     1       3.446   4.471  -2.998  0.00  0.00    +0.210 HD
ENDBRANCH   5  22
BRANCH   2  24
ATOM     24  C   UNL     1       1.286   1.562  -0.002  0.00  0.00    +0.185 C 
BRANCH  24  25
ATOM     25  O   UNL     1      -0.011   0.963   0.007  0.00  0.00    -0.393 OA
ATOM     26  H   UNL     1       0.002  -0.004   0.002  0.00  0.00    +0.210 HD
ENDBRANCH  24  25
ENDBRANCH   2  24
TORSDOF 6
