REMARK  Name = ZINC20718820
REMARK  6 active torsions:
REMARK  status: ('A' for Active; 'I' for Inactive)
REMARK    1  A    between atoms: C_1  and  N_2
REMARK    2  A    between atoms: N_5  and  S_8
REMARK    3  A    between atoms: S_8  and  C_11
REMARK    4  A    between atoms: C_24  and  C_27
REMARK    5  A    between atoms: C_36  and  O_37
REMARK    6  A    between atoms: O_37  and  C_38
REMARK                            x       y       z     vdW  Elec       q    Type
REMARK                         _______ _______ _______ _____ _____    ______ ____
ROOT
ATOM      1  C   UNL     1      -1.844   2.321  -1.551  0.00  0.00    +0.106 A 
ATOM      2  C   UNL     1      -1.305   3.524  -1.134  0.00  0.00    +0.030 A 
ATOM      3  C   UNL     1      -1.336   3.860   0.204  0.00  0.00    +0.025 A 
ATOM      4  C   UNL     1      -1.907   2.992   1.126  0.00  0.00    +0.031 A 
ATOM      5  C   UNL     1      -2.449   1.785   0.712  0.00  0.00    -0.018 A 
ATOM      6  C   UNL     1      -2.411   1.458  -0.636  0.00  0.00    +0.034 A 
ATOM      7  C   UNL     1      -3.075   0.819   1.667  0.00  0.00    +0.049 C 
ATOM      8  C   UNL     1      -2.175  -0.368   1.920  0.00  0.00    -0.023 C 
ATOM      9  C   UNL     1      -2.272  -0.755   3.168  0.00  0.00    -0.030 C 
ATOM     10  C   UNL     1      -3.258   0.120   3.920  0.00  0.00    +0.033 C 
ATOM     11  C   UNL     1      -3.309   1.421   3.066  0.00  0.00    +0.029 C 
ATOM     12  C   UNL     1      -2.110   2.281   3.473  0.00  0.00    +0.109 C 
ATOM     13  N   UNL     1      -1.929   3.345   2.479  0.00  0.00    -0.336 N 
ATOM     14  H   UNL     1      -1.816   4.389   2.806  0.00  0.00    +0.147 HD
ENDROOT
BRANCH  12  15
ATOM     15  C   UNL     1      -0.870   1.426   3.527  0.00  0.00    +0.022 A 
ATOM     16  C   UNL     1      -0.536   0.740   4.707  0.00  0.00    -0.009 A 
ATOM     17  C   UNL     1      -1.340   0.833   5.856  0.00  0.00    +0.009 A 
ATOM     18  C   UNL     1      -0.983   0.160   6.984  0.00  0.00    +0.001 A 
ATOM     19  C   UNL     1       0.170  -0.622   7.018  0.00  0.00    +0.001 A 
ATOM     20  C   UNL     1       0.973  -0.735   5.924  0.00  0.00    +0.008 A 
ATOM     21  C   UNL     1       0.636  -0.055   4.741  0.00  0.00    -0.017 A 
ATOM     22  C   UNL     1       1.442  -0.148   3.593  0.00  0.00    +0.012 A 
ATOM     23  C   UNL     1       1.088   0.523   2.465  0.00  0.00    +0.046 A 
ATOM     24  C   UNL     1      -0.068   1.309   2.428  0.00  0.00    +0.126 A 
BRANCH  24  25
ATOM     25  O   UNL     1      -0.395   1.968   1.286  0.00  0.00    -0.495 OA
ATOM     26  C   UNL     1       0.543   1.907   0.210  0.00  0.00    +0.277 C 
ENDBRANCH  24  25
ENDBRANCH  12  15
BRANCH   1  27
ATOM     27  S   UNL     1      -1.806   1.887  -3.259  0.00  0.00    +0.061 S 
ATOM     28  O   UNL     1      -0.733   2.617  -3.839  0.00  0.00    -0.153 OA
ATOM     29  O   UNL     1      -1.883   0.470  -3.320  0.00  0.00    -0.153 OA
BRANCH  27  34
ATOM     30  C   UNL     1      -6.873   4.484  -3.742  0.00  0.00    -0.096 C 
ATOM     31  N   UNL     1      -5.668   3.743  -4.137  0.00  0.00    +0.380 N 
ATOM     32  C   UNL     1      -4.460   4.553  -3.929  0.00  0.00    -0.062 C 
ATOM     33  C   UNL     1      -3.250   3.821  -4.517  0.00  0.00    +0.091 C 
ATOM     34  N   UNL     1      -3.198   2.468  -3.942  0.00  0.00    -0.180 NA
ATOM     35  C   UNL     1      -4.413   1.642  -3.996  0.00  0.00    +0.091 C 
ATOM     36  C   UNL     1      -5.580   2.462  -3.423  0.00  0.00    -0.062 C 
ATOM     37  H   UNL     1      -5.741   3.523  -5.212  0.00  0.00    -0.082 HD
ENDBRANCH  27  34
ENDBRANCH   1  27
TORSDOF 4
