REMARK  Name = ZINC52634843
REMARK  2 active torsions:
REMARK  status: ('A' for Active; 'I' for Inactive)
REMARK    1  A    between atoms: C_1  and  C_2
REMARK    2  A    between atoms: C_9  and  C_11
REMARK                            x       y       z     vdW  Elec       q    Type
REMARK                         _______ _______ _______ _____ _____    ______ ____
ROOT
ATOM      1  C   UNL     1      -0.019   1.526   0.010  0.00  0.00    +0.039 C 
ATOM      2  C   UNL     1       0.002  -0.004   0.002  0.00  0.00    +0.153 C 
ATOM      3  C   UNL     1       0.755  -0.521  -1.195  0.00  0.00    +0.007 C 
ATOM      4  C   UNL     1       1.789  -1.210  -0.677  0.00  0.00    +0.118 C 
ATOM      5  N   UNL     1       2.738  -1.859  -1.493  0.00  0.00    -0.300 N 
ATOM      6  C   UNL     1       2.430  -1.928  -2.826  0.00  0.00    +0.058 C 
ATOM      7  C   UNL     1       1.406  -1.261  -3.416  0.00  0.00    +0.068 C 
ATOM      8  C   UNL     1       0.470  -0.340  -2.659  0.00  0.00    +0.089 C 
ATOM      9  C   UNL     1       1.379  -1.567  -4.784  0.00  0.00    +0.338 C 
ATOM     10  O   UNL     1       0.569  -1.122  -5.575  0.00  0.00    -0.245 OA
ATOM     11  O   UNL     1       2.372  -2.422  -5.107  0.00  0.00    -0.455 OA
ATOM     12  C   UNL     1       3.110  -2.716  -3.911  0.00  0.00    +0.283 C 
ATOM     13  N   UNL     1       1.745  -1.165   0.673  0.00  0.00    -0.268 N 
ATOM     14  N   UNL     1       0.790  -0.523   1.137  0.00  0.00    -0.203 NA
ATOM     15  H   UNL     1       3.558  -2.232  -1.134  0.00  0.00    +0.153 HD
ATOM     16  H   UNL     1       2.405  -1.601   1.235  0.00  0.00    +0.190 HD
ENDROOT
BRANCH   8  17
ATOM     17  C   UNL     1       0.725   1.091  -3.058  0.00  0.00    -0.028 A 
ATOM     18  C   UNL     1      -0.294   1.866  -3.579  0.00  0.00    +0.012 A 
ATOM     19  C   UNL     1      -0.031   3.149  -3.928  0.00  0.00    +0.045 A 
ATOM     20  S   UNL     1       1.700   3.296  -3.519  0.00  0.00    -0.105 S 
ATOM     21  C   UNL     1       1.956   1.639  -2.905  0.00  0.00    +0.049 A 
ENDBRANCH   8  17
TORSDOF 1
