REMARK  Name = ZINC05032065
REMARK  4 active torsions:
REMARK  status: ('A' for Active; 'I' for Inactive)
REMARK    1  A    between atoms: C_1  and  C_2
REMARK    2  A    between atoms: C_6  and  N_45
REMARK    3  A    between atoms: C_9  and  N_45
REMARK    4  A    between atoms: C_21  and  N_24
REMARK                            x       y       z     vdW  Elec       q    Type
REMARK                         _______ _______ _______ _____ _____    ______ ____
ROOT
ATOM      1  C   UNL     1      -1.585   0.866   5.919  0.00  0.00    -0.023 C 
ATOM      2  C   UNL     1      -3.072   1.230   5.989  0.00  0.00    -0.009 C 
ATOM      3  C   UNL     1      -3.650   0.754   7.326  0.00  0.00    +0.003 C 
ATOM      4  C   UNL     1      -3.080   1.615   8.459  0.00  0.00    +0.037 C 
ATOM      5  C   UNL     1      -1.581   1.674   8.311  0.00  0.00    -0.021 A 
ATOM      6  C   UNL     1      -0.912   1.341   7.186  0.00  0.00    +0.006 A 
ATOM      7  N   UNL     1       0.435   1.503   7.381  0.00  0.00    -0.359 N 
ATOM      8  H   UNL     1       1.120   1.327   6.718  0.00  0.00    +0.166 HD
ATOM      9  C   UNL     1       0.667   1.950   8.650  0.00  0.00    +0.047 A 
ATOM     10  C   UNL     1      -0.593   2.076   9.290  0.00  0.00    +0.005 A 
ATOM     11  C   UNL     1      -0.694   2.519  10.613  0.00  0.00    +0.043 A 
ATOM     12  C   UNL     1       0.481   2.822  11.257  0.00  0.00    +0.127 A 
ATOM     13  C   UNL     1       1.713   2.700  10.637  0.00  0.00    +0.035 A 
ATOM     14  C   UNL     1       1.842   2.264   9.329  0.00  0.00    +0.028 A 
ENDROOT
BRANCH  12  15
ATOM     15  N   UNL     1       0.428   3.294  12.659  0.00  0.00    +0.056 N 
ATOM     16  O   UNL     1       1.458   3.568  13.248  0.00  0.00    -0.126 OA
ATOM     17  O   UNL     1      -0.646   3.408  13.223  0.00  0.00    -0.126 OA
ENDBRANCH  12  15
BRANCH   1  18
ATOM     18  N   UNL     1      -0.965   1.533   4.758  0.00  0.00    +0.386 N 
ATOM     19  H   UNL     1      -1.410   2.447   4.616  0.00  0.00    -0.085 HD
ATOM     20  H   UNL     1       0.037   1.664   4.938  0.00  0.00    -0.085 HD
BRANCH  18  25
ATOM     21  C   UNL     1      -0.013   1.086   0.008  0.00  0.00    +0.007 C 
ATOM     22  C   UNL     1      -0.729   1.579   1.267  0.00  0.00    -0.016 C 
ATOM     23  C   UNL     1      -2.159   0.990   1.343  0.00  0.00    +0.001 C 
ATOM     24  C   UNL     1      -2.477   1.061   2.859  0.00  0.00    -0.015 C 
ATOM     25  C   UNL     1      -1.139   0.714   3.544  0.00  0.00    -0.071 C 
ATOM     26  C   UNL     1      -0.028   1.043   2.532  0.00  0.00    -0.013 C 
ENDBRANCH  18  25
ENDBRANCH   1  18
TORSDOF 3
