REMARK  Name = ZINC51820644
REMARK  6 active torsions:
REMARK  status: ('A' for Active; 'I' for Inactive)
REMARK    1  A    between atoms: C_1  and  C_2
REMARK    2  A    between atoms: C_2  and  C_4
REMARK    3  A    between atoms: C_2  and  O_19
REMARK    4  A    between atoms: C_4  and  N_5
REMARK    5  A    between atoms: N_5  and  C_6
REMARK    6  A    between atoms: C_8  and  C_16
REMARK                            x       y       z     vdW  Elec       q    Type
REMARK                         _______ _______ _______ _____ _____    ______ ____
ROOT
ATOM      1  N   UNL     1       1.126  -1.970   0.823  0.00  0.00    -0.315 N 
ATOM      2  C   UNL     1       1.284  -1.925  -0.633  0.00  0.00    +0.131 C 
ATOM      3  C   UNL     1       0.041  -2.621   1.381  0.00  0.00    +0.132 A 
ATOM      4  C   UNL     1       0.089  -4.010   1.585  0.00  0.00    +0.052 A 
ATOM      5  C   UNL     1      -1.022  -4.642   2.152  0.00  0.00    +0.020 A 
ATOM      6  C   UNL     1      -2.123  -3.872   2.487  0.00  0.00    -0.025 A 
ATOM      7  C   UNL     1      -2.100  -2.507   2.257  0.00  0.00    +0.047 A 
ATOM      8  N   UNL     1      -1.034  -1.932   1.724  0.00  0.00    -0.236 NA
ATOM      9  C   UNL     1      -3.411  -1.895   2.708  0.00  0.00    +0.056 C 
ATOM     10  C   UNL     1      -4.392  -3.080   2.825  0.00  0.00    +0.011 C 
ATOM     11  C   UNL     1      -3.447  -4.268   3.104  0.00  0.00    +0.037 C 
ENDROOT
BRANCH   4  12
ATOM     12  C   UNL     1       1.287  -4.786   1.210  0.00  0.00    +0.098 C 
ATOM     13  N   UNL     1       2.476  -4.466   1.720  0.00  0.00    -0.387 N 
ATOM     14  N   UNL     1       1.180  -5.808   0.360  0.00  0.00    -0.344 N 
ATOM     15  H   UNL     1       2.542  -3.775   2.398  0.00  0.00    +0.157 HD
ATOM     16  H   UNL     1       0.315  -6.041  -0.011  0.00  0.00    +0.144 HD
ATOM     17  H   UNL     1       1.967  -6.317   0.113  0.00  0.00    +0.144 HD
ATOM     18  H   UNL     1       3.274  -4.923   1.415  0.00  0.00    +0.157 HD
ENDBRANCH   4  12
BRANCH   1  19
ATOM     19  C   UNL     1       2.119  -1.327   1.688  0.00  0.00    +0.137 C 
BRANCH  19  21
ATOM     20  C   UNL     1       2.803   0.832   2.744  0.00  0.00    +0.039 C 
ATOM     21  C   UNL     1       1.706   0.124   1.945  0.00  0.00    +0.129 C 
BRANCH  21  22
ATOM     22  O   UNL     1       0.486   0.147   2.688  0.00  0.00    -0.391 OA
ATOM     23  H   UNL     1       0.164   1.037   2.888  0.00  0.00    +0.210 HD
ENDBRANCH  21  22
ENDBRANCH  19  21
ENDBRANCH   1  19
TORSDOF 4
