REMARK  Name = ZINC14927409
REMARK  13 active torsions:
REMARK  status: ('A' for Active; 'I' for Inactive)
REMARK    1  A    between atoms: C_1  and  C_2
REMARK    2  A    between atoms: C_5  and  O_24
REMARK    3  A    between atoms: C_6  and  N_8
REMARK    4  A    between atoms: C_9  and  C_11
REMARK    5  A    between atoms: C_11  and  N_12
REMARK    6  A    between atoms: C_13  and  C_15
REMARK    7  A    between atoms: C_15  and  N_16
REMARK    8  A    between atoms: N_16  and  C_17
REMARK    9  A    between atoms: N_16  and  C_21
REMARK   10  A    between atoms: C_17  and  C_18
REMARK   11  A    between atoms: C_21  and  C_22
REMARK   12  A    between atoms: C_21  and  C_23
REMARK   13  A    between atoms: O_24  and  C_25
REMARK                            x       y       z     vdW  Elec       q    Type
REMARK                         _______ _______ _______ _____ _____    ______ ____
ROOT
ATOM      1  N   UNL     1      -0.083  -1.934   6.142  0.00  0.00    -0.308 N 
ATOM      2  C   UNL     1       0.106  -2.367   7.405  0.00  0.00    +0.197 C 
ATOM      3  O   UNL     1      -0.132  -3.521   7.692  0.00  0.00    -0.278 OA
ATOM      4  H   UNL     1       0.107  -1.011   5.912  0.00  0.00    +0.149 HD
ENDROOT
BRANCH   1   5
ATOM      5  C   UNL     1      -0.575  -2.858   5.117  0.00  0.00    +0.200 C 
BRANCH   5   7
ATOM      6  N   UNL     1      -1.135  -2.785   2.709  0.00  0.00    -0.281 N 
ATOM      7  C   UNL     1      -0.698  -2.130   3.803  0.00  0.00    +0.234 C 
ATOM      8  O   UNL     1      -0.403  -0.956   3.730  0.00  0.00    -0.274 OA
ATOM      9  H   UNL     1      -1.437  -3.704   2.781  0.00  0.00    +0.155 HD
BRANCH   6  15
ATOM     10  C   UNL     1       0.592   0.738  -0.255  0.00  0.00    +0.044 C 
ATOM     11  C   UNL     1      -0.328  -0.427   0.002  0.00  0.00    -0.048 A 
ATOM     12  C   UNL     1      -1.191  -0.857  -0.990  0.00  0.00    +0.007 A 
ATOM     13  C   UNL     1      -2.038  -1.925  -0.760  0.00  0.00    +0.048 A 
ATOM     14  C   UNL     1      -2.023  -2.569   0.467  0.00  0.00    +0.141 A 
ATOM     15  C   UNL     1      -1.154  -2.137   1.466  0.00  0.00    +0.076 A 
ATOM     16  C   UNL     1      -0.304  -1.068   1.226  0.00  0.00    +0.030 A 
BRANCH  14  17
ATOM     17  O   UNL     1      -2.856  -3.620   0.695  0.00  0.00    -0.493 OA
ATOM     18  C   UNL     1      -3.720  -4.007  -0.375  0.00  0.00    +0.277 C 
ENDBRANCH  14  17
ENDBRANCH   6  15
ENDBRANCH   5   7
ENDBRANCH   1   5
BRANCH   2  19
ATOM     19  C   UNL     1       0.612  -1.417   8.459  0.00  0.00    +0.020 C 
BRANCH  19  20
ATOM     20  N   UNL     1       0.986  -2.174   9.661  0.00  0.00    +0.393 N 
ATOM     21  H   UNL     1       0.312  -2.908   9.820  0.00  0.00    -0.080 HD
BRANCH  20  22
ATOM     22  C   UNL     1       2.318  -2.765   9.473  0.00  0.00    -0.074 C 
ATOM     23  C   UNL     1       2.291  -3.710   8.269  0.00  0.00    -0.013 C 
ATOM     24  C   UNL     1       3.339  -1.653   9.226  0.00  0.00    -0.013 C 
ENDBRANCH  20  22
BRANCH  20  25
ATOM     25  C   UNL     1       1.010  -1.272  10.820  0.00  0.00    +0.019 C 
BRANCH  25  26
ATOM     26  C   UNL     1       1.203  -2.078  12.079  0.00  0.00    +0.194 C 
ATOM     27  O   UNL     1       1.356  -3.279  12.014  0.00  0.00    -0.278 OA
ATOM     28  N   UNL     1       1.205  -1.463  13.279  0.00  0.00    -0.331 N 
ATOM     29  H   UNL     1       1.082  -0.502  13.332  0.00  0.00    +0.145 HD
ATOM     30  H   UNL     1       1.329  -1.981  14.089  0.00  0.00    +0.145 HD
ENDBRANCH  25  26
ENDBRANCH  20  25
ENDBRANCH  19  20
ENDBRANCH   2  19
TORSDOF 9
