REMARK  Name = ZINC49442156
REMARK  5 active torsions:
REMARK  status: ('A' for Active; 'I' for Inactive)
REMARK    1  A    between atoms: C_1  and  C_2
REMARK    2  A    between atoms: C_4  and  C_7
REMARK    3  A    between atoms: C_7  and  C_9
REMARK    4  A    between atoms: C_7  and  N_10
REMARK    5  A    between atoms: C_14  and  N_17
REMARK                            x       y       z     vdW  Elec       q    Type
REMARK                         _______ _______ _______ _____ _____    ______ ____
ROOT
ATOM      1  N   UNL     1      -0.926  -4.216  -1.239  0.00  0.00    +0.388 N 
ATOM      2  C   UNL     1      -0.907  -5.360  -2.158  0.00  0.00    -0.078 C 
ATOM      3  C   UNL     1      -1.849  -6.450  -1.642  0.00  0.00    -0.017 C 
ATOM      4  C   UNL     1      -3.271  -5.887  -1.553  0.00  0.00    +0.019 C 
ATOM      5  C   UNL     1      -3.265  -4.650  -0.651  0.00  0.00    +0.061 C 
ATOM      6  C   UNL     1      -2.270  -3.627  -1.204  0.00  0.00    -0.055 C 
ATOM      7  H   UNL     1      -0.672  -4.526  -0.314  0.00  0.00    -0.081 HD
ENDROOT
BRANCH   5   8
ATOM      8  N   UNL     1      -4.606  -4.061  -0.619  0.00  0.00    -0.283 N 
ATOM      9  C   UNL     1      -5.428  -3.879   0.587  0.00  0.00    +0.128 C 
ATOM     10  C   UNL     1      -6.720  -3.227   0.058  0.00  0.00    +0.124 C 
ATOM     11  N   UNL     1      -6.489  -3.111  -1.390  0.00  0.00    -0.298 N 
ATOM     12  C   UNL     1      -5.276  -3.598  -1.682  0.00  0.00    +0.302 C 
ATOM     13  O   UNL     1      -4.825  -3.621  -2.812  0.00  0.00    -0.253 OA
ATOM     14  H   UNL     1      -7.114  -2.738  -2.031  0.00  0.00    +0.150 HD
ENDBRANCH   5   8
BRANCH   1  15
ATOM     15  C   UNL     1       0.038  -3.206  -1.697  0.00  0.00    +0.019 C 
ATOM     16  C   UNL     1       1.439  -3.818  -1.734  0.00  0.00    -0.003 C 
BRANCH  15  20
ATOM     17  C   UNL     1      -0.018   1.503   0.010  0.00  0.00    +0.091 C 
ATOM     18  C   UNL     1       0.002  -0.004   0.002  0.00  0.00    +0.169 A 
ATOM     19  N   UNL     1       0.008  -0.776  -1.091  0.00  0.00    -0.198 NA
ATOM     20  C   UNL     1       0.026  -2.034  -0.750  0.00  0.00    +0.214 A 
ATOM     21  O   UNL     1       0.033  -2.107   0.587  0.00  0.00    -0.340 OA
ATOM     22  N   UNL     1       0.023  -0.767   1.057  0.00  0.00    -0.062 NA
ENDBRANCH  15  20
ENDBRANCH   1  15
TORSDOF 3
