REMARK  Name = ZINC25612043
REMARK  10 active torsions:
REMARK  status: ('A' for Active; 'I' for Inactive)
REMARK    1  A    between atoms: C_1  and  O_2
REMARK    2  A    between atoms: O_2  and  C_3
REMARK    3  A    between atoms: C_5  and  C_16
REMARK    4  A    between atoms: C_6  and  N_13
REMARK    5  A    between atoms: C_8  and  O_9
REMARK    6  A    between atoms: O_9  and  C_10
REMARK    7  A    between atoms: C_17  and  C_18
REMARK    8  A    between atoms: N_20  and  C_21
REMARK    9  A    between atoms: C_23  and  C_33
REMARK   10  A    between atoms: C_26  and  N_27
REMARK                            x       y       z     vdW  Elec       q    Type
REMARK                         _______ _______ _______ _____ _____    ______ ____
ROOT
ATOM      1  C   UNL     1      -3.155  -0.486  -0.418  0.00  0.00    +0.241 C 
ATOM      2  O   UNL     1      -4.228  -0.049  -0.043  0.00  0.00    -0.270 OA
ATOM      3  N   UNL     1      -3.098  -1.659  -1.079  0.00  0.00    -0.280 N 
ATOM      4  H   UNL     1      -2.124  -2.101  -1.333  0.00  0.00    +0.155 HD
ENDROOT
BRANCH   3   5
ATOM      5  C   UNL     1      -4.281  -2.315  -1.443  0.00  0.00    +0.056 A 
ATOM      6  C   UNL     1      -5.473  -1.616  -1.494  0.00  0.00    +0.038 A 
ATOM      7  C   UNL     1      -6.651  -2.274  -1.858  0.00  0.00    +0.038 A 
ATOM      8  C   UNL     1      -6.620  -3.637  -2.169  0.00  0.00    +0.015 A 
ATOM      9  C   UNL     1      -5.431  -4.330  -2.117  0.00  0.00    +0.026 A 
ATOM     10  C   UNL     1      -4.257  -3.676  -1.762  0.00  0.00    +0.051 A 
BRANCH  10  11
ATOM     11  N   UNL     1      -3.056  -4.379  -1.717  0.00  0.00    -0.328 N 
ATOM     12  C   UNL     1      -2.678  -4.861  -3.051  0.00  0.00    +0.105 C 
ATOM     13  C   UNL     1      -1.288  -5.499  -2.990  0.00  0.00    +0.019 C 
ATOM     14  C   UNL     1      -1.310  -6.662  -1.995  0.00  0.00    +0.003 C 
ATOM     15  C   UNL     1      -1.753  -6.143  -0.624  0.00  0.00    +0.019 C 
ATOM     16  C   UNL     1      -3.129  -5.485  -0.754  0.00  0.00    +0.105 C 
ENDBRANCH  10  11
BRANCH   7  17
ATOM     17  C   UNL     1      -7.925  -1.532  -1.913  0.00  0.00    +0.242 C 
ATOM     18  O   UNL     1      -7.950  -0.347  -1.641  0.00  0.00    -0.270 OA
ATOM     19  N   UNL     1      -9.060  -2.168  -2.264  0.00  0.00    -0.325 N 
ATOM     20  H   UNL     1     -10.010  -1.615  -2.305  0.00  0.00    +0.145 HD
ATOM     21  H   UNL     1      -9.037  -3.240  -2.509  0.00  0.00    +0.145 HD
ENDBRANCH   7  17
ENDBRANCH   3   5
BRANCH   1  23
ATOM     22  C   UNL     1      -1.983   1.436   0.513  0.00  0.00    +0.015 C 
ATOM     23  C   UNL     1      -1.927   0.262  -0.149  0.00  0.00    +0.068 C 
BRANCH  22  26
ATOM     24  C   UNL     1       1.581   2.593   0.342  0.00  0.00    +0.162 A 
ATOM     25  C   UNL     1       0.426   1.880   0.088  0.00  0.00    +0.059 A 
ATOM     26  C   UNL     1      -0.749   2.188   0.783  0.00  0.00    +0.009 A 
ATOM     27  C   UNL     1      -0.745   3.211   1.739  0.00  0.00    +0.137 A 
ATOM     28  C   UNL     1       0.412   3.917   1.985  0.00  0.00    +0.083 A 
ATOM     29  C   UNL     1       1.576   3.614   1.292  0.00  0.00    +0.170 A 
BRANCH  27  30
ATOM     30  N   UNL     1      -1.984   3.536   2.480  0.00  0.00    +0.057 N 
ATOM     31  O   UNL     1      -2.245   4.695   2.751  0.00  0.00    -0.126 OA
ATOM     32  O   UNL     1      -2.743   2.646   2.819  0.00  0.00    -0.126 OA
ENDBRANCH  27  30
BRANCH  24  34
ATOM     33  C   UNL     1       2.657   1.241  -1.292  0.00  0.00    +0.277 C 
ATOM     34  O   UNL     1       2.724   2.300  -0.334  0.00  0.00    -0.491 OA
ENDBRANCH  24  34
BRANCH  29  35
ATOM     35  O   UNL     1       2.713   4.314   1.539  0.00  0.00    -0.430 OA
BRANCH  35  36
ATOM     36  C   UNL     1       2.638   5.347   2.524  0.00  0.00    +0.541 C 
ATOM     37  F   UNL     1       1.689   6.297   2.132  0.00  0.00    -0.166 F 
ATOM     38  F   UNL     1       2.263   4.793   3.753  0.00  0.00    -0.166 F 
ENDBRANCH  35  36
ENDBRANCH  29  35
ENDBRANCH  22  26
ENDBRANCH   1  23
TORSDOF 9
