REMARK  Name = ZINC61517369
REMARK  5 active torsions:
REMARK  status: ('A' for Active; 'I' for Inactive)
REMARK    1  A    between atoms: C_1  and  C_2
REMARK    2  A    between atoms: C_2  and  O_3
REMARK    3  A    between atoms: O_3  and  C_4
REMARK    4  A    between atoms: N_11  and  C_12
REMARK    5  A    between atoms: C_18  and  O_20
REMARK                            x       y       z     vdW  Elec       q    Type
REMARK                         _______ _______ _______ _____ _____    ______ ____
ROOT
ATOM      1  C   UNL     1       0.776  -1.804  -1.335  0.00  0.00    +0.324 A 
ATOM      2  N   UNL     1       1.391  -2.297  -2.403  0.00  0.00    -0.161 NA
ATOM      3  C   UNL     1       1.493  -3.613  -2.559  0.00  0.00    +0.223 A 
ATOM      4  N   UNL     1       0.978  -4.432  -1.645  0.00  0.00    -0.184 NA
ATOM      5  C   UNL     1       0.367  -3.936  -0.582  0.00  0.00    +0.230 A 
ATOM      6  N   UNL     1       0.269  -2.626  -0.423  0.00  0.00    -0.164 NA
ATOM      7 CL   UNL     1      -0.303  -5.006   0.610  0.00  0.00    -0.041 Cl
ATOM      8  N   UNL     1       2.131  -4.130  -3.668  0.00  0.00    -0.308 N 
ATOM      9  H   UNL     1       2.505  -3.533  -4.335  0.00  0.00    +0.149 HD
ENDROOT
BRANCH   8  10
ATOM     10  C   UNL     1       2.242  -5.581  -3.840  0.00  0.00    +0.102 C 
ATOM     11  C   UNL     1       3.468  -6.091  -3.079  0.00  0.00    +0.025 C 
ATOM     12  C   UNL     1       3.584  -7.606  -3.257  0.00  0.00    +0.002 C 
ATOM     13  C   UNL     1       3.734  -7.934  -4.744  0.00  0.00    +0.003 C 
ATOM     14  C   UNL     1       2.509  -7.424  -5.505  0.00  0.00    +0.033 C 
ATOM     15  C   UNL     1       2.392  -5.909  -5.326  0.00  0.00    +0.135 C 
BRANCH  15  16
ATOM     16  O   UNL     1       1.247  -5.432  -6.037  0.00  0.00    -0.390 OA
ATOM     17  H   UNL     1       1.274  -5.606  -6.988  0.00  0.00    +0.210 HD
ENDBRANCH  15  16
ENDBRANCH   8  10
BRANCH   1  18
ATOM     18  O   UNL     1       0.671  -0.465  -1.174  0.00  0.00    -0.463 OA
BRANCH  18  20
ATOM     19  C   UNL     1      -0.019   1.526   0.010  0.00  0.00    +0.048 C 
ATOM     20  C   UNL     1       0.002  -0.004   0.002  0.00  0.00    +0.229 C 
ENDBRANCH  18  20
ENDBRANCH   1  18
TORSDOF 4
