REMARK  Name = ZINC13345195
REMARK  8 active torsions:
REMARK  status: ('A' for Active; 'I' for Inactive)
REMARK    1  A    between atoms: C_1  and  O_2
REMARK    2  A    between atoms: O_2  and  C_3
REMARK    3  A    between atoms: C_5  and  C_11
REMARK    4  A    between atoms: C_8  and  O_9
REMARK    5  A    between atoms: C_12  and  C_13
REMARK    6  A    between atoms: C_12  and  C_15
REMARK    7  A    between atoms: N_17  and  C_18
REMARK    8  A    between atoms: C_23  and  C_24
REMARK                            x       y       z     vdW  Elec       q    Type
REMARK                         _______ _______ _______ _____ _____    ______ ____
ROOT
ATOM      1  C   UNL     1      -0.228  -0.068   0.465  0.00  0.00    +0.032 C 
ATOM      2  C   UNL     1      -0.292   1.308   0.437  0.00  0.00    +0.114 C 
ENDROOT
BRANCH   1   5
ATOM      3  C   UNL     1       2.449  -2.642   0.960  0.00  0.00    +0.163 A 
ATOM      4  C   UNL     1       1.222  -2.013   0.999  0.00  0.00    +0.057 A 
ATOM      5  C   UNL     1       1.071  -0.742   0.427  0.00  0.00    -0.019 A 
ATOM      6  C   UNL     1       2.168  -0.120  -0.187  0.00  0.00    +0.026 A 
ATOM      7  C   UNL     1       3.390  -0.754  -0.217  0.00  0.00    +0.059 A 
ATOM      8  C   UNL     1       3.537  -2.015   0.351  0.00  0.00    +0.172 A 
ATOM      9  I   UNL     1       5.030   0.179  -1.127  0.00  0.00    -0.040 I 
BRANCH   3  11
ATOM     10  C   UNL     1       1.444  -4.459   2.119  0.00  0.00    +0.277 C 
ATOM     11  O   UNL     1       2.599  -3.875   1.513  0.00  0.00    -0.491 OA
ENDBRANCH   3  11
BRANCH   8  12
ATOM     12  O   UNL     1       4.743  -2.637   0.315  0.00  0.00    -0.503 OA
ATOM     13  H   UNL     1       4.877  -3.190  -0.467  0.00  0.00    +0.292 HD
ENDBRANCH   8  12
ENDBRANCH   1   5
BRANCH   2  14
ATOM     14  C   UNL     1      -1.592   1.981   0.293  0.00  0.00    +0.259 C 
ATOM     15  O   UNL     1      -2.611   1.323   0.199  0.00  0.00    -0.269 OA
ATOM     16  N   UNL     1      -1.655   3.327   0.266  0.00  0.00    -0.280 N 
ATOM     17  H   UNL     1      -0.838   3.851   0.261  0.00  0.00    +0.155 HD
BRANCH  16  18
ATOM     18  C   UNL     1      -2.890   3.966   0.244  0.00  0.00    +0.048 A 
ATOM     19  C   UNL     1      -4.012   3.335   0.766  0.00  0.00    +0.024 A 
ATOM     20  C   UNL     1      -5.236   3.973   0.748  0.00  0.00    +0.002 A 
ATOM     21  C   UNL     1      -5.359   5.240   0.201  0.00  0.00    +0.001 A 
ATOM     22  C   UNL     1      -4.259   5.880  -0.327  0.00  0.00    +0.017 A 
ATOM     23  C   UNL     1      -3.011   5.250  -0.311  0.00  0.00    +0.084 A 
BRANCH  23  24
ATOM     24  C   UNL     1      -1.831   5.928  -0.875  0.00  0.00    +0.388 C 
ATOM     25  O   UNL     1      -0.771   5.338  -0.954  0.00  0.00    -0.241 OA
ATOM     26  O   UNL     1      -1.926   7.202  -1.303  0.00  0.00    -0.241 OA
ENDBRANCH  23  24
ENDBRANCH  16  18
ENDBRANCH   2  14
BRANCH   2  27
ATOM     27  C   UNL     1       0.908   2.083   0.541  0.00  0.00    +0.104 C 
ATOM     28  N   UNL     1       1.859   2.698   0.624  0.00  0.00    -0.191 NA
ENDBRANCH   2  27
TORSDOF 7
