REMARK  Name = ZINC01825331
REMARK  9 active torsions:
REMARK  status: ('A' for Active; 'I' for Inactive)
REMARK    1  A    between atoms: C_4  and  O_7
REMARK    2  A    between atoms: O_7  and  C_8
REMARK    3  A    between atoms: C_13  and  O_19
REMARK    4  A    between atoms: O_19  and  C_20
REMARK    5  A    between atoms: C_20  and  C_22
REMARK    6  A    between atoms: C_22  and  C_24
REMARK    7  A    between atoms: C_22  and  N_50
REMARK    8  A    between atoms: C_24  and  C_25
REMARK    9  A    between atoms: C_28  and  O_31
REMARK                            x       y       z     vdW  Elec       q    Type
REMARK                         _______ _______ _______ _____ _____    ______ ____
ROOT
ATOM      1  C   UNL     1       8.471   2.238  -1.852  0.00  0.00    +0.210 A 
ATOM      2  C   UNL     1       8.039   1.155  -2.529  0.00  0.00    +0.245 A 
ATOM      3  O   UNL     1       6.792   0.679  -2.414  0.00  0.00    -0.459 OA
ATOM      4  C   UNL     1       5.872   1.248  -1.609  0.00  0.00    +0.142 A 
ATOM      5  C   UNL     1       4.590   0.726  -1.510  0.00  0.00    +0.093 A 
ATOM      6  C   UNL     1       3.663   1.334  -0.680  0.00  0.00    +0.135 A 
ATOM      7  C   UNL     1       4.010   2.459   0.065  0.00  0.00    +0.047 A 
ATOM      8  C   UNL     1       5.268   2.982  -0.018  0.00  0.00    +0.019 A 
ATOM      9  C   UNL     1       6.212   2.384  -0.854  0.00  0.00    +0.068 A 
ATOM     10  C   UNL     1       7.581   2.918  -0.973  0.00  0.00    +0.234 A 
ATOM     11  O   UNL     1       7.936   3.900  -0.343  0.00  0.00    -0.283 OA
ENDROOT
BRANCH   1  12
ATOM     12  O   UNL     1       9.749   2.678  -2.007  0.00  0.00    -0.449 OA
BRANCH  12  16
ATOM     13  C   UNL     1      12.090   0.855  -4.873  0.00  0.00    +0.000 A 
ATOM     14  C   UNL     1      11.005   1.622  -5.255  0.00  0.00    +0.004 A 
ATOM     15  C   UNL     1      10.219   2.234  -4.297  0.00  0.00    +0.046 A 
ATOM     16  C   UNL     1      10.520   2.078  -2.951  0.00  0.00    +0.129 A 
ATOM     17  C   UNL     1      11.614   1.312  -2.572  0.00  0.00    +0.046 A 
ATOM     18  C   UNL     1      12.393   0.699  -3.533  0.00  0.00    +0.004 A 
ENDBRANCH  12  16
ENDBRANCH   1  12
BRANCH   6  19
ATOM     19  O   UNL     1       2.407   0.826  -0.587  0.00  0.00    -0.427 OA
BRANCH  19  20
ATOM     20  C   UNL     1       1.431   1.495  -1.221  0.00  0.00    +0.298 C 
ATOM     21  O   UNL     1       1.672   2.548  -1.762  0.00  0.00    -0.252 OA
BRANCH  20  22
ATOM     22  C   UNL     1       0.033   0.932  -1.257  0.00  0.00    +0.041 C 
BRANCH  22  25
ATOM     23  H   UNL     1      -0.928   2.701  -0.826  0.00  0.00    -0.089 HD
ATOM     24  H   UNL     1      -0.718   2.430  -2.453  0.00  0.00    -0.089 HD
ATOM     25  N   UNL     1      -0.942   1.995  -1.560  0.00  0.00    +0.387 N 
ATOM     26  H   UNL     1      -1.882   1.585  -1.613  0.00  0.00    -0.089 HD
ENDBRANCH  22  25
BRANCH  22  27
ATOM     27  C   UNL     1      -0.055  -0.146  -2.340  0.00  0.00    +0.030 C 
BRANCH  27  28
ATOM     28  C   UNL     1      -1.415  -0.793  -2.295  0.00  0.00    -0.048 A 
ATOM     29  C   UNL     1      -1.623  -1.907  -1.502  0.00  0.00    +0.007 A 
ATOM     30  C   UNL     1      -2.870  -2.499  -1.454  0.00  0.00    +0.045 A 
ATOM     31  C   UNL     1      -3.912  -1.982  -2.211  0.00  0.00    +0.117 A 
ATOM     32  C   UNL     1      -3.699  -0.868  -3.010  0.00  0.00    +0.045 A 
ATOM     33  C   UNL     1      -2.451  -0.276  -3.050  0.00  0.00    +0.007 A 
BRANCH  31  34
ATOM     34  O   UNL     1      -5.138  -2.566  -2.170  0.00  0.00    -0.507 OA
ATOM     35  H   UNL     1      -5.265  -3.261  -2.831  0.00  0.00    +0.292 HD
ENDBRANCH  31  34
ENDBRANCH  27  28
ENDBRANCH  22  27
ENDBRANCH  20  22
ENDBRANCH  19  20
ENDBRANCH   6  19
TORSDOF 9
