REMARK  Name = ZINC12849520
REMARK  12 active torsions:
REMARK  status: ('A' for Active; 'I' for Inactive)
REMARK    1  A    between atoms: C_1  and  C_2
REMARK    2  A    between atoms: C_2  and  C_3
REMARK    3  A    between atoms: C_3  and  C_4
REMARK    4  A    between atoms: C_4  and  N_5
REMARK    5  A    between atoms: C_6  and  N_38
REMARK    6  A    between atoms: C_7  and  N_14
REMARK    7  A    between atoms: N_14  and  C_15
REMARK    8  A    between atoms: C_15  and  C_16
REMARK    9  A    between atoms: C_16  and  C_17
REMARK   10  A    between atoms: C_16  and  C_18
REMARK   11  A    between atoms: C_19  and  C_21
REMARK   12  A    between atoms: C_25  and  N_27
REMARK                            x       y       z     vdW  Elec       q    Type
REMARK                         _______ _______ _______ _____ _____    ______ ____
ROOT
ATOM      1  N   UNL     1      -3.760   1.578  -0.123  0.00  0.00    -0.260 N 
ATOM      2  C   UNL     1      -2.673   0.886   0.272  0.00  0.00    +0.251 C 
ATOM      3  O   UNL     1      -1.626   1.467   0.484  0.00  0.00    -0.270 OA
ENDROOT
BRANCH   1   6
ATOM      4  N   UNL     1      -6.363  -0.726  -1.311  0.00  0.00    -0.280 N 
ATOM      5  C   UNL     1      -5.144  -0.101  -1.191  0.00  0.00    +0.127 A 
ATOM      6  C   UNL     1      -4.998   0.920  -0.274  0.00  0.00    +0.140 A 
ATOM      7  C   UNL     1      -6.109   1.298   0.505  0.00  0.00    +0.277 A 
ATOM      8  O   UNL     1      -6.009   2.200   1.319  0.00  0.00    -0.266 OA
ATOM      9  N   UNL     1      -7.282   0.656   0.344  0.00  0.00    -0.273 N 
ATOM     10  H   UNL     1      -8.072   0.923   0.896  0.00  0.00    +0.173 HD
ATOM     11  C   UNL     1      -7.404  -0.340  -0.552  0.00  0.00    +0.331 A 
ATOM     12  O   UNL     1      -8.475  -0.902  -0.677  0.00  0.00    -0.246 OA
BRANCH   5  13
ATOM     13  N   UNL     1      -4.082  -0.491  -1.971  0.00  0.00    -0.343 N 
ATOM     14  H   UNL     1      -3.207  -0.097  -1.832  0.00  0.00    +0.144 HD
ATOM     15  H   UNL     1      -4.207  -1.162  -2.661  0.00  0.00    +0.144 HD
ENDBRANCH   5  13
BRANCH   4  16
ATOM     16  C   UNL     1      -6.530  -1.815  -2.277  0.00  0.00    +0.128 C 
BRANCH  16  17
ATOM     17  C   UNL     1      -6.972  -1.239  -3.624  0.00  0.00    +0.021 C 
BRANCH  17  19
ATOM     18  C   UNL     1      -7.588  -1.801  -5.979  0.00  0.00    +0.004 C 
ATOM     19  C   UNL     1      -7.147  -2.377  -4.632  0.00  0.00    -0.002 C 
ENDBRANCH  17  19
ENDBRANCH  16  17
ENDBRANCH   4  16
ENDBRANCH   1   6
BRANCH   2  20
ATOM     20  C   UNL     1      -2.753  -0.580   0.447  0.00  0.00    +0.039 A 
ATOM     21  C   UNL     1      -3.975  -1.183   0.751  0.00  0.00    +0.013 A 
ATOM     22  C   UNL     1      -4.046  -2.551   0.917  0.00  0.00    +0.003 A 
ATOM     23  C   UNL     1      -2.911  -3.329   0.780  0.00  0.00    +0.024 A 
ATOM     24  C   UNL     1      -1.692  -2.738   0.473  0.00  0.00    +0.045 A 
ATOM     25  C   UNL     1      -1.610  -1.365   0.303  0.00  0.00    +0.037 A 
BRANCH  24  26
ATOM     26  N   UNL     1      -0.544  -3.531   0.335  0.00  0.00    -0.202 N 
ATOM     27  C   UNL     1       0.678  -3.056   0.034  0.00  0.00    +0.258 C 
ATOM     28  O   UNL     1       0.957  -1.890  -0.159  0.00  0.00    -0.269 OA
ATOM     29  C   UNL     1       1.624  -4.191  -0.020  0.00  0.00    +0.050 A 
ATOM     30  C   UNL     1       2.981  -4.308  -0.275  0.00  0.00    +0.014 A 
ATOM     31  C   UNL     1       3.579  -5.558  -0.254  0.00  0.00    +0.001 A 
ATOM     32  C   UNL     1       2.831  -6.688   0.021  0.00  0.00    +0.001 A 
ATOM     33  C   UNL     1       1.473  -6.586   0.279  0.00  0.00    +0.014 A 
ATOM     34  C   UNL     1       0.862  -5.343   0.260  0.00  0.00    +0.050 A 
ATOM     35  C   UNL     1      -0.521  -4.869   0.481  0.00  0.00    +0.258 C 
ATOM     36  O   UNL     1      -1.476  -5.569   0.748  0.00  0.00    -0.269 OA
ENDBRANCH  24  26
ENDBRANCH   2  20
BRANCH   1  37
ATOM     37  C   UNL     1      -3.655   3.014  -0.396  0.00  0.00    +0.117 C 
BRANCH  37  38
ATOM     38  C   UNL     1      -3.159   3.225  -1.828  0.00  0.00    +0.001 C 
ATOM     39  C   UNL     1      -4.216   2.724  -2.814  0.00  0.00    +0.009 C 
ATOM     40  C   UNL     1      -2.907   4.716  -2.065  0.00  0.00    +0.009 C 
ENDBRANCH  37  38
ENDBRANCH   1  37
TORSDOF 9
