REMARK  Name = ZINC44516583
REMARK  5 active torsions:
REMARK  status: ('A' for Active; 'I' for Inactive)
REMARK    1  A    between atoms: C_1  and  N_2
REMARK    2  A    between atoms: C_5  and  C_8
REMARK    3  A    between atoms: C_8  and  N_9
REMARK    4  A    between atoms: N_9  and  C_10
REMARK    5  A    between atoms: C_16  and  C_18
REMARK                            x       y       z     vdW  Elec       q    Type
REMARK                         _______ _______ _______ _____ _____    ______ ____
ROOT
ATOM      1  N   UNL     1       1.997  -4.654   1.084  0.00  0.00    +0.381 N 
ATOM      2  H   UNL     1       2.966  -4.389   0.986  0.00  0.00    -0.086 HD
ATOM      3  H   UNL     1       1.635  -4.294   1.954  0.00  0.00    -0.086 HD
ENDROOT
BRANCH   1   4
ATOM      4  C   UNL     1       1.889  -6.120   1.077  0.00  0.00    -0.068 C 
ATOM      5  C   UNL     1       2.550  -6.674  -0.186  0.00  0.00    -0.015 C 
ATOM      6  C   UNL     1       4.026  -6.272  -0.208  0.00  0.00    -0.002 C 
ATOM      7  C   UNL     1       4.728  -6.841   1.027  0.00  0.00    +0.000 C 
ATOM      8  C   UNL     1       4.067  -6.286   2.290  0.00  0.00    +0.002 C 
ATOM      9  C   UNL     1       2.591  -6.688   2.312  0.00  0.00    -0.022 C 
BRANCH   9  10
ATOM     10  C   UNL     1       1.929  -6.133   3.575  0.00  0.00    -0.009 C 
ATOM     11  C   UNL     1       0.453  -6.536   3.597  0.00  0.00    +0.004 C 
ATOM     12  C   UNL     1      -0.208  -5.981   4.860  0.00  0.00    +0.000 C 
ATOM     13  C   UNL     1       0.494  -6.550   6.095  0.00  0.00    +0.000 C 
ATOM     14  C   UNL     1       1.970  -6.147   6.073  0.00  0.00    +0.000 C 
ATOM     15  C   UNL     1       2.631  -6.702   4.810  0.00  0.00    +0.004 C 
ENDBRANCH   9  10
ENDBRANCH   1   4
BRANCH   1  16
ATOM     16  C   UNL     1       1.223  -4.101  -0.035  0.00  0.00    -0.079 C 
BRANCH  16  21
ATOM     17  C   UNL     1      -0.018   1.465   0.010  0.00  0.00    -0.096 C 
ATOM     18  N   UNL     1       0.002  -0.004   0.002  0.00  0.00    +0.378 N 
ATOM     19  C   UNL     1       0.681  -0.476  -1.210  0.00  0.00    -0.079 C 
ATOM     20  C   UNL     1       0.634  -2.005  -1.264  0.00  0.00    -0.017 C 
ATOM     21  C   UNL     1       1.336  -2.575  -0.029  0.00  0.00    -0.032 C 
ATOM     22  C   UNL     1       0.666  -2.018   1.230  0.00  0.00    -0.017 C 
ATOM     23  C   UNL     1       0.712  -0.489   1.192  0.00  0.00    -0.079 C 
ATOM     24  H   UNL     1      -0.945  -0.352   0.012  0.00  0.00    -0.082 HD
ENDBRANCH  16  21
ENDBRANCH   1  16
TORSDOF 4
