REMARK  Name = ZINC19755909
REMARK  8 active torsions:
REMARK  status: ('A' for Active; 'I' for Inactive)
REMARK    1  A    between atoms: C_1  and  C_2
REMARK    2  A    between atoms: C_2  and  C_3
REMARK    3  A    between atoms: C_7  and  C_24
REMARK    4  A    between atoms: C_8  and  N_9
REMARK    5  A    between atoms: C_10  and  C_12
REMARK    6  A    between atoms: C_12  and  N_13
REMARK    7  A    between atoms: C_20  and  N_23
REMARK    8  A    between atoms: C_24  and  C_25
REMARK                            x       y       z     vdW  Elec       q    Type
REMARK                         _______ _______ _______ _____ _____    ______ ____
ROOT
ATOM      1  N   UNL     1       0.581   0.896   2.045  0.00  0.00    -0.284 N 
ATOM      2  C   UNL     1       0.109   0.685   3.290  0.00  0.00    +0.235 C 
ATOM      3  O   UNL     1      -0.374  -0.388   3.582  0.00  0.00    -0.274 OA
ATOM      4  H   UNL     1       1.099   1.836   1.805  0.00  0.00    +0.155 HD
ENDROOT
BRANCH   1  10
ATOM      5  C   UNL     1      -0.301   0.210  -0.096  0.00  0.00    -0.026 A 
ATOM      6  C   UNL     1      -0.470  -0.759  -1.065  0.00  0.00    +0.005 A 
ATOM      7  C   UNL     1       0.080  -2.016  -0.892  0.00  0.00    +0.001 A 
ATOM      8  C   UNL     1       0.792  -2.310   0.257  0.00  0.00    +0.005 A 
ATOM      9  C   UNL     1       0.960  -1.347   1.232  0.00  0.00    -0.026 A 
ATOM     10  C   UNL     1       0.413  -0.082   1.059  0.00  0.00    +0.040 A 
BRANCH   5  12
ATOM     11  C   UNL     1       0.160   2.517  -0.881  0.00  0.00    +0.009 C 
ATOM     12  C   UNL     1      -0.896   1.581  -0.289  0.00  0.00    +0.033 C 
ENDBRANCH   5  12
BRANCH   9  13
ATOM     13  C   UNL     1       1.735  -1.668   2.484  0.00  0.00    +0.033 C 
ATOM     14  C   UNL     1       0.934  -2.649   3.342  0.00  0.00    +0.009 C 
ENDBRANCH   9  13
ENDBRANCH   1  10
BRANCH   2  15
ATOM     15  C   UNL     1       0.181   1.784   4.319  0.00  0.00    +0.201 C 
BRANCH  15  16
ATOM     16  N   UNL     1      -0.320   1.283   5.606  0.00  0.00    -0.315 N 
ATOM     17  C   UNL     1      -1.737   0.912   5.510  0.00  0.00    +0.146 C 
ATOM     18  C   UNL     1      -2.169   0.283   6.842  0.00  0.00    +0.248 C 
ATOM     19  O   UNL     1      -1.411  -0.916   7.028  0.00  0.00    -0.489 OA
ATOM     20  C   UNL     1      -0.074  -0.841   6.777  0.00  0.00    +0.142 A 
ATOM     21  C   UNL     1       0.470   0.229   6.075  0.00  0.00    +0.074 A 
ATOM     22  C   UNL     1       1.838   0.264   5.829  0.00  0.00    +0.049 A 
ATOM     23  C   UNL     1       2.655  -0.760   6.283  0.00  0.00    +0.027 A 
ATOM     24  C   UNL     1       2.107  -1.825   6.986  0.00  0.00    +0.026 A 
ATOM     25  C   UNL     1       0.747  -1.862   7.230  0.00  0.00    +0.049 A 
BRANCH  23  26
ATOM     26  N   UNL     1       4.031  -0.722   6.032  0.00  0.00    -0.358 N 
ATOM     27  H   UNL     1       4.679  -1.535   6.393  0.00  0.00    +0.142 HD
ATOM     28  H   UNL     1       4.465   0.121   5.475  0.00  0.00    +0.142 HD
ENDBRANCH  23  26
ENDBRANCH  15  16
ENDBRANCH   2  15
TORSDOF 6
