REMARK  Name = ZINC19324439
REMARK  4 active torsions:
REMARK  status: ('A' for Active; 'I' for Inactive)
REMARK    1  A    between atoms: C_1  and  C_2
REMARK    2  A    between atoms: C_2  and  N_3
REMARK    3  A    between atoms: C_12  and  C_21
REMARK    4  A    between atoms: C_15  and  C_20
REMARK                            x       y       z     vdW  Elec       q    Type
REMARK                         _______ _______ _______ _____ _____    ______ ____
ROOT
ATOM      1  N   UNL     1      -1.376  -0.512   0.012  0.00  0.00    -0.268 NA
ATOM      2  C   UNL     1      -1.399  -1.972   0.221  0.00  0.00    +0.193 C 
ATOM      3  N   UNL     1      -2.809  -2.381   0.317  0.00  0.00    -0.304 N 
ATOM      4  C   UNL     1      -3.712  -1.817  -0.556  0.00  0.00    +0.184 C 
ATOM      5  N   UNL     1      -3.394  -0.787  -1.275  0.00  0.00    -0.240 NA
ATOM      6  C   UNL     1      -2.074  -0.166  -1.232  0.00  0.00    +0.232 C 
ATOM      7  N   UNL     1      -4.976  -2.357  -0.668  0.00  0.00    -0.256 N 
ATOM      8  C   UNL     1      -5.894  -1.797  -1.544  0.00  0.00    +0.222 A 
ATOM      9  N   UNL     1      -7.108  -2.337  -1.627  0.00  0.00    -0.219 NA
ATOM     10  C   UNL     1      -8.024  -1.851  -2.439  0.00  0.00    +0.051 A 
ATOM     11  C   UNL     1      -7.695  -0.736  -3.231  0.00  0.00    +0.022 A 
ATOM     12  C   UNL     1      -8.612  -0.158  -4.121  0.00  0.00    +0.015 A 
ATOM     13  C   UNL     1      -8.238   0.921  -4.863  0.00  0.00    -0.050 A 
ATOM     14  C   UNL     1      -6.958   1.459  -4.751  0.00  0.00    +0.005 A 
ATOM     15  C   UNL     1      -6.042   0.923  -3.897  0.00  0.00    +0.029 A 
ATOM     16  C   UNL     1      -6.391  -0.189  -3.116  0.00  0.00    +0.076 A 
ATOM     17  N   UNL     1      -5.531  -0.750  -2.257  0.00  0.00    -0.214 NA
ATOM     18  C   UNL     1      -9.223   1.542  -5.819  0.00  0.00    +0.044 C 
ATOM     19  C   UNL     1      -9.393  -2.476  -2.518  0.00  0.00    +0.066 C 
ATOM     20  H   UNL     1      -3.095  -3.031   0.978  0.00  0.00    +0.150 HD
ATOM     21  H   UNL     1      -5.223  -3.127  -0.133  0.00  0.00    +0.158 HD
ENDROOT
BRANCH   1  23
ATOM     22  C   UNL     1      -0.019   1.526   0.010  0.00  0.00    +0.020 C 
ATOM     23  C   UNL     1       0.002  -0.004   0.002  0.00  0.00    +0.084 C 
ENDBRANCH   1  23
TORSDOF 1
