REMARK  Name = ZINC65964720
REMARK  3 active torsions:
REMARK  status: ('A' for Active; 'I' for Inactive)
REMARK    1  A    between atoms: C_4  and  N_7
REMARK    2  A    between atoms: C_8  and  C_10
REMARK    3  A    between atoms: N_13  and  C_16
REMARK                            x       y       z     vdW  Elec       q    Type
REMARK                         _______ _______ _______ _____ _____    ______ ____
ROOT
ATOM      1  C   UNL     1       4.130  -2.140  -3.723  0.00  0.00    +0.077 C 
ATOM      2  C   UNL     1       3.135  -2.207  -4.885  0.00  0.00    +0.028 C 
ATOM      3  C   UNL     1       3.842  -2.759  -6.125  0.00  0.00    +0.086 C 
ATOM      4  N   UNL     1       4.372  -4.097  -5.833  0.00  0.00    -0.290 NA
ATOM      5  C   UNL     1       5.364  -4.051  -4.752  0.00  0.00    +0.086 C 
ATOM      6  C   UNL     1       4.703  -3.538  -3.471  0.00  0.00    +0.028 C 
ENDROOT
BRANCH   4   7
ATOM      7  C   UNL     1       4.936  -4.714  -7.041  0.00  0.00    +0.169 C 
ATOM      8  C   UNL     1       5.355  -6.180  -6.757  0.00  0.00    +0.071 C 
ATOM      9  C   UNL     1       6.714  -6.242  -7.505  0.00  0.00    +0.234 C 
ATOM     10  O   UNL     1       7.245  -4.914  -7.308  0.00  0.00    -0.463 OA
ATOM     11  C   UNL     1       6.234  -4.032  -7.430  0.00  0.00    +0.325 C 
ATOM     12  O   UNL     1       6.343  -2.885  -7.792  0.00  0.00    -0.249 OA
ENDBRANCH   4   7
BRANCH   1  14
ATOM     13  N   UNL     1       2.839  -0.440  -2.473  0.00  0.00    -0.312 N 
ATOM     14  C   UNL     1       3.424  -1.655  -2.483  0.00  0.00    +0.216 C 
ATOM     15  O   UNL     1       3.383  -2.356  -1.495  0.00  0.00    -0.276 OA
ATOM     16  H   UNL     1       2.872   0.121  -3.264  0.00  0.00    +0.149 HD
BRANCH  13  20
ATOM     17  C   UNL     1      -0.019   1.526   0.010  0.00  0.00    +0.000 C 
ATOM     18  C   UNL     1       1.417   2.055  -0.000  0.00  0.00    +0.002 C 
ATOM     19  C   UNL     1       2.133   1.562  -1.259  0.00  0.00    +0.022 C 
ATOM     20  C   UNL     1       2.154   0.032  -1.268  0.00  0.00    +0.073 C 
ATOM     21  C   UNL     1       0.718  -0.497  -1.257  0.00  0.00    +0.022 C 
ATOM     22  C   UNL     1       0.002  -0.004   0.002  0.00  0.00    +0.002 C 
ENDBRANCH  13  20
ENDBRANCH   1  14
TORSDOF 3
