REMARK  Name = ZINC55273584
REMARK  7 active torsions:
REMARK  status: ('A' for Active; 'I' for Inactive)
REMARK    1  A    between atoms: C_1  and  C_2
REMARK    2  A    between atoms: C_2  and  C_3
REMARK    3  A    between atoms: C_6  and  C_9
REMARK    4  A    between atoms: C_6  and  N_21
REMARK    5  A    between atoms: C_11  and  C_14
REMARK    6  A    between atoms: C_14  and  C_15
REMARK    7  A    between atoms: C_18  and  C_20
REMARK                            x       y       z     vdW  Elec       q    Type
REMARK                         _______ _______ _______ _____ _____    ______ ____
ROOT
ATOM      1  C   UNL     1      -1.433  -0.534   0.013  0.00  0.00    -0.011 C 
ATOM      2  C   UNL     1      -2.110  -0.145   1.329  0.00  0.00    +0.002 C 
ATOM      3  C   UNL     1      -3.546  -0.675   1.340  0.00  0.00    -0.003 C 
ATOM      4  C   UNL     1      -3.528  -2.199   1.206  0.00  0.00    +0.010 C 
ATOM      5  C   UNL     1      -2.851  -2.587  -0.110  0.00  0.00    -0.003 C 
ATOM      6  C   UNL     1      -1.416  -2.058  -0.121  0.00  0.00    +0.002 C 
ENDROOT
BRANCH   4   7
ATOM      7  C   UNL     1      -2.764  -2.796   2.359  0.00  0.00    +0.216 A 
ATOM      8  N   UNL     1      -2.548  -4.067   2.557  0.00  0.00    -0.197 NA
ATOM      9  C   UNL     1      -1.836  -4.243   3.676  0.00  0.00    +0.177 A 
ATOM     10  N   UNL     1      -1.588  -3.080   4.206  0.00  0.00    -0.061 NA
ATOM     11  O   UNL     1      -2.184  -2.112   3.354  0.00  0.00    -0.340 OA
BRANCH   9  12
ATOM     12  C   UNL     1      -1.393  -5.571   4.232  0.00  0.00    +0.135 C 
BRANCH  12  13
ATOM     13  C   UNL     1      -0.043  -5.928   3.665  0.00  0.00    +0.056 A 
ATOM     14  C   UNL     1       1.010  -6.223   4.471  0.00  0.00    +0.070 A 
ATOM     15  S   UNL     1       2.275  -6.548   3.253  0.00  0.00    -0.081 S 
ATOM     16  C   UNL     1       1.345  -6.280   1.876  0.00  0.00    +0.076 A 
ATOM     17  N   UNL     1       0.169  -5.974   2.365  0.00  0.00    -0.249 NA
ATOM     18  C   UNL     1       1.763  -6.374   0.431  0.00  0.00    +0.073 C 
ENDBRANCH  12  13
ENDBRANCH   9  12
ENDBRANCH   4   7
BRANCH   4  19
ATOM     19  N   UNL     1      -4.906  -2.707   1.216  0.00  0.00    +0.388 N 
ATOM     20  H   UNL     1      -5.418  -2.308   0.444  0.00  0.00    -0.089 HD
ATOM     21  H   UNL     1      -4.894  -3.712   1.128  0.00  0.00    -0.089 HD
ATOM     22  H   UNL     1      -5.353  -2.451   2.084  0.00  0.00    -0.089 HD
ENDBRANCH   4  19
BRANCH   1  24
ATOM     23  C   UNL     1      -0.019   1.526   0.010  0.00  0.00    +0.004 C 
ATOM     24  C   UNL     1       0.002  -0.004   0.002  0.00  0.00    -0.000 C 
ENDBRANCH   1  24
TORSDOF 5
