REMARK  Name = ZINC39947185
REMARK  5 active torsions:
REMARK  status: ('A' for Active; 'I' for Inactive)
REMARK    1  A    between atoms: C_1  and  C_2
REMARK    2  A    between atoms: C_5  and  S_10
REMARK    3  A    between atoms: S_10  and  C_11
REMARK    4  A    between atoms: C_15  and  C_20
REMARK    5  A    between atoms: N_16  and  C_17
REMARK                            x       y       z     vdW  Elec       q    Type
REMARK                         _______ _______ _______ _____ _____    ______ ____
ROOT
ATOM      1  C   UNL     1       4.883  -1.578  -0.687  0.00  0.00    +0.238 C 
ATOM      2  N   UNL     1       4.874  -1.355   0.768  0.00  0.00    -0.237 N 
ATOM      3  N   UNL     1       5.338  -0.051   0.974  0.00  0.00    -0.169 NA
ATOM      4  C   UNL     1       5.622   0.536  -0.159  0.00  0.00    +0.147 C 
ATOM      5  N   UNL     1       5.381  -0.312  -1.248  0.00  0.00    -0.282 N 
ATOM      6  H   UNL     1       4.601  -1.988   1.451  0.00  0.00    +0.171 HD
ENDROOT
BRANCH   4   7
ATOM      7  C   UNL     1       6.107   1.848  -0.271  0.00  0.00    +0.022 C 
ATOM      8  C   UNL     1       6.276   2.776   0.757  0.00  0.00    +0.006 A 
ATOM      9  C   UNL     1       6.034   2.713   2.146  0.00  0.00    +0.010 A 
ATOM     10  C   UNL     1       6.297   3.794   2.925  0.00  0.00    +0.001 A 
ATOM     11  C   UNL     1       6.804   4.978   2.385  0.00  0.00    +0.002 A 
ATOM     12  C   UNL     1       7.060   5.108   1.060  0.00  0.00    +0.026 A 
ATOM     13  C   UNL     1       6.810   4.021   0.183  0.00  0.00    +0.043 A 
ATOM     14  N   UNL     1       6.972   3.896  -1.120  0.00  0.00    -0.380 N 
ATOM     15  C   UNL     1       6.564   2.550  -1.531  0.00  0.00    +0.152 C 
ATOM     16  H   UNL     1       7.311   4.586  -1.712  0.00  0.00    +0.160 HD
ENDBRANCH   4   7
BRANCH   5  17
ATOM     17  C   UNL     1       5.584  -0.001  -2.665  0.00  0.00    +0.078 C 
ATOM     18  C   UNL     1       5.315  -1.116  -3.678  0.00  0.00    +0.024 C 
ATOM     19  C   UNL     1       4.344   0.061  -3.559  0.00  0.00    +0.024 C 
ENDBRANCH   5  17
BRANCH   1  20
ATOM     20  S   UNL     1       3.205  -1.920  -1.286  0.00  0.00    -0.103 S 
BRANCH  20  24
ATOM     21  C   UNL     1      -0.049   1.448   0.009  0.00  0.00    +0.052 C 
ATOM     22  C   UNL     1      -0.006  -0.080  -0.060  0.00  0.00    +0.175 C 
ATOM     23  C   UNL     1       0.798  -0.552  -1.302  0.00  0.00    +0.070 C 
ATOM     24  C   UNL     1       2.246  -0.475  -0.754  0.00  0.00    +0.162 C 
ATOM     25  C   UNL     1       2.068  -0.476   0.752  0.00  0.00    +0.321 C 
ATOM     26  O   UNL     1       2.956  -0.365   1.564  0.00  0.00    -0.250 OA
ATOM     27  O   UNL     1       0.755  -0.620   1.041  0.00  0.00    -0.461 OA
ENDBRANCH  20  24
ENDBRANCH   1  20
TORSDOF 4
