REMARK  Name = ZINC62211395
REMARK  10 active torsions:
REMARK  status: ('A' for Active; 'I' for Inactive)
REMARK    1  A    between atoms: C_1  and  C_2
REMARK    2  A    between atoms: C_2  and  N_3
REMARK    3  A    between atoms: C_4  and  C_13
REMARK    4  A    between atoms: C_6  and  N_12
REMARK    5  A    between atoms: C_16  and  O_23
REMARK    6  A    between atoms: C_17  and  O_19
REMARK    7  A    between atoms: O_19  and  C_20
REMARK    8  A    between atoms: C_20  and  C_21
REMARK    9  A    between atoms: C_20  and  C_22
REMARK   10  A    between atoms: O_23  and  C_24
REMARK                            x       y       z     vdW  Elec       q    Type
REMARK                         _______ _______ _______ _____ _____    ______ ____
ROOT
ATOM      1  N   UNL     1      -0.946  -0.338  -0.051  0.00  0.00    -0.296 N 
ATOM      2  C   UNL     1      -1.672  -0.450   1.208  0.00  0.00    +0.092 C 
ATOM      3  C   UNL     1      -3.005  -1.167   0.995  0.00  0.00    -0.049 C 
ATOM      4  C   UNL     1      -3.744  -0.495  -0.169  0.00  0.00    -0.005 C 
ATOM      5  C   UNL     1      -2.965  -0.770  -1.458  0.00  0.00    +0.094 C 
ATOM      6  C   UNL     1      -1.511  -0.452  -1.253  0.00  0.00    +0.216 C 
ATOM      7  O   UNL     1      -0.814  -0.295  -2.232  0.00  0.00    -0.276 OA
ENDROOT
BRANCH   2   8
ATOM      8  C   UNL     1      -0.843  -1.231   2.194  0.00  0.00    -0.025 A 
ATOM      9  C   UNL     1      -0.122  -2.332   1.770  0.00  0.00    +0.009 A 
ATOM     10  C   UNL     1       0.640  -3.052   2.670  0.00  0.00    +0.050 A 
ATOM     11  C   UNL     1       0.684  -2.671   4.002  0.00  0.00    +0.162 A 
ATOM     12  C   UNL     1      -0.041  -1.563   4.429  0.00  0.00    +0.163 A 
ATOM     13  C   UNL     1      -0.800  -0.843   3.520  0.00  0.00    +0.054 A 
BRANCH  11  14
ATOM     14  O   UNL     1       1.433  -3.379   4.889  0.00  0.00    -0.491 OA
ATOM     15  C   UNL     1       2.150  -4.505   4.380  0.00  0.00    +0.277 C 
ENDBRANCH  11  14
BRANCH  12  16
ATOM     16  O   UNL     1      -0.002  -1.185   5.735  0.00  0.00    -0.486 OA
BRANCH  16  17
ATOM     17  C   UNL     1      -0.860  -0.111   6.125  0.00  0.00    +0.167 C 
ATOM     18  C   UNL     1      -1.166  -0.220   7.621  0.00  0.00    +0.051 C 
ATOM     19  C   UNL     1      -0.166   1.223   5.843  0.00  0.00    +0.051 C 
ENDBRANCH  16  17
ENDBRANCH  12  16
ENDBRANCH   2   8
BRANCH   3  20
ATOM     20  N   UNL     1      -3.816  -1.073   2.217  0.00  0.00    +0.381 N 
ATOM     21  H   UNL     1      -3.988  -0.103   2.432  0.00  0.00    -0.090 HD
ATOM     22  H   UNL     1      -4.696  -1.547   2.074  0.00  0.00    -0.090 HD
ATOM     23  H   UNL     1      -3.322  -1.505   2.983  0.00  0.00    -0.090 HD
ENDBRANCH   3  20
BRANCH   1  25
ATOM     24  C   UNL     1       0.742   1.431   0.015  0.00  0.00    +0.024 C 
ATOM     25  C   UNL     1       0.495  -0.079   0.009  0.00  0.00    +0.105 C 
ENDBRANCH   1  25
TORSDOF 6
