REMARK  Name = ZINC14017304
REMARK  8 active torsions:
REMARK  status: ('A' for Active; 'I' for Inactive)
REMARK    1  A    between atoms: C_1  and  C_2
REMARK    2  A    between atoms: C_11  and  N_15
REMARK    3  A    between atoms: N_15  and  C_16
REMARK    4  A    between atoms: C_16  and  C_18
REMARK    5  A    between atoms: C_16  and  C_19
REMARK    6  A    between atoms: C_19  and  C_21
REMARK    7  A    between atoms: C_19  and  O_28
REMARK    8  A    between atoms: C_24  and  O_27
REMARK                            x       y       z     vdW  Elec       q    Type
REMARK                         _______ _______ _______ _____ _____    ______ ____
ROOT
ATOM      1  N   UNL     1       3.230  -0.936   0.116  0.00  0.00    -0.323 N 
ATOM      2  H   UNL     1       4.022  -0.378   0.075  0.00  0.00    +0.148 HD
ENDROOT
BRANCH   1  12
ATOM      3  C   UNL     1       5.757   5.304   0.535  0.00  0.00    +0.008 C 
ATOM      4  C   UNL     1       4.785   4.184   0.157  0.00  0.00    -0.009 C 
ATOM      5  C   UNL     1       5.180   2.896   0.885  0.00  0.00    +0.008 C 
ATOM      6  C   UNL     1       4.375   1.720   0.330  0.00  0.00    +0.037 C 
ATOM      7  C   UNL     1       2.891   2.074   0.375  0.00  0.00    -0.025 A 
ATOM      8  C   UNL     1       2.491   3.357   0.488  0.00  0.00    -0.004 A 
ATOM      9  S   UNL     1       0.720   3.291   0.502  0.00  0.00    -0.073 S 
ATOM     10  C   UNL     1       0.517   1.535   0.356  0.00  0.00    +0.114 A 
ATOM     11  C   UNL     1       1.841   1.056   0.300  0.00  0.00    +0.051 A 
ATOM     12  C   UNL     1       1.976  -0.355   0.180  0.00  0.00    +0.131 A 
ATOM     13  N   UNL     1       0.886  -1.104   0.130  0.00  0.00    -0.220 NA
ATOM     14  C   UNL     1      -0.327  -0.585   0.188  0.00  0.00    +0.224 A 
ATOM     15  N   UNL     1      -0.515   0.716   0.299  0.00  0.00    -0.228 NA
ATOM     16  C   UNL     1       3.362   4.573   0.580  0.00  0.00    +0.046 C 
ENDBRANCH   1  12
BRANCH   1  17
ATOM     17  C   UNL     1       3.361  -2.395   0.110  0.00  0.00    +0.102 C 
ATOM     18  C   UNL     1       3.322  -2.905  -1.332  0.00  0.00    +0.031 C 
BRANCH  17  19
ATOM     19  C   UNL     1       4.691  -2.790   0.754  0.00  0.00    +0.164 C 
BRANCH  19  20
ATOM     20  C   UNL     1       4.729  -2.292   2.176  0.00  0.00    -0.017 A 
ATOM     21  C   UNL     1       5.249  -1.042   2.456  0.00  0.00    +0.010 A 
ATOM     22  C   UNL     1       5.279  -0.580   3.757  0.00  0.00    +0.046 A 
ATOM     23  C   UNL     1       4.797  -1.377   4.786  0.00  0.00    +0.117 A 
ATOM     24  C   UNL     1       4.280  -2.633   4.503  0.00  0.00    +0.046 A 
ATOM     25  C   UNL     1       4.247  -3.087   3.199  0.00  0.00    +0.010 A 
BRANCH  23  26
ATOM     26  O   UNL     1       4.832  -0.927   6.068  0.00  0.00    -0.507 OA
ATOM     27  H   UNL     1       5.645  -1.151   6.541  0.00  0.00    +0.292 HD
ENDBRANCH  23  26
ENDBRANCH  19  20
BRANCH  19  28
ATOM     28  O   UNL     1       5.769  -2.209   0.017  0.00  0.00    -0.385 OA
ATOM     29  H   UNL     1       5.745  -1.242  -0.018  0.00  0.00    +0.210 HD
ENDBRANCH  19  28
ENDBRANCH  17  19
ENDBRANCH   1  17
TORSDOF 6
