REMARK  Name = ZINC66988563
REMARK  9 active torsions:
REMARK  status: ('A' for Active; 'I' for Inactive)
REMARK    1  A    between atoms: C_1  and  C_2
REMARK    2  A    between atoms: C_2  and  N_3
REMARK    3  A    between atoms: N_3  and  C_4
REMARK    4  A    between atoms: N_3  and  C_5
REMARK    5  A    between atoms: C_5  and  C_6
REMARK    6  A    between atoms: C_6  and  N_7
REMARK    7  A    between atoms: N_10  and  C_11
REMARK    8  A    between atoms: C_11  and  C_13
REMARK    9  A    between atoms: C_11  and  C_14
REMARK                            x       y       z     vdW  Elec       q    Type
REMARK                         _______ _______ _______ _____ _____    ______ ____
ROOT
ATOM      1  N   UNL     1      -2.777  -3.954  -0.359  0.00  0.00    -0.301 N 
ATOM      2  C   UNL     1      -3.935  -4.633  -0.475  0.00  0.00    +0.300 C 
ATOM      3  O   UNL     1      -4.994  -4.035  -0.472  0.00  0.00    -0.253 OA
ATOM      4  N   UNL     1      -3.920  -5.976  -0.593  0.00  0.00    -0.290 N 
ATOM      5  H   UNL     1      -1.933  -4.431  -0.361  0.00  0.00    +0.150 HD
ATOM      6  H   UNL     1      -3.075  -6.453  -0.595  0.00  0.00    +0.151 HD
ENDROOT
BRANCH   4   7
ATOM      7  C   UNL     1      -5.178  -6.715  -0.718  0.00  0.00    +0.140 C 
ATOM      8  C   UNL     1      -5.612  -6.737  -2.185  0.00  0.00    +0.036 C 
BRANCH   7   9
ATOM      9  C   UNL     1      -4.983  -8.127  -0.231  0.00  0.00    +0.158 A 
ATOM     10  N   UNL     1      -3.973  -8.909  -0.511  0.00  0.00    -0.132 NA
ATOM     11  N   UNL     1      -4.117 -10.050   0.068  0.00  0.00    -0.129 NA
ATOM     12  C   UNL     1      -5.245 -10.054   0.759  0.00  0.00    +0.161 A 
ATOM     13  N   UNL     1      -5.821  -8.819   0.587  0.00  0.00    -0.285 N 
ATOM     14  C   UNL     1      -7.007  -8.520   1.191  0.00  0.00    +0.094 A 
ATOM     15  C   UNL     1      -7.629  -9.431   1.969  0.00  0.00    +0.018 A 
ATOM     16  C   UNL     1      -7.062 -10.702   2.167  0.00  0.00    +0.005 A 
ATOM     17  C   UNL     1      -5.884 -11.017   1.564  0.00  0.00    +0.048 A 
ENDBRANCH   7   9
ENDBRANCH   4   7
BRANCH   1  18
ATOM     18  C   UNL     1      -2.794  -2.494  -0.231  0.00  0.00    +0.087 C 
BRANCH  18  19
ATOM     19  C   UNL     1      -1.359  -1.976  -0.116  0.00  0.00    -0.060 C 
BRANCH  19  20
ATOM     20  N   UNL     1      -1.376  -0.512   0.012  0.00  0.00    +0.379 N 
ATOM     21  C   UNL     1      -2.026  -0.140   1.276  0.00  0.00    -0.096 C 
ATOM     22  H   UNL     1      -1.888  -0.113  -0.760  0.00  0.00    -0.082 HD
BRANCH  20  24
ATOM     23  C   UNL     1      -0.019   1.526   0.010  0.00  0.00    -0.017 C 
ATOM     24  C   UNL     1       0.002  -0.004   0.002  0.00  0.00    -0.083 C 
ENDBRANCH  20  24
ENDBRANCH  19  20
ENDBRANCH  18  19
ENDBRANCH   1  18
TORSDOF 6
