REMARK  Name = ZINC43257224
REMARK  7 active torsions:
REMARK  status: ('A' for Active; 'I' for Inactive)
REMARK    1  A    between atoms: C_1  and  C_2
REMARK    2  A    between atoms: C_2  and  C_4
REMARK    3  A    between atoms: C_2  and  N_23
REMARK    4  A    between atoms: C_4  and  C_6
REMARK    5  A    between atoms: C_4  and  S_12
REMARK    6  A    between atoms: S_12  and  C_13
REMARK    7  A    between atoms: N_17  and  C_18
REMARK                            x       y       z     vdW  Elec       q    Type
REMARK                         _______ _______ _______ _____ _____    ______ ____
ROOT
ATOM      1  C   UNL     1       0.742  -0.511   1.242  0.00  0.00    +0.076 C 
ENDROOT
BRANCH   1   2
ATOM      2  C   UNL     1      -0.030  -0.130   2.478  0.00  0.00    +0.003 A 
ATOM      3  C   UNL     1       0.358   0.644   3.521  0.00  0.00    +0.014 A 
ATOM      4  C   UNL     1      -0.528   0.862   4.561  0.00  0.00    +0.028 A 
ATOM      5  C   UNL     1      -1.758   0.294   4.505  0.00  0.00    +0.078 A 
ATOM      6  S   UNL     1      -1.695  -0.573   2.946  0.00  0.00    -0.081 S 
ATOM      7 CL   UNL     1      -3.060   0.391   5.650  0.00  0.00    -0.076 Cl
ENDBRANCH   1   2
BRANCH   1   9
ATOM      8  C   UNL     1      -0.019   1.526   0.010  0.00  0.00    -0.013 C 
ATOM      9  C   UNL     1       0.002  -0.004   0.002  0.00  0.00    -0.060 C 
BRANCH   9  10
ATOM     10  N   UNL     1      -1.376  -0.512   0.012  0.00  0.00    +0.381 N 
ATOM     11  H   UNL     1      -1.864  -0.178  -0.805  0.00  0.00    -0.090 HD
ATOM     12  H   UNL     1      -1.362  -1.521   0.007  0.00  0.00    -0.090 HD
ATOM     13  H   UNL     1      -1.848  -0.187   0.843  0.00  0.00    -0.090 HD
ENDBRANCH   9  10
ENDBRANCH   1   9
BRANCH   1  14
ATOM     14  S   UNL     1       0.896  -2.316   1.158  0.00  0.00    -0.078 S 
BRANCH  14  15
ATOM     15  C   UNL     1       1.934  -2.591  -0.240  0.00  0.00    +0.210 A 
ATOM     16  N   UNL     1       2.461  -1.669  -1.015  0.00  0.00    -0.101 NA
ATOM     17  N   UNL     1       3.166  -2.210  -1.942  0.00  0.00    -0.022 NA
ATOM     18  N   UNL     1       3.142  -3.494  -1.832  0.00  0.00    -0.043 NA
ATOM     19  N   UNL     1       2.343  -3.792  -0.714  0.00  0.00    -0.217 N 
BRANCH  19  20
ATOM     20  C   UNL     1       2.019  -5.117  -0.179  0.00  0.00    +0.112 C 
ATOM     21  C   UNL     1       3.316  -5.878   0.167  0.00  0.00    +0.027 C 
ATOM     22  C   UNL     1       3.009  -7.346  -0.219  0.00  0.00    +0.002 C 
ATOM     23  C   UNL     1       2.170  -7.192  -1.511  0.00  0.00    +0.002 C 
ATOM     24  C   UNL     1       1.290  -5.952  -1.246  0.00  0.00    +0.027 C 
ENDBRANCH  19  20
ENDBRANCH  14  15
ENDBRANCH   1  14
TORSDOF 6
