REMARK  Name = ZINC42958995
REMARK  6 active torsions:
REMARK  status: ('A' for Active; 'I' for Inactive)
REMARK    1  A    between atoms: C_6  and  C_7
REMARK    2  A    between atoms: C_7  and  C_9
REMARK    3  A    between atoms: C_7  and  S_11
REMARK    4  A    between atoms: C_9  and  N_10
REMARK    5  A    between atoms: S_11  and  C_12
REMARK    6  A    between atoms: N_16  and  C_17
REMARK                            x       y       z     vdW  Elec       q    Type
REMARK                         _______ _______ _______ _____ _____    ______ ____
ROOT
ATOM      1  C   UNL     1      -1.274  -0.722  -0.034  0.00  0.00    +0.067 C 
ENDROOT
BRANCH   1   7
ATOM      2  C   UNL     1       0.229   1.278  -0.125  0.00  0.00    +0.006 A 
ATOM      3  C   UNL     1       1.483   1.851  -0.214  0.00  0.00    +0.015 A 
ATOM      4  C   UNL     1       2.605   1.047  -0.308  0.00  0.00    +0.018 A 
ATOM      5  C   UNL     1       2.470  -0.330  -0.314  0.00  0.00    +0.015 A 
ATOM      6  C   UNL     1       1.215  -0.902  -0.225  0.00  0.00    +0.006 A 
ATOM      7  C   UNL     1       0.094  -0.098  -0.131  0.00  0.00    -0.036 A 
ATOM      8 BR   UNL     1       4.322   1.829  -0.431  0.00  0.00    -0.050 Br
ENDBRANCH   1   7
BRANCH   1   9
ATOM      9  C   UNL     1      -1.345  -1.603   1.215  0.00  0.00    -0.067 C 
BRANCH   9  10
ATOM     10  N   UNL     1      -1.232  -0.763   2.414  0.00  0.00    +0.379 N 
ATOM     11  H   UNL     1      -2.028  -0.146   2.470  0.00  0.00    -0.090 HD
ATOM     12  H   UNL     1      -1.204  -1.351   3.235  0.00  0.00    -0.090 HD
ATOM     13  H   UNL     1      -0.385  -0.217   2.363  0.00  0.00    -0.090 HD
ENDBRANCH   9  10
ENDBRANCH   1   9
BRANCH   1  14
ATOM     14  S   UNL     1      -1.583  -1.733  -1.507  0.00  0.00    -0.078 S 
BRANCH  14  15
ATOM     15  C   UNL     1      -3.280  -2.185  -1.366  0.00  0.00    +0.210 A 
ATOM     16  N   UNL     1      -4.081  -1.910  -0.359  0.00  0.00    -0.101 NA
ATOM     17  N   UNL     1      -5.255  -2.385  -0.575  0.00  0.00    -0.022 NA
ATOM     18  N   UNL     1      -5.291  -2.988  -1.714  0.00  0.00    -0.043 NA
ATOM     19  N   UNL     1      -4.008  -2.876  -2.275  0.00  0.00    -0.217 N 
BRANCH  19  20
ATOM     20  C   UNL     1      -3.553  -3.397  -3.567  0.00  0.00    +0.112 C 
ATOM     21  C   UNL     1      -4.613  -3.971  -4.510  0.00  0.00    +0.029 C 
ATOM     22  C   UNL     1      -3.642  -4.908  -3.790  0.00  0.00    +0.029 C 
ENDBRANCH  19  20
ENDBRANCH  14  15
ENDBRANCH   1  14
TORSDOF 6
