REMARK  Name = ZINC61146608
REMARK  4 active torsions:
REMARK  status: ('A' for Active; 'I' for Inactive)
REMARK    1  A    between atoms: C_5  and  N_8
REMARK    2  A    between atoms: C_12  and  N_16
REMARK    3  A    between atoms: N_16  and  C_17
REMARK    4  A    between atoms: C_17  and  C_18
REMARK                            x       y       z     vdW  Elec       q    Type
REMARK                         _______ _______ _______ _____ _____    ______ ____
ROOT
ATOM      1  N   UNL     1       2.800  -1.692   1.676  0.00  0.00    -0.240 N 
ATOM      2  C   UNL     1       2.732  -1.931   2.992  0.00  0.00    +0.221 C 
ATOM      3  O   UNL     1       2.168  -1.229   3.804  0.00  0.00    -0.275 OA
ATOM      4  C   UNL     1       3.469  -3.214   3.304  0.00  0.00    +0.090 C 
ATOM      5  C   UNL     1       3.981  -3.681   1.926  0.00  0.00    +0.025 C 
ATOM      6  C   UNL     1       3.474  -2.615   0.979  0.00  0.00    +0.208 C 
ATOM      7  O   UNL     1       3.652  -2.599  -0.220  0.00  0.00    -0.277 OA
ENDROOT
BRANCH   1  12
ATOM      8  C   UNL     1      -0.018   1.451   0.010  0.00  0.00    +0.000 C 
ATOM      9  C   UNL     1       1.400   2.058  -0.000  0.00  0.00    +0.000 C 
ATOM     10  C   UNL     1       1.950   2.011   1.399  0.00  0.00    +0.002 C 
ATOM     11  C   UNL     1       2.801   0.753   1.656  0.00  0.00    +0.023 C 
ATOM     12  C   UNL     1       2.183  -0.521   1.050  0.00  0.00    +0.084 C 
ATOM     13  C   UNL     1       0.693  -0.589   1.251  0.00  0.00    +0.023 C 
ATOM     14  C   UNL     1       0.002  -0.004   0.002  0.00  0.00    +0.002 C 
ENDBRANCH   1  12
BRANCH   5  15
ATOM     15  N   UNL     1       5.449  -3.740   1.912  0.00  0.00    +0.387 N 
ATOM     16  H   UNL     1       5.824  -2.810   2.025  0.00  0.00    -0.085 HD
ATOM     17  H   UNL     1       5.769  -4.326   2.669  0.00  0.00    -0.085 HD
BRANCH  15  18
ATOM     18  C   UNL     1       5.905  -4.300   0.633  0.00  0.00    -0.076 C 
BRANCH  18  19
ATOM     19  C   UNL     1       7.434  -4.361   0.619  0.00  0.00    -0.000 C 
ATOM     20  C   UNL     1       7.949  -5.001  -0.699  0.00  0.00    +0.032 C 
ATOM     21  C   UNL     1       9.339  -4.330  -0.828  0.00  0.00    +0.160 C 
ATOM     22  O   UNL     1       9.155  -2.990  -0.344  0.00  0.00    -0.380 OA
ATOM     23  C   UNL     1       8.040  -2.942   0.559  0.00  0.00    +0.161 C 
ENDBRANCH  18  19
ENDBRANCH  15  18
ENDBRANCH   5  15
TORSDOF 4
