REMARK  Name = ZINC18127231
REMARK  3 active torsions:
REMARK  status: ('A' for Active; 'I' for Inactive)
REMARK    1  A    between atoms: C_4  and  O_16
REMARK    2  A    between atoms: C_5  and  C_7
REMARK    3  A    between atoms: N_8  and  N_9
REMARK                            x       y       z     vdW  Elec       q    Type
REMARK                         _______ _______ _______ _____ _____    ______ ____
ROOT
ATOM      1  C   UNL     1       1.250  -2.157  -0.023  0.00  0.00    +0.141 C 
ATOM      2  N   UNL     1       2.386  -2.785  -0.038  0.00  0.00    -0.188 NA
ENDROOT
BRANCH   2   3
ATOM      3  N   UNL     1       2.412  -4.186  -0.047  0.00  0.00    -0.217 N 
ATOM      4  C   UNL     1       3.606  -4.846  -0.064  0.00  0.00    +0.166 C 
ATOM      5  N   UNL     1       4.829  -4.329  -0.067  0.00  0.00    -0.157 NA
ATOM      6  C   UNL     1       5.927  -5.032  -0.083  0.00  0.00    +0.248 C 
ATOM      7  O   UNL     1       7.029  -4.518  -0.086  0.00  0.00    -0.273 OA
ATOM      8  C   UNL     1       5.734  -6.544  -0.098  0.00  0.00    +0.174 C 
ATOM      9  S   UNL     1       3.893  -6.611  -0.077  0.00  0.00    -0.082 S 
ATOM     10  H   UNL     1       1.581  -4.686  -0.042  0.00  0.00    +0.176 HD
ENDBRANCH   2   3
BRANCH   1  15
ATOM     11  C   UNL     1      -0.017   1.375   0.010  0.00  0.00    +0.001 A 
ATOM     12  C   UNL     1       1.169   2.089   0.002  0.00  0.00    +0.004 A 
ATOM     13  C   UNL     1       2.383   1.428  -0.013  0.00  0.00    +0.046 A 
ATOM     14  C   UNL     1       2.420   0.044  -0.022  0.00  0.00    +0.125 A 
ATOM     15  C   UNL     1       1.222  -0.684  -0.014  0.00  0.00    +0.036 A 
ATOM     16  C   UNL     1       0.002  -0.004   0.002  0.00  0.00    +0.013 A 
BRANCH  14  17
ATOM     17  O   UNL     1       3.613  -0.607  -0.038  0.00  0.00    -0.506 OA
ATOM     18  H   UNL     1       3.967  -0.800   0.841  0.00  0.00    +0.292 HD
ENDBRANCH  14  17
ENDBRANCH   1  15
TORSDOF 3
