REMARK  Name = ZINC66563317
REMARK  5 active torsions:
REMARK  status: ('A' for Active; 'I' for Inactive)
REMARK    1  A    between atoms: C_4  and  N_7
REMARK    2  A    between atoms: N_7  and  C_8
REMARK    3  A    between atoms: C_11  and  C_13
REMARK    4  A    between atoms: C_13  and  N_14
REMARK    5  A    between atoms: C_19  and  C_21
REMARK                            x       y       z     vdW  Elec       q    Type
REMARK                         _______ _______ _______ _____ _____    ______ ____
ROOT
ATOM      1  C   UNL     1       4.659  -0.199   4.364  0.00  0.00    +0.020 C 
ENDROOT
BRANCH   1   2
ATOM      2  N   UNL     1       5.324   1.097   4.557  0.00  0.00    +0.393 N 
ATOM      3  C   UNL     1       6.170   1.389   3.393  0.00  0.00    -0.077 C 
ATOM      4  C   UNL     1       6.802   2.774   3.552  0.00  0.00    -0.019 C 
ATOM      5  C   UNL     1       7.654   2.797   4.824  0.00  0.00    -0.003 C 
ATOM      6  C   UNL     1       6.778   2.418   6.021  0.00  0.00    -0.006 C 
ATOM      7  C   UNL     1       6.147   1.047   5.771  0.00  0.00    +0.020 C 
ATOM      8  H   UNL     1       4.627   1.820   4.654  0.00  0.00    -0.080 HD
BRANCH   7   9
ATOM      9  C   UNL     1       5.284   0.669   6.947  0.00  0.00    +0.197 C 
ATOM     10  O   UNL     1       4.103   0.945   6.946  0.00  0.00    -0.278 OA
ATOM     11  N   UNL     1       5.824   0.025   8.001  0.00  0.00    -0.331 N 
ATOM     12  H   UNL     1       6.769  -0.195   8.002  0.00  0.00    +0.145 HD
ATOM     13  H   UNL     1       5.268  -0.217   8.758  0.00  0.00    +0.145 HD
ENDBRANCH   7   9
ENDBRANCH   1   2
BRANCH   1  15
ATOM     14  N   UNL     1       3.077  -1.209   2.754  0.00  0.00    -0.274 N 
ATOM     15  C   UNL     1       3.697  -0.103   3.208  0.00  0.00    +0.203 C 
ATOM     16  O   UNL     1       3.482   0.971   2.686  0.00  0.00    -0.277 OA
BRANCH  14  20
ATOM     17  C   UNL     1       0.399  -0.921  -0.450  0.00  0.00    +0.004 C 
ATOM     18  C   UNL     1       1.641  -0.024  -0.514  0.00  0.00    +0.006 C 
ATOM     19  C   UNL     1       2.167   0.178   0.909  0.00  0.00    +0.051 C 
ATOM     20  C   UNL     1       2.289  -1.145   1.608  0.00  0.00    +0.010 C 
ATOM     21  C   UNL     1       1.702  -2.238   1.205  0.00  0.00    -0.008 C 
ATOM     22  C   UNL     1       0.833  -2.322  -0.016  0.00  0.00    +0.029 C 
ENDBRANCH  14  20
BRANCH  14  23
ATOM     23  C   UNL     1       3.231  -2.480   3.466  0.00  0.00    +0.081 C 
ATOM     24  C   UNL     1       1.957  -3.239   3.841  0.00  0.00    +0.025 C 
ATOM     25  C   UNL     1       2.773  -2.533   4.925  0.00  0.00    +0.025 C 
ENDBRANCH  14  23
ENDBRANCH   1  15
TORSDOF 5
