REMARK  Name = ZINC28887019
REMARK  10 active torsions:
REMARK  status: ('A' for Active; 'I' for Inactive)
REMARK    1  A    between atoms: C_1  and  C_2
REMARK    2  A    between atoms: C_5  and  O_26
REMARK    3  A    between atoms: C_6  and  C_8
REMARK    4  A    between atoms: C_8  and  C_10
REMARK    5  A    between atoms: C_8  and  N_11
REMARK    6  A    between atoms: N_11  and  C_12
REMARK    7  A    between atoms: C_12  and  C_14
REMARK    8  A    between atoms: C_12  and  C_15
REMARK    9  A    between atoms: N_20  and  C_21
REMARK   10  A    between atoms: O_26  and  C_27
REMARK                            x       y       z     vdW  Elec       q    Type
REMARK                         _______ _______ _______ _____ _____    ______ ____
ROOT
ATOM      1  C   UNL     1       8.218   2.098   0.785  0.00  0.00    +0.014 C 
ATOM      2  C   UNL     1       8.736   0.664   0.664  0.00  0.00    -0.004 C 
ENDROOT
BRANCH   1   3
ATOM      3  C   UNL     1       6.781   2.076   1.238  0.00  0.00    +0.206 C 
ATOM      4  O   UNL     1       6.464   2.617   2.276  0.00  0.00    -0.277 OA
ATOM      5  N   UNL     1       5.848   1.455   0.490  0.00  0.00    -0.242 N 
ATOM      6  C   UNL     1       4.563   1.435   0.895  0.00  0.00    +0.306 C 
ATOM      7  O   UNL     1       4.245   1.978   1.935  0.00  0.00    -0.252 OA
ATOM      8  N   UNL     1       3.630   0.814   0.146  0.00  0.00    -0.296 N 
ATOM      9  H   UNL     1       6.136   0.964  -0.452  0.00  0.00    +0.159 HD
ATOM     10  H   UNL     1       3.917   0.323  -0.795  0.00  0.00    +0.151 HD
BRANCH   8  11
ATOM     11  C   UNL     1       2.232   0.792   0.586  0.00  0.00    +0.074 C 
ATOM     12  C   UNL     1       1.453   1.995  -0.001  0.00  0.00    +0.022 C 
ATOM     13  C   UNL     1      -0.019   1.534   0.011  0.00  0.00    +0.002 C 
ATOM     14  C   UNL     1       0.002  -0.004   0.002  0.00  0.00    +0.002 C 
ATOM     15  C   UNL     1       1.486  -0.425  -0.014  0.00  0.00    +0.022 C 
ENDBRANCH   8  11
ENDBRANCH   1   3
BRANCH   1  16
ATOM     16  N   UNL     1       9.029   2.831   1.766  0.00  0.00    +0.391 N 
ATOM     17  H   UNL     1       9.319   2.139   2.571  0.00  0.00    -0.084 HD
ATOM     18  H   UNL     1       8.424   3.648   2.185  0.00  0.00    -0.084 HD
BRANCH  16  19
ATOM     19  C   UNL     1      10.237   3.387   1.141  0.00  0.00    -0.039 C 
ATOM     20  C   UNL     1       9.905   4.738   0.504  0.00  0.00    -0.009 C 
BRANCH  19  26
ATOM     21  C   UNL     1      11.558   3.876   5.942  0.00  0.00    +0.044 C 
ATOM     22  C   UNL     1      11.938   3.808   4.485  0.00  0.00    -0.050 A 
ATOM     23  C   UNL     1      13.265   3.918   4.112  0.00  0.00    +0.007 A 
ATOM     24  C   UNL     1      13.615   3.856   2.777  0.00  0.00    +0.046 A 
ATOM     25  C   UNL     1      12.635   3.683   1.811  0.00  0.00    +0.122 A 
ATOM     26  C   UNL     1      11.304   3.574   2.188  0.00  0.00    -0.020 A 
ATOM     27  C   UNL     1      10.958   3.642   3.524  0.00  0.00    +0.009 A 
BRANCH  25  28
ATOM     28  O   UNL     1      12.977   3.622   0.497  0.00  0.00    -0.495 OA
ATOM     29  C   UNL     1      14.366   3.742   0.182  0.00  0.00    +0.277 C 
ENDBRANCH  25  28
ENDBRANCH  19  26
ENDBRANCH  16  19
ENDBRANCH   1  16
TORSDOF 6
