REMARK  Name = ZINC62789554
REMARK  7 active torsions:
REMARK  status: ('A' for Active; 'I' for Inactive)
REMARK    1  A    between atoms: C_1  and  C_2
REMARK    2  A    between atoms: C_2  and  C_3
REMARK    3  A    between atoms: C_3  and  C_5
REMARK    4  A    between atoms: C_3  and  N_6
REMARK    5  A    between atoms: N_9  and  C_12
REMARK    6  A    between atoms: C_17  and  C_18
REMARK    7  A    between atoms: N_19  and  O_20
REMARK                            x       y       z     vdW  Elec       q    Type
REMARK                         _______ _______ _______ _____ _____    ______ ____
ROOT
ATOM      1  C   UNL     1       4.852   2.494  -2.865  0.00  0.00    +0.042 A 
ATOM      2  C   UNL     1       4.241   3.193  -3.897  0.00  0.00    +0.043 A 
ATOM      3  C   UNL     1       4.965   4.107  -4.638  0.00  0.00    +0.043 A 
ATOM      4  C   UNL     1       6.304   4.332  -4.358  0.00  0.00    +0.021 A 
ATOM      5  C   UNL     1       6.926   3.646  -3.337  0.00  0.00    +0.014 A 
ATOM      6  C   UNL     1       6.205   2.725  -2.576  0.00  0.00    +0.039 A 
ATOM      7 CL   UNL     1       4.194   4.978  -5.927  0.00  0.00    -0.083 Cl
ENDROOT
BRANCH   1  11
ATOM      8  N   UNL     1       1.978   0.018  -1.231  0.00  0.00    +0.383 N 
ATOM      9  C   UNL     1       2.587  -0.272  -2.535  0.00  0.00    -0.059 C 
ATOM     10  C   UNL     1       4.058   0.158  -2.518  0.00  0.00    +0.086 C 
ATOM     11  N   UNL     1       4.125   1.572  -2.118  0.00  0.00    -0.333 N 
ATOM     12  C   UNL     1       3.402   1.985  -0.905  0.00  0.00    +0.086 C 
ATOM     13  C   UNL     1       1.962   1.468  -0.998  0.00  0.00    -0.059 C 
ATOM     14  H   UNL     1       2.514  -0.432  -0.504  0.00  0.00    -0.081 HD
BRANCH   8  15
ATOM     15  C   UNL     1       0.601  -0.494  -1.211  0.00  0.00    -0.072 C 
ATOM     16  C   UNL     1      -0.174   0.080  -2.398  0.00  0.00    -0.013 C 
BRANCH  15  18
ATOM     17  C   UNL     1       1.283  -2.600  -0.052  0.00  0.00    +0.002 C 
ATOM     18  C   UNL     1       0.624  -2.021  -1.306  0.00  0.00    -0.019 C 
ENDBRANCH  15  18
ENDBRANCH   8  15
ENDBRANCH   1  11
BRANCH   6  19
ATOM     19  C   UNL     1       6.865   1.991  -1.476  0.00  0.00    +0.164 C 
ATOM     20  N   UNL     1       6.190   1.128  -0.773  0.00  0.00    -0.071 NA
ATOM     21  N   UNL     1       8.201   2.221  -1.194  0.00  0.00    -0.340 N 
ATOM     22  H   UNL     1       8.703   2.864  -1.718  0.00  0.00    +0.144 HD
ATOM     23  H   UNL     1       8.634   1.740  -0.472  0.00  0.00    +0.144 HD
BRANCH  20  24
ATOM     24  O   UNL     1       6.822   0.425   0.281  0.00  0.00    -0.408 OA
ATOM     25  H   UNL     1       6.242  -0.194   0.746  0.00  0.00    +0.328 HD
ENDBRANCH  20  24
ENDBRANCH   6  19
TORSDOF 5
