REMARK  Name = ZINC65074751
REMARK  7 active torsions:
REMARK  status: ('A' for Active; 'I' for Inactive)
REMARK    1  A    between atoms: C_1  and  C_2
REMARK    2  A    between atoms: C_5  and  C_8
REMARK    3  A    between atoms: C_8  and  N_9
REMARK    4  A    between atoms: N_18  and  S_21
REMARK    5  A    between atoms: S_21  and  C_24
REMARK    6  A    between atoms: C_26  and  C_31
REMARK    7  A    between atoms: C_29  and  C_30
REMARK                            x       y       z     vdW  Elec       q    Type
REMARK                         _______ _______ _______ _____ _____    ______ ____
ROOT
ATOM      1  N   UNL     1       1.447  -4.746  -0.032  0.00  0.00    -0.329 N 
ATOM      2  C   UNL     1       1.714  -6.089  -0.041  0.00  0.00    +0.089 C 
ATOM      3  N   UNL     1       0.727  -6.903  -0.045  0.00  0.00    -0.374 N 
ATOM      4  C   UNL     1       0.872  -8.355  -0.043  0.00  0.00    +0.129 C 
ATOM      5  C   UNL     1       2.294  -8.741  -0.456  0.00  0.00    +0.102 C 
ATOM      6  N   UNL     1       3.244  -7.944   0.339  0.00  0.00    -0.303 NA
ATOM      7  C   UNL     1       3.152  -6.528  -0.051  0.00  0.00    +0.075 C 
ATOM      8  C   UNL     1       3.954  -5.681   0.941  0.00  0.00    +0.047 C 
ATOM      9  C   UNL     1       5.409  -6.160   0.955  0.00  0.00    +0.111 C 
ATOM     10  N   UNL     1       5.929  -6.131  -0.419  0.00  0.00    -0.176 NA
ATOM     11  C   UNL     1       5.183  -6.835  -1.472  0.00  0.00    +0.111 C 
ATOM     12  C   UNL     1       3.731  -6.348  -1.457  0.00  0.00    +0.047 C 
ATOM     13  H   UNL     1       2.176  -4.106  -0.032  0.00  0.00    +0.147 HD
ATOM     14  H   UNL     1       3.077  -8.062   1.327  0.00  0.00    +0.123 HD
ATOM     15  H   UNL     1      -0.170  -6.533  -0.049  0.00  0.00    +0.161 HD
ENDROOT
BRANCH  10  16
ATOM     16  S   UNL     1       7.328  -5.320  -0.775  0.00  0.00    +0.061 S 
ATOM     17  O   UNL     1       7.271  -4.997  -2.157  0.00  0.00    -0.153 OA
ATOM     18  O   UNL     1       7.492  -4.331   0.233  0.00  0.00    -0.153 OA
BRANCH  16  19
ATOM     19  C   UNL     1       8.656  -6.462  -0.580  0.00  0.00    +0.109 A 
ATOM     20  C   UNL     1       9.413  -6.835  -1.674  0.00  0.00    +0.032 A 
ATOM     21  C   UNL     1      10.455  -7.731  -1.522  0.00  0.00    -0.049 A 
ATOM     22  C   UNL     1      10.739  -8.254  -0.274  0.00  0.00    +0.004 A 
ATOM     23  C   UNL     1       9.982  -7.880   0.821  0.00  0.00    +0.005 A 
ATOM     24  C   UNL     1       8.943  -6.981   0.669  0.00  0.00    -0.024 A 
ATOM     25  C   UNL     1       8.122  -6.570   1.863  0.00  0.00    +0.046 C 
ATOM     26  C   UNL     1      11.280  -8.138  -2.715  0.00  0.00    +0.044 C 
ENDBRANCH  16  19
ENDBRANCH  10  16
BRANCH   1  27
ATOM     27  C   UNL     1       0.059  -4.275  -0.021  0.00  0.00    +0.138 C 
BRANCH  27  32
ATOM     28  C   UNL     1      -0.018   1.503   0.010  0.00  0.00    +0.044 C 
ATOM     29  C   UNL     1       0.002  -0.004   0.002  0.00  0.00    -0.050 A 
ATOM     30  C   UNL     1       0.006  -0.689  -1.199  0.00  0.00    +0.003 A 
ATOM     31  C   UNL     1       0.025  -2.071  -1.206  0.00  0.00    +0.005 A 
ATOM     32  C   UNL     1       0.040  -2.768  -0.013  0.00  0.00    -0.030 A 
ATOM     33  C   UNL     1       0.037  -2.084   1.188  0.00  0.00    +0.005 A 
ATOM     34  C   UNL     1       0.023  -0.702   1.195  0.00  0.00    +0.003 A 
ENDBRANCH  27  32
ENDBRANCH   1  27
TORSDOF 4
