REMARK  Name = ZINC06471260
REMARK  8 active torsions:
REMARK  status: ('A' for Active; 'I' for Inactive)
REMARK    1  A    between atoms: C_1  and  C_2
REMARK    2  A    between atoms: C_2  and  O_3
REMARK    3  A    between atoms: O_3  and  C_4
REMARK    4  A    between atoms: C_7  and  S_10
REMARK    5  A    between atoms: S_10  and  N_13
REMARK    6  A    between atoms: N_13  and  C_14
REMARK    7  A    between atoms: C_15  and  C_25
REMARK    8  A    between atoms: C_20  and  C_24
REMARK                            x       y       z     vdW  Elec       q    Type
REMARK                         _______ _______ _______ _____ _____    ______ ____
ROOT
ATOM      1  C   UNL     1      -1.217   1.641   0.017  0.00  0.00    +0.124 A 
ATOM      2  C   UNL     1      -2.502   1.112   0.020  0.00  0.00    +0.072 A 
ATOM      3  C   UNL     1      -3.613   2.050   0.030  0.00  0.00    -0.023 A 
ATOM      4  C   UNL     1      -3.264   3.354   0.035  0.00  0.00    -0.004 A 
ATOM      5  S   UNL     1      -1.494   3.351   0.035  0.00  0.00    -0.074 S 
ATOM      6  C   UNL     1      -4.186   4.535   0.045  0.00  0.00    +0.046 C 
ATOM      7  C   UNL     1      -5.595   4.053  -0.330  0.00  0.00    -0.009 C 
ATOM      8  C   UNL     1      -5.928   2.811   0.502  0.00  0.00    +0.008 C 
ATOM      9  C   UNL     1      -5.077   1.629   0.036  0.00  0.00    +0.037 C 
ATOM     10  C   UNL     1      -6.611   5.158  -0.033  0.00  0.00    +0.008 C 
ENDROOT
BRANCH   2  11
ATOM     11  C   UNL     1      -2.729  -0.335   0.013  0.00  0.00    +0.244 C 
ATOM     12  O   UNL     1      -2.818  -0.942   1.064  0.00  0.00    -0.270 OA
ATOM     13  N   UNL     1      -2.838  -0.994  -1.158  0.00  0.00    -0.325 N 
ATOM     14  H   UNL     1      -3.009  -2.080  -1.163  0.00  0.00    +0.145 HD
ATOM     15  H   UNL     1      -2.757  -0.445  -2.108  0.00  0.00    +0.145 HD
ENDBRANCH   2  11
BRANCH   1  16
ATOM     16  N   UNL     1      -0.011   0.966   0.007  0.00  0.00    -0.090 NA
BRANCH  16  17
ATOM     17  S   UNL     1       1.412   1.813  -0.002  0.00  0.00    +0.092 S 
ATOM     18  O   UNL     1       2.457   0.851   0.010  0.00  0.00    -0.148 OA
ATOM     19  O   UNL     1       1.292   2.796  -1.021  0.00  0.00    -0.148 OA
BRANCH  17  23
ATOM     20  C   UNL     1       1.663   4.048   3.929  0.00  0.00    +0.121 A 
ATOM     21  C   UNL     1       2.187   2.767   3.823  0.00  0.00    +0.047 A 
ATOM     22  C   UNL     1       2.109   2.088   2.623  0.00  0.00    +0.032 A 
ATOM     23  C   UNL     1       1.510   2.683   1.528  0.00  0.00    +0.111 A 
ATOM     24  C   UNL     1       0.993   3.961   1.629  0.00  0.00    +0.032 A 
ATOM     25  C   UNL     1       1.063   4.643   2.829  0.00  0.00    +0.047 A 
BRANCH  20  26
ATOM     26  O   UNL     1       1.739   4.719   5.109  0.00  0.00    -0.492 OA
BRANCH  26  28
ATOM     27  C   UNL     1       1.358   6.625   6.544  0.00  0.00    +0.048 C 
ATOM     28  C   UNL     1       1.180   6.033   5.144  0.00  0.00    +0.225 C 
ENDBRANCH  26  28
ENDBRANCH  20  26
ENDBRANCH  17  23
ENDBRANCH  16  17
ENDBRANCH   1  16
TORSDOF 6
