REMARK  Name = ZINC36161331
REMARK  7 active torsions:
REMARK  status: ('A' for Active; 'I' for Inactive)
REMARK    1  A    between atoms: C_1  and  C_2
REMARK    2  A    between atoms: C_2  and  N_3
REMARK    3  A    between atoms: N_3  and  C_4
REMARK    4  A    between atoms: N_3  and  C_6
REMARK    5  A    between atoms: C_4  and  C_5
REMARK    6  A    between atoms: C_6  and  C_7
REMARK    7  A    between atoms: C_19  and  C_23
REMARK                            x       y       z     vdW  Elec       q    Type
REMARK                         _______ _______ _______ _____ _____    ______ ____
ROOT
ATOM      1  C   UNL     1      -0.766  -2.160   1.793  0.00  0.00    +0.094 A 
ATOM      2  N   UNL     1      -0.692  -3.425   2.281  0.00  0.00    -0.312 N 
ATOM      3  H   UNL     1      -1.062  -4.157   1.762  0.00  0.00    +0.170 HD
ATOM      4  C   UNL     1      -0.116  -3.686   3.469  0.00  0.00    +0.260 A 
ATOM      5  O   UNL     1      -0.057  -4.827   3.893  0.00  0.00    -0.267 OA
ATOM      6  C   UNL     1       0.429  -2.598   4.228  0.00  0.00    +0.075 A 
ATOM      7  C   UNL     1       1.095  -2.642   5.529  0.00  0.00    -0.023 A 
ATOM      8  C   UNL     1       1.522  -1.467   6.038  0.00  0.00    -0.004 A 
ATOM      9  S   UNL     1       1.067  -0.251   4.830  0.00  0.00    -0.073 S 
ATOM     10  C   UNL     1       0.305  -1.328   3.643  0.00  0.00    +0.116 A 
ATOM     11  N   UNL     1      -0.275  -1.150   2.459  0.00  0.00    -0.229 NA
ATOM     12  C   UNL     1       2.228  -1.245   7.340  0.00  0.00    +0.046 C 
ATOM     13  C   UNL     1       2.733  -2.601   7.855  0.00  0.00    -0.009 C 
ATOM     14  C   UNL     1       1.591  -3.617   7.760  0.00  0.00    +0.008 C 
ATOM     15  C   UNL     1       1.309  -3.946   6.293  0.00  0.00    +0.037 C 
ATOM     16  C   UNL     1       3.181  -2.462   9.311  0.00  0.00    +0.008 C 
ENDROOT
BRANCH   1  17
ATOM     17  C   UNL     1      -1.420  -1.919   0.458  0.00  0.00    -0.003 C 
BRANCH  17  18
ATOM     18  N   UNL     1      -1.374  -0.485   0.142  0.00  0.00    +0.384 N 
ATOM     19  H   UNL     1      -1.793   0.039   0.896  0.00  0.00    -0.081 HD
BRANCH  18  21
ATOM     20  C   UNL     1       0.082   1.453  -0.209  0.00  0.00    -0.017 C 
ATOM     21  C   UNL     1       0.024  -0.066  -0.029  0.00  0.00    -0.082 C 
ENDBRANCH  18  21
BRANCH  18  22
ATOM     22  C   UNL     1      -2.116  -0.233  -1.101  0.00  0.00    -0.082 C 
ATOM     23  C   UNL     1      -3.600  -0.533  -0.879  0.00  0.00    -0.017 C 
ENDBRANCH  18  22
ENDBRANCH  17  18
ENDBRANCH   1  17
TORSDOF 4
