REMARK  Name = ZINC57858395
REMARK  7 active torsions:
REMARK  status: ('A' for Active; 'I' for Inactive)
REMARK    1  A    between atoms: C_1  and  C_2
REMARK    2  A    between atoms: C_7  and  C_9
REMARK    3  A    between atoms: C_7  and  N_22
REMARK    4  A    between atoms: C_9  and  N_10
REMARK    5  A    between atoms: N_13  and  N_14
REMARK    6  A    between atoms: N_22  and  C_23
REMARK    7  A    between atoms: N_22  and  C_24
REMARK                            x       y       z     vdW  Elec       q    Type
REMARK                         _______ _______ _______ _____ _____    ______ ____
ROOT
ATOM      1  N   UNL     1       3.005  -2.111   2.094  0.00  0.00    -0.300 N 
ATOM      2  C   UNL     1       3.967  -2.473   2.966  0.00  0.00    +0.316 C 
ATOM      3  O   UNL     1       3.680  -3.124   3.952  0.00  0.00    -0.251 OA
ATOM      4  N   UNL     1       5.247  -2.115   2.744  0.00  0.00    -0.219 N 
ATOM      5  H   UNL     1       3.234  -1.593   1.307  0.00  0.00    +0.150 HD
ATOM      6  H   UNL     1       5.940  -2.375   3.371  0.00  0.00    +0.174 HD
ENDROOT
BRANCH   4   7
ATOM      7  N   UNL     1       5.578  -1.366   1.607  0.00  0.00    -0.246 N 
ATOM      8  C   UNL     1       6.899  -0.995   1.378  0.00  0.00    +0.157 A 
ATOM      9  C   UNL     1       7.231  -0.244   0.250  0.00  0.00    +0.050 A 
ATOM     10  C   UNL     1       8.560   0.099   0.067  0.00  0.00    +0.045 A 
ATOM     11  C   UNL     1       9.480  -0.326   1.018  0.00  0.00    +0.152 A 
ATOM     12  N   UNL     1       9.078  -1.033   2.055  0.00  0.00    -0.136 NA
ATOM     13  N   UNL     1       7.847  -1.349   2.232  0.00  0.00    -0.132 NA
ATOM     14 CL   UNL     1      11.160   0.075   0.839  0.00  0.00    -0.060 Cl
ATOM     15  H   UNL     1       4.885  -1.105   0.980  0.00  0.00    +0.172 HD
ENDBRANCH   4   7
BRANCH   1  16
ATOM     16  C   UNL     1       1.614  -2.501   2.335  0.00  0.00    +0.094 C 
BRANCH  16  22
ATOM     17  C   UNL     1       0.003   1.414  -0.319  0.00  0.00    +0.007 C 
ATOM     18  C   UNL     1      -0.056  -0.108  -0.177  0.00  0.00    -0.015 C 
ATOM     19  C   UNL     1       0.468  -0.761  -1.458  0.00  0.00    +0.003 C 
ATOM     20  C   UNL     1       0.409  -2.284  -1.315  0.00  0.00    -0.001 C 
ATOM     21  C   UNL     1       1.273  -2.719  -0.130  0.00  0.00    -0.010 C 
ATOM     22  C   UNL     1       0.749  -2.066   1.151  0.00  0.00    -0.050 C 
ATOM     23  C   UNL     1       0.808  -0.544   1.008  0.00  0.00    -0.007 C 
BRANCH  22  24
ATOM     24  N   UNL     1      -0.641  -2.483   1.379  0.00  0.00    +0.381 N 
ATOM     25  C   UNL     1      -0.701  -3.946   1.491  0.00  0.00    -0.096 C 
ATOM     26  C   UNL     1      -1.136  -1.876   2.622  0.00  0.00    -0.096 C 
ATOM     27  H   UNL     1      -1.214  -2.181   0.606  0.00  0.00    -0.082 HD
ENDBRANCH  22  24
ENDBRANCH  16  22
ENDBRANCH   1  16
TORSDOF 4
