REMARK  Name = ZINC10341942
REMARK  6 active torsions:
REMARK  status: ('A' for Active; 'I' for Inactive)
REMARK    1  A    between atoms: C_1  and  C_2
REMARK    2  A    between atoms: C_2  and  C_3
REMARK    3  A    between atoms: C_3  and  C_4
REMARK    4  A    between atoms: C_4  and  N_5
REMARK    5  A    between atoms: C_9  and  C_11
REMARK    6  A    between atoms: C_11  and  N_41
REMARK                            x       y       z     vdW  Elec       q    Type
REMARK                         _______ _______ _______ _____ _____    ______ ____
ROOT
ATOM      1  N   UNL     1      -1.282   6.068   3.622  0.00  0.00    -0.299 N 
ATOM      2  C   UNL     1      -0.758   5.409   2.570  0.00  0.00    +0.306 C 
ATOM      3  O   UNL     1      -0.045   5.995   1.780  0.00  0.00    -0.252 OA
ATOM      4  N   UNL     1      -1.023   4.099   2.395  0.00  0.00    -0.242 N 
ATOM      5  C   UNL     1      -0.498   3.440   1.343  0.00  0.00    +0.204 C 
ATOM      6  O   UNL     1       0.213   4.025   0.555  0.00  0.00    -0.277 OA
ATOM      7  H   UNL     1      -1.851   5.600   4.253  0.00  0.00    +0.150 HD
ATOM      8  H   UNL     1      -1.592   3.631   3.026  0.00  0.00    +0.159 HD
ENDROOT
BRANCH   1   9
ATOM      9  C   UNL     1      -0.994   7.492   3.812  0.00  0.00    +0.106 C 
BRANCH   9  10
ATOM     10  C   UNL     1      -1.706   7.993   5.070  0.00  0.00    +0.018 C 
BRANCH  10  12
ATOM     11  C   UNL     1      -2.117   9.981   6.527  0.00  0.00    +0.004 C 
ATOM     12  C   UNL     1      -1.404   9.479   5.269  0.00  0.00    -0.002 C 
ENDBRANCH  10  12
ENDBRANCH   9  10
ENDBRANCH   1   9
BRANCH   5  13
ATOM     13  C   UNL     1      -0.796   1.975   1.147  0.00  0.00    +0.019 C 
BRANCH  13  22
ATOM     14  C   UNL     1      -0.924   2.174  -1.263  0.00  0.00    -0.073 C 
ATOM     15  C   UNL     1      -0.064   2.011  -2.528  0.00  0.00    +0.024 C 
ATOM     16  C   UNL     1       0.377   0.586  -2.598  0.00  0.00    -0.011 A 
ATOM     17  C   UNL     1       0.309  -0.337  -1.597  0.00  0.00    -0.054 A 
ATOM     18  C   UNL     1       0.780  -1.613  -1.895  0.00  0.00    +0.009 A 
ATOM     19  C   UNL     1       1.272  -1.883  -3.127  0.00  0.00    +0.045 A 
ATOM     20  S   UNL     1       1.091  -0.307  -3.949  0.00  0.00    -0.101 S 
ATOM     21  C   UNL     1      -0.260   0.065  -0.240  0.00  0.00    -0.042 C 
ATOM     22  N   UNL     1      -0.202   1.542  -0.133  0.00  0.00    +0.388 N 
ATOM     23  H   UNL     1       0.781   1.837  -0.161  0.00  0.00    -0.081 HD
ENDBRANCH  13  22
ENDBRANCH   5  13
TORSDOF 5
