REMARK  Name = ZINC25744564
REMARK  8 active torsions:
REMARK  status: ('A' for Active; 'I' for Inactive)
REMARK    1  A    between atoms: C_1  and  C_2
REMARK    2  A    between atoms: C_3  and  C_8
REMARK    3  A    between atoms: C_4  and  C_7
REMARK    4  A    between atoms: C_8  and  N_9
REMARK    5  A    between atoms: N_9  and  C_10
REMARK    6  A    between atoms: C_15  and  C_16
REMARK    7  A    between atoms: N_18  and  C_19
REMARK    8  A    between atoms: N_18  and  C_20
REMARK                            x       y       z     vdW  Elec       q    Type
REMARK                         _______ _______ _______ _____ _____    ______ ____
ROOT
ATOM      1  C   UNL     1       1.025   2.205  -0.375  0.00  0.00    +0.040 A 
ATOM      2  C   UNL     1       0.969   3.594  -0.381  0.00  0.00    +0.024 A 
ATOM      3  C   UNL     1      -0.208   4.239  -0.060  0.00  0.00    +0.002 A 
ATOM      4  C   UNL     1      -1.341   3.510   0.269  0.00  0.00    +0.001 A 
ATOM      5  C   UNL     1      -1.305   2.133   0.275  0.00  0.00    +0.015 A 
ATOM      6  C   UNL     1      -0.119   1.465  -0.042  0.00  0.00    +0.058 A 
ENDROOT
BRANCH   6   7
ATOM      7  C   UNL     1      -0.073  -0.008  -0.031  0.00  0.00    +0.248 C 
ATOM      8  O   UNL     1       0.382  -0.609  -0.986  0.00  0.00    -0.270 OA
ATOM      9  N   UNL     1      -0.535  -0.690   1.036  0.00  0.00    -0.304 N 
ATOM     10  C   UNL     1      -0.400  -2.147   1.089  0.00  0.00    +0.132 C 
ATOM     11  C   UNL     1      -1.172   0.027   2.143  0.00  0.00    +0.132 C 
ENDBRANCH   6   7
BRANCH   1  12
ATOM     12  N   UNL     1       2.209   1.554  -0.696  0.00  0.00    -0.339 N 
ATOM     13  H   UNL     1       2.277   0.460  -0.603  0.00  0.00    +0.146 HD
BRANCH  12  14
ATOM     14  C   UNL     1       3.366   2.323  -1.160  0.00  0.00    +0.142 C 
BRANCH  14  17
ATOM     15  C   UNL     1       4.073   0.832  -3.954  0.00  0.00    +0.069 C 
ATOM     16  C   UNL     1       4.828   0.733  -2.653  0.00  0.00    +0.085 A 
ATOM     17  C   UNL     1       4.513   1.386  -1.440  0.00  0.00    +0.034 A 
ATOM     18  C   UNL     1       5.484   0.980  -0.587  0.00  0.00    +0.139 A 
ATOM     19  O   UNL     1       6.276   0.151  -1.282  0.00  0.00    -0.359 OA
ATOM     20  N   UNL     1       5.899   0.029  -2.425  0.00  0.00    -0.083 NA
ATOM     21  C   UNL     1       5.641   1.378   0.858  0.00  0.00    +0.089 C 
ENDBRANCH  14  17
ENDBRANCH  12  14
ENDBRANCH   1  12
TORSDOF 4
