REMARK  Name = ZINC42490247
REMARK  10 active torsions:
REMARK  status: ('A' for Active; 'I' for Inactive)
REMARK    1  A    between atoms: C_1  and  C_2
REMARK    2  A    between atoms: C_2  and  C_3
REMARK    3  A    between atoms: C_3  and  C_4
REMARK    4  A    between atoms: C_4  and  N_5
REMARK    5  A    between atoms: N_5  and  C_6
REMARK    6  A    between atoms: N_5  and  C_19
REMARK    7  A    between atoms: C_9  and  C_16
REMARK    8  A    between atoms: C_13  and  N_15
REMARK    9  A    between atoms: C_16  and  C_17
REMARK   10  A    between atoms: C_17  and  C_18
REMARK                            x       y       z     vdW  Elec       q    Type
REMARK                         _______ _______ _______ _____ _____    ______ ____
ROOT
ATOM      1  C   UNL     1      -3.054  -3.907   0.186  0.00  0.00    -0.083 C 
ATOM      2  C   UNL     1      -4.559  -4.185   0.188  0.00  0.00    -0.013 C 
ATOM      3  C   UNL     1      -4.802  -5.675   0.437  0.00  0.00    -0.013 C 
ATOM      4  C   UNL     1      -4.209  -6.069   1.791  0.00  0.00    +0.002 C 
ATOM      5  C   UNL     1      -2.704  -5.791   1.789  0.00  0.00    -0.018 C 
ATOM      6  C   UNL     1      -2.461  -4.301   1.541  0.00  0.00    -0.089 C 
ENDROOT
BRANCH   6   7
ATOM      7  N   UNL     1      -3.103  -3.517   2.604  0.00  0.00    +0.379 N 
ATOM      8  H   UNL     1      -4.096  -3.700   2.605  0.00  0.00    -0.090 HD
ATOM      9  H   UNL     1      -2.712  -3.777   3.497  0.00  0.00    -0.090 HD
ATOM     10  H   UNL     1      -2.943  -2.534   2.440  0.00  0.00    -0.090 HD
ENDBRANCH   6   7
BRANCH   1  11
ATOM     11  N   UNL     1      -2.821  -2.476  -0.052  0.00  0.00    +0.382 N 
ATOM     12  H   UNL     1      -3.262  -1.937   0.678  0.00  0.00    -0.081 HD
BRANCH  11  13
ATOM     13  C   UNL     1      -3.391  -2.098  -1.352  0.00  0.00    -0.068 C 
ATOM     14  C   UNL     1      -4.636  -1.208  -1.346  0.00  0.00    -0.017 C 
ATOM     15  C   UNL     1      -3.284  -0.629  -1.769  0.00  0.00    -0.017 C 
ENDBRANCH  11  13
BRANCH  11  16
ATOM     16  C   UNL     1      -1.377  -2.209  -0.054  0.00  0.00    -0.078 C 
BRANCH  16  17
ATOM     17  C   UNL     1      -0.697  -3.087  -1.106  0.00  0.00    -0.019 C 
BRANCH  17  19
ATOM     18  C   UNL     1       1.463  -3.588  -2.258  0.00  0.00    +0.004 C 
ATOM     19  C   UNL     1       0.783  -2.711  -1.205  0.00  0.00    -0.005 C 
ENDBRANCH  17  19
ENDBRANCH  16  17
ENDBRANCH  11  16
ENDBRANCH   1  11
BRANCH   3  20
ATOM     20  C   UNL     1      -6.306  -5.953   0.438  0.00  0.00    +0.003 C 
BRANCH  20  21
ATOM     21  C   UNL     1      -6.546  -7.459   0.562  0.00  0.00    -0.003 C 
ATOM     22  C   UNL     1      -8.050  -7.738   0.563  0.00  0.00    +0.004 C 
ENDBRANCH  20  21
ENDBRANCH   3  20
TORSDOF 8
