REMARK  Name = ZINC39662993
REMARK  5 active torsions:
REMARK  status: ('A' for Active; 'I' for Inactive)
REMARK    1  A    between atoms: C_1  and  C_2
REMARK    2  A    between atoms: C_2  and  C_3
REMARK    3  A    between atoms: C_6  and  C_9
REMARK    4  A    between atoms: C_13  and  C_22
REMARK    5  A    between atoms: N_24  and  C_25
REMARK                            x       y       z     vdW  Elec       q    Type
REMARK                         _______ _______ _______ _____ _____    ______ ____
ROOT
ATOM      1  C   UNL     1       2.790  -1.915   4.667  0.00  0.00    +0.247 C 
ATOM      2  O   UNL     1       3.969  -2.200   4.598  0.00  0.00    -0.270 OA
ATOM      3  N   UNL     1       2.127  -2.063   5.831  0.00  0.00    -0.296 N 
ATOM      4  C   UNL     1       0.676  -1.892   6.079  0.00  0.00    +0.121 C 
ATOM      5  C   UNL     1       0.312  -3.027   7.062  0.00  0.00    +0.100 C 
ATOM      6  C   UNL     1       1.634  -3.376   7.766  0.00  0.00    -0.004 C 
ATOM      7  C   UNL     1       2.685  -2.439   7.152  0.00  0.00    +0.115 C 
ATOM      8  C   UNL     1       2.010  -4.829   7.494  0.00  0.00    -0.010 C 
ATOM      9  C   UNL     1       3.297  -5.169   8.250  0.00  0.00    -0.082 C 
ATOM     10  N   UNL     1       3.093  -4.956   9.688  0.00  0.00    +0.379 N 
ATOM     11  C   UNL     1       2.823  -3.537   9.951  0.00  0.00    -0.082 C 
ATOM     12  C   UNL     1       1.516  -3.128   9.266  0.00  0.00    -0.010 C 
ATOM     13  H   UNL     1       2.309  -5.509  10.001  0.00  0.00    -0.086 HD
ATOM     14  H   UNL     1       3.922  -5.238  10.190  0.00  0.00    -0.086 HD
ENDROOT
BRANCH   1  18
ATOM     15  C   UNL     1       0.756  -0.450   1.238  0.00  0.00    -0.048 A 
ATOM     16  C   UNL     1       1.886  -1.233   1.086  0.00  0.00    +0.004 A 
ATOM     17  C   UNL     1       2.552  -1.712   2.195  0.00  0.00    +0.013 A 
ATOM     18  C   UNL     1       2.082  -1.405   3.473  0.00  0.00    +0.037 A 
ATOM     19  C   UNL     1       0.941  -0.614   3.619  0.00  0.00    +0.013 A 
ATOM     20  C   UNL     1       0.288  -0.137   2.502  0.00  0.00    +0.004 A 
BRANCH  15  22
ATOM     21  C   UNL     1       0.617   1.427  -0.377  0.00  0.00    +0.009 C 
ATOM     22  C   UNL     1       0.034   0.069   0.021  0.00  0.00    +0.032 C 
ENDBRANCH  15  22
ENDBRANCH   1  18
BRANCH   5  23
ATOM     23  C   UNL     1      -0.217  -4.222   6.312  0.00  0.00    +0.218 C 
ATOM     24  O   UNL     1       0.232  -4.500   5.220  0.00  0.00    -0.275 OA
ATOM     25  N   UNL     1      -1.190  -4.981   6.854  0.00  0.00    -0.314 N 
ATOM     26  H   UNL     1      -1.549  -4.759   7.727  0.00  0.00    +0.149 HD
BRANCH  25  27
ATOM     27  C   UNL     1      -1.704  -6.143   6.124  0.00  0.00    +0.059 C 
ATOM     28  C   UNL     1      -0.814  -7.357   6.400  0.00  0.00    -0.056 C 
ATOM     29  N   UNL     1      -1.601  -8.425   7.023  0.00  0.00    +0.381 N 
ATOM     30  C   UNL     1      -2.148  -7.980   8.307  0.00  0.00    -0.078 C 
ATOM     31  C   UNL     1      -3.082  -6.787   8.094  0.00  0.00    -0.014 C 
ATOM     32  C   UNL     1      -3.131  -6.455   6.594  0.00  0.00    +0.004 C 
ATOM     33  C   UNL     1      -3.628  -7.696   5.841  0.00  0.00    -0.014 C 
ATOM     34  C   UNL     1      -2.676  -8.862   6.128  0.00  0.00    -0.078 C 
ATOM     35  H   UNL     1      -0.992  -9.210   7.198  0.00  0.00    -0.082 HD
ENDBRANCH  25  27
ENDBRANCH   5  23
TORSDOF 4
