REMARK  Name = ZINC11694231
REMARK  10 active torsions:
REMARK  status: ('A' for Active; 'I' for Inactive)
REMARK    1  A    between atoms: C_1  and  C_2
REMARK    2  A    between atoms: C_4  and  C_7
REMARK    3  A    between atoms: N_9  and  C_10
REMARK    4  A    between atoms: C_11  and  C_22
REMARK    5  A    between atoms: C_15  and  C_20
REMARK    6  A    between atoms: C_15  and  C_21
REMARK    7  A    between atoms: C_16  and  C_18
REMARK    8  A    between atoms: C_16  and  C_19
REMARK    9  A    between atoms: C_22  and  O_24
REMARK   10  A    between atoms: O_24  and  C_25
REMARK                            x       y       z     vdW  Elec       q    Type
REMARK                         _______ _______ _______ _____ _____    ______ ____
ROOT
ATOM      1  C   UNL     1      -4.787   1.820  -1.374  0.00  0.00    +0.087 A 
ATOM      2  C   UNL     1      -4.125   1.051  -0.422  0.00  0.00    +0.091 A 
ATOM      3  C   UNL     1      -2.979   1.647   0.235  0.00  0.00    -0.024 A 
ATOM      4  C   UNL     1      -2.671   2.903  -0.159  0.00  0.00    -0.016 A 
ATOM      5  S   UNL     1      -3.888   3.301  -1.381  0.00  0.00    -0.079 S 
ATOM      6  C   UNL     1      -1.544   3.747   0.341  0.00  0.00    -0.041 C 
ATOM      7  C   UNL     1      -0.729   1.579   1.268  0.00  0.00    -0.069 C 
ATOM      8  C   UNL     1      -2.138   0.980   1.315  0.00  0.00    +0.024 C 
ATOM      9  C   UNL     1      -0.013   1.086   0.008  0.00  0.00    -0.010 C 
ATOM     10  C   UNL     1       0.048   1.047   2.488  0.00  0.00    -0.010 C 
ATOM     11  C   UNL     1      -2.143   5.005   1.000  0.00  0.00    -0.005 C 
ATOM     12  C   UNL     1      -0.674   4.201  -0.837  0.00  0.00    -0.005 C 
ATOM     13  N   UNL     1      -0.719   3.061   1.375  0.00  0.00    +0.389 N 
ATOM     14  H   UNL     1      -1.079   3.320   2.301  0.00  0.00    -0.084 HD
ATOM     15  H   UNL     1       0.251   3.384   1.283  0.00  0.00    -0.084 HD
ENDROOT
BRANCH   1  18
ATOM     16  C   UNL     1      -6.405   2.366  -3.012  0.00  0.00    +0.287 C 
ATOM     17  O   UNL     1      -5.890   3.459  -3.143  0.00  0.00    -0.266 OA
ATOM     18  N   UNL     1      -5.896   1.482  -2.130  0.00  0.00    -0.273 N 
ATOM     19  H   UNL     1      -6.307   0.610  -2.026  0.00  0.00    +0.156 HD
BRANCH  16  23
ATOM     20  C   UNL     1     -10.294   2.334  -6.261  0.00  0.00    +0.069 C 
ATOM     21  C   UNL     1      -9.271   1.972  -5.215  0.00  0.00    +0.081 A 
ATOM     22  C   UNL     1      -8.216   2.787  -4.749  0.00  0.00    +0.080 A 
ATOM     23  C   UNL     1      -7.586   2.006  -3.818  0.00  0.00    +0.222 A 
ATOM     24  O   UNL     1      -8.259   0.840  -3.791  0.00  0.00    -0.350 OA
ATOM     25  N   UNL     1      -9.188   0.848  -4.566  0.00  0.00    -0.083 NA
ENDBRANCH  16  23
ENDBRANCH   1  18
BRANCH   2  26
ATOM     26  C   UNL     1      -4.579  -0.304  -0.102  0.00  0.00    +0.342 C 
ATOM     27  O   UNL     1      -5.398  -0.479   0.780  0.00  0.00    -0.245 OA
BRANCH  26  28
ATOM     28  O   UNL     1      -4.088  -1.358  -0.785  0.00  0.00    -0.464 OA
ATOM     29  C   UNL     1      -4.582  -2.672  -0.414  0.00  0.00    +0.280 C 
ENDBRANCH  26  28
ENDBRANCH   2  26
TORSDOF 4
