REMARK  Name = ZINC13154400
REMARK  9 active torsions:
REMARK  status: ('A' for Active; 'I' for Inactive)
REMARK    1  A    between atoms: C_1  and  C_2
REMARK    2  A    between atoms: C_2  and  C_25
REMARK    3  A    between atoms: N_5  and  O_6
REMARK    4  A    between atoms: C_7  and  C_13
REMARK    5  A    between atoms: C_9  and  C_11
REMARK    6  A    between atoms: C_9  and  C_12
REMARK    7  A    between atoms: C_13  and  C_15
REMARK    8  A    between atoms: C_13  and  O_24
REMARK    9  A    between atoms: C_19  and  N_21
REMARK                            x       y       z     vdW  Elec       q    Type
REMARK                         _______ _______ _______ _____ _____    ______ ____
ROOT
ATOM      1  C   UNL     1      -0.019   1.542   0.011  0.00  0.00    -0.010 C 
ATOM      2  C   UNL     1       0.002  -0.004   0.002  0.00  0.00    -0.068 C 
ATOM      3  C   UNL     1      -1.452  -0.480  -0.040  0.00  0.00    +0.041 C 
ATOM      4  C   UNL     1      -1.476  -1.958   0.288  0.00  0.00    +0.061 C 
ATOM      5  N   UNL     1      -2.012  -2.813  -0.492  0.00  0.00    -0.096 NA
ATOM      6  C   UNL     1      -0.831  -2.360   1.596  0.00  0.00    +0.058 C 
ATOM      7  C   UNL     1       0.603  -1.829   1.616  0.00  0.00    -0.062 C 
ATOM      8  N   UNL     1       0.710  -0.446   1.189  0.00  0.00    +0.387 N 
ATOM      9  C   UNL     1       1.499  -2.749   0.780  0.00  0.00    -0.010 C 
ATOM     10  C   UNL     1       1.104  -1.912   3.076  0.00  0.00    -0.010 C 
ATOM     11  C   UNL     1       0.718  -0.439  -1.280  0.00  0.00    -0.010 C 
ATOM     12  H   UNL     1       1.705  -0.229   1.064  0.00  0.00    -0.084 HD
ATOM     13  H   UNL     1       0.418   0.150   1.972  0.00  0.00    -0.084 HD
ENDROOT
BRANCH   5  14
ATOM     14  O   UNL     1      -2.607  -2.390  -1.706  0.00  0.00    -0.409 OA
ATOM     15  H   UNL     1      -2.987  -3.109  -2.230  0.00  0.00    +0.328 HD
ENDBRANCH   5  14
BRANCH   6  16
ATOM     16  C   UNL     1      -0.820  -3.886   1.718  0.00  0.00    +0.152 C 
BRANCH  16  17
ATOM     17  C   UNL     1      -2.235  -4.403   1.679  0.00  0.00    -0.016 A 
ATOM     18  C   UNL     1      -3.023  -4.348   2.813  0.00  0.00    +0.006 A 
ATOM     19  C   UNL     1      -4.321  -4.822   2.777  0.00  0.00    +0.003 A 
ATOM     20  C   UNL     1      -4.831  -5.352   1.606  0.00  0.00    +0.033 A 
ATOM     21  C   UNL     1      -4.043  -5.407   0.472  0.00  0.00    +0.127 A 
ATOM     22  C   UNL     1      -2.747  -4.928   0.507  0.00  0.00    +0.039 A 
BRANCH  21  23
ATOM     23  N   UNL     1      -4.589  -5.974  -0.782  0.00  0.00    +0.056 N 
ATOM     24  O   UNL     1      -5.724  -6.390  -0.813  0.00  0.00    -0.126 OA
ATOM     25  O   UNL     1      -3.900  -6.022  -1.774  0.00  0.00    -0.126 OA
ENDBRANCH  21  23
ENDBRANCH  16  17
BRANCH  16  26
ATOM     26  O   UNL     1      -0.210  -4.261   2.954  0.00  0.00    -0.387 OA
ATOM     27  H   UNL     1      -0.662  -3.916   3.736  0.00  0.00    +0.210 HD
ENDBRANCH  16  26
ENDBRANCH   6  16
TORSDOF 5
