REMARK  Name = ZINC11973524
REMARK  6 active torsions:
REMARK  status: ('A' for Active; 'I' for Inactive)
REMARK    1  A    between atoms: C_5  and  C_7
REMARK    2  A    between atoms: C_7  and  N_43
REMARK    3  A    between atoms: C_8  and  C_9
REMARK    4  A    between atoms: C_8  and  N_43
REMARK    5  A    between atoms: C_9  and  N_10
REMARK    6  A    between atoms: C_12  and  C_15
REMARK                            x       y       z     vdW  Elec       q    Type
REMARK                         _______ _______ _______ _____ _____    ______ ____
ROOT
ATOM      1  C   UNL     1       0.096   8.590  -3.437  0.00  0.00    +0.126 C 
ENDROOT
BRANCH   1   2
ATOM      2  N   UNL     1      -0.225   7.351  -2.724  0.00  0.00    -0.253 N 
ATOM      3  C   UNL     1       0.164   6.105  -3.064  0.00  0.00    +0.143 A 
ATOM      4  C   UNL     1      -0.362   5.258  -2.129  0.00  0.00    +0.167 A 
ATOM      5  N   UNL     1      -1.051   5.987  -1.235  0.00  0.00    -0.125 NA
ATOM      6  N   UNL     1      -0.991   7.232  -1.556  0.00  0.00    -0.065 NA
BRANCH   4   7
ATOM      7  C   UNL     1      -0.195   3.793  -2.103  0.00  0.00    +0.268 C 
ATOM      8  O   UNL     1       0.565   3.253  -2.884  0.00  0.00    -0.268 OA
ATOM      9  N   UNL     1      -0.886   3.052  -1.214  0.00  0.00    -0.295 N 
ATOM     10  C   UNL     1      -0.789   1.592  -1.260  0.00  0.00    +0.119 C 
ATOM     11  C   UNL     1      -0.103   1.086   0.015  0.00  0.00    +0.088 C 
ATOM     12  S   UNL     1      -1.044   1.669   1.457  0.00  0.00    -0.158 S 
ATOM     13  C   UNL     1      -1.150   3.464   1.183  0.00  0.00    +0.088 C 
ATOM     14  C   UNL     1      -1.724   3.717  -0.215  0.00  0.00    +0.119 C 
ENDBRANCH   4   7
ENDBRANCH   1   2
BRANCH   1  15
ATOM     15  C   UNL     1      -1.198   9.332  -3.777  0.00  0.00    -0.059 C 
BRANCH  15  16
ATOM     16  N   UNL     1      -0.866  10.578  -4.494  0.00  0.00    +0.383 N 
ATOM     17  H   UNL     1      -0.274  11.166  -3.895  0.00  0.00    -0.085 HD
ATOM     18  H   UNL     1      -0.359  10.348  -5.356  0.00  0.00    -0.085 HD
BRANCH  16  19
ATOM     19  C   UNL     1      -2.097  11.316  -4.835  0.00  0.00    -0.044 C 
BRANCH  19  24
ATOM     20  C   UNL     1      -1.362  14.948  -5.557  0.00  0.00    +0.000 A 
ATOM     21  C   UNL     1      -1.050  14.906  -6.904  0.00  0.00    +0.003 A 
ATOM     22  C   UNL     1      -1.077  13.702  -7.582  0.00  0.00    +0.038 A 
ATOM     23  C   UNL     1      -1.416  12.538  -6.913  0.00  0.00    +0.125 A 
ATOM     24  C   UNL     1      -1.728  12.582  -5.565  0.00  0.00    -0.029 A 
ATOM     25  C   UNL     1      -1.706  13.788  -4.890  0.00  0.00    +0.004 A 
ATOM     26  F   UNL     1      -1.443  11.361  -7.575  0.00  0.00    -0.205 F 
ENDBRANCH  19  24
ENDBRANCH  16  19
ENDBRANCH  15  16
ENDBRANCH   1  15
TORSDOF 6
