REMARK  Name = ZINC49283686
REMARK  10 active torsions:
REMARK  status: ('A' for Active; 'I' for Inactive)
REMARK    1  A    between atoms: C_1  and  C_2
REMARK    2  A    between atoms: C_2  and  C_3
REMARK    3  A    between atoms: C_2  and  C_4
REMARK    4  A    between atoms: C_4  and  C_5
REMARK    5  A    between atoms: C_5  and  N_6
REMARK    6  A    between atoms: C_7  and  C_9
REMARK    7  A    between atoms: C_9  and  O_10
REMARK    8  A    between atoms: O_10  and  C_11
REMARK    9  A    between atoms: C_16  and  C_17
REMARK   10  A    between atoms: C_17  and  N_18
REMARK                            x       y       z     vdW  Elec       q    Type
REMARK                         _______ _______ _______ _____ _____    ______ ____
ROOT
ATOM      1  C   UNL     1      -5.621  -6.466  -0.339  0.00  0.00    +0.123 A 
ATOM      2  C   UNL     1      -6.793  -5.731  -0.234  0.00  0.00    +0.047 A 
ATOM      3  C   UNL     1      -8.014  -6.376  -0.242  0.00  0.00    +0.019 A 
ATOM      4  C   UNL     1      -8.070  -7.754  -0.354  0.00  0.00    +0.018 A 
ATOM      5  C   UNL     1      -6.902  -8.489  -0.459  0.00  0.00    +0.020 A 
ATOM      6  C   UNL     1      -5.679  -7.847  -0.458  0.00  0.00    -0.022 A 
ATOM      7 BR   UNL     1      -9.743  -8.634  -0.365  0.00  0.00    -0.050 Br
ENDROOT
BRANCH   1   8
ATOM      8  O   UNL     1      -4.418  -5.833  -0.332  0.00  0.00    -0.483 OA
BRANCH   8   9
ATOM      9  C   UNL     1      -4.435  -4.410  -0.207  0.00  0.00    +0.324 C 
BRANCH   9  11
ATOM     10  N   UNL     1      -2.790  -2.565  -0.111  0.00  0.00    -0.313 N 
ATOM     11  C   UNL     1      -3.021  -3.888  -0.217  0.00  0.00    +0.251 C 
ATOM     12  O   UNL     1      -2.091  -4.660  -0.322  0.00  0.00    -0.272 OA
ATOM     13  H   UNL     1      -3.534  -1.948  -0.027  0.00  0.00    +0.149 HD
BRANCH  10  14
ATOM     14  C   UNL     1      -1.416  -2.058  -0.121  0.00  0.00    +0.104 C 
BRANCH  14  15
ATOM     15  C   UNL     1      -1.433  -0.534   0.013  0.00  0.00    +0.022 C 
BRANCH  15  17
ATOM     16  C   UNL     1      -0.019   1.526   0.010  0.00  0.00    +0.007 C 
ATOM     17  C   UNL     1       0.002  -0.004   0.002  0.00  0.00    -0.016 C 
ATOM     18  C   UNL     1       0.742  -0.511   1.242  0.00  0.00    +0.007 C 
ENDBRANCH  15  17
ENDBRANCH  14  15
ENDBRANCH  10  14
ENDBRANCH   9  11
ENDBRANCH   8   9
ENDBRANCH   1   8
BRANCH   6  19
ATOM     19  C   UNL     1      -4.407  -8.647  -0.579  0.00  0.00    -0.047 C 
BRANCH  19  20
ATOM     20  N   UNL     1      -3.811  -8.823   0.752  0.00  0.00    +0.381 N 
ATOM     21  H   UNL     1      -4.460  -9.312   1.349  0.00  0.00    -0.090 HD
ATOM     22  H   UNL     1      -2.960  -9.359   0.670  0.00  0.00    -0.090 HD
ATOM     23  H   UNL     1      -3.603  -7.919   1.149  0.00  0.00    -0.090 HD
ENDBRANCH  19  20
ENDBRANCH   6  19
TORSDOF 8
