REMARK  Name = ZINC37033444
REMARK  10 active torsions:
REMARK  status: ('A' for Active; 'I' for Inactive)
REMARK    1  A    between atoms: C_1  and  C_2
REMARK    2  A    between atoms: C_3  and  C_9
REMARK    3  A    between atoms: C_4  and  C_8
REMARK    4  A    between atoms: N_5  and  C_7
REMARK    5  A    between atoms: C_9  and  N_10
REMARK    6  A    between atoms: N_10  and  C_11
REMARK    7  A    between atoms: C_14  and  C_23
REMARK    8  A    between atoms: C_18  and  C_20
REMARK    9  A    between atoms: C_20  and  C_21
REMARK   10  A    between atoms: C_20  and  C_22
REMARK                            x       y       z     vdW  Elec       q    Type
REMARK                         _______ _______ _______ _____ _____    ______ ____
ROOT
ATOM      1  N   UNL     1       0.837  -0.344  -3.087  0.00  0.00    +0.384 N 
ATOM      2  H   UNL     1       0.889   0.414  -2.423  0.00  0.00    -0.085 HD
ATOM      3  H   UNL     1       1.629  -0.956  -2.962  0.00  0.00    -0.085 HD
ENDROOT
BRANCH   1   4
ATOM      4  C   UNL     1       0.850   0.200  -4.452  0.00  0.00    -0.068 C 
ATOM      5  C   UNL     1       0.834  -0.951  -5.460  0.00  0.00    -0.012 C 
ATOM      6  C   UNL     1       2.068  -1.830  -5.249  0.00  0.00    -0.016 C 
ATOM      7  C   UNL     1       3.332  -0.993  -5.452  0.00  0.00    +0.003 C 
ATOM      8  C   UNL     1       3.348   0.158  -4.444  0.00  0.00    +0.002 C 
ATOM      9  C   UNL     1       2.114   1.038  -4.655  0.00  0.00    -0.022 C 
ATOM     10  C   UNL     1       2.054  -2.397  -3.828  0.00  0.00    +0.007 C 
BRANCH   9  11
ATOM     11  C   UNL     1       2.130   2.189  -3.647  0.00  0.00    -0.016 C 
ATOM     12  C   UNL     1       3.394   3.027  -3.849  0.00  0.00    +0.007 C 
ATOM     13  C   UNL     1       0.896   3.068  -3.857  0.00  0.00    +0.007 C 
ENDBRANCH   9  11
ENDBRANCH   1   4
BRANCH   1  14
ATOM     14  C   UNL     1      -0.405  -1.099  -2.873  0.00  0.00    -0.043 C 
BRANCH  14  17
ATOM     15  C   UNL     1      -1.359   0.633  -0.397  0.00  0.00    +0.068 C 
ATOM     16  C   UNL     1      -0.892  -0.799  -0.347  0.00  0.00    +0.062 A 
ATOM     17  C   UNL     1      -0.470  -1.562  -1.441  0.00  0.00    -0.021 A 
ATOM     18  C   UNL     1      -0.133  -2.791  -0.985  0.00  0.00    +0.037 A 
ATOM     19  N   UNL     1      -0.333  -2.805   0.349  0.00  0.00    -0.271 N 
ATOM     20  N   UNL     1      -0.805  -1.541   0.727  0.00  0.00    -0.176 NA
ATOM     21  C   UNL     1      -0.094  -3.939   1.245  0.00  0.00    +0.172 C 
ATOM     22  C   UNL     1       0.376  -3.939  -1.819  0.00  0.00    +0.065 C 
ENDBRANCH  14  17
ENDBRANCH   1  14
TORSDOF 4
