REMARK  Name = ZINC57845704
REMARK  10 active torsions:
REMARK  status: ('A' for Active; 'I' for Inactive)
REMARK    1  A    between atoms: C_1  and  C_2
REMARK    2  A    between atoms: C_2  and  C_4
REMARK    3  A    between atoms: C_2  and  N_6
REMARK    4  A    between atoms: C_4  and  N_5
REMARK    5  A    between atoms: C_9  and  C_13
REMARK    6  A    between atoms: C_9  and  C_14
REMARK    7  A    between atoms: C_17  and  O_22
REMARK    8  A    between atoms: C_18  and  O_20
REMARK    9  A    between atoms: O_20  and  C_21
REMARK   10  A    between atoms: O_22  and  C_23
REMARK                            x       y       z     vdW  Elec       q    Type
REMARK                         _______ _______ _______ _____ _____    ______ ____
ROOT
ATOM      1  N   UNL     1       0.711  -0.489   1.189  0.00  0.00    -0.223 N 
ATOM      2  C   UNL     1       0.160  -1.284   2.127  0.00  0.00    +0.251 C 
ATOM      3  O   UNL     1      -0.973  -1.716   2.148  0.00  0.00    -0.272 OA
ATOM      4  C   UNL     1       1.251  -1.527   3.151  0.00  0.00    +0.135 C 
ATOM      5  N   UNL     1       2.397  -0.769   2.621  0.00  0.00    -0.281 N 
ATOM      6  C   UNL     1       1.986  -0.203   1.472  0.00  0.00    +0.310 C 
ATOM      7  O   UNL     1       2.694   0.494   0.771  0.00  0.00    -0.252 OA
ATOM      8  C   UNL     1       0.834  -0.985   4.520  0.00  0.00    +0.047 C 
ATOM      9  H   UNL     1       3.278  -0.695   3.021  0.00  0.00    +0.152 HD
ENDROOT
BRANCH   4  10
ATOM     10  C   UNL     1       1.580  -2.995   3.238  0.00  0.00    -0.012 A 
ATOM     11  C   UNL     1       0.604  -3.937   2.972  0.00  0.00    +0.010 A 
ATOM     12  C   UNL     1       0.901  -5.285   3.051  0.00  0.00    +0.050 A 
ATOM     13  C   UNL     1       2.179  -5.694   3.396  0.00  0.00    +0.162 A 
ATOM     14  C   UNL     1       3.161  -4.745   3.663  0.00  0.00    +0.162 A 
ATOM     15  C   UNL     1       2.858  -3.396   3.578  0.00  0.00    +0.055 A 
BRANCH  14  16
ATOM     16  O   UNL     1       4.417  -5.142   4.002  0.00  0.00    -0.491 OA
ATOM     17  C   UNL     1       5.374  -4.113   4.262  0.00  0.00    +0.277 C 
ENDBRANCH  14  16
BRANCH  13  18
ATOM     18  O   UNL     1       2.473  -7.020   3.474  0.00  0.00    -0.491 OA
ATOM     19  C   UNL     1       1.415  -7.936   3.187  0.00  0.00    +0.277 C 
ENDBRANCH  13  18
ENDBRANCH   4  10
BRANCH   1  21
ATOM     20  C   UNL     1      -0.019   1.526   0.010  0.00  0.00    +0.026 C 
ATOM     21  C   UNL     1       0.002  -0.004   0.002  0.00  0.00    +0.065 C 
BRANCH  21  22
ATOM     22  C   UNL     1       0.718  -0.497  -1.257  0.00  0.00    -0.063 C 
BRANCH  22  23
ATOM     23  N   UNL     1       0.844  -1.960  -1.207  0.00  0.00    +0.379 N 
ATOM     24  H   UNL     1       1.377  -2.224  -0.392  0.00  0.00    -0.090 HD
ATOM     25  H   UNL     1      -0.074  -2.375  -1.158  0.00  0.00    -0.090 HD
ATOM     26  H   UNL     1       1.316  -2.286  -2.037  0.00  0.00    -0.090 HD
ENDBRANCH  22  23
ENDBRANCH  21  22
ENDBRANCH   1  21
TORSDOF 6
