REMARK  Name = ZINC00137079
REMARK  4 active torsions:
REMARK  status: ('A' for Active; 'I' for Inactive)
REMARK    1  A    between atoms: C_1  and  C_2
REMARK    2  A    between atoms: C_2  and  C_3
REMARK    3  A    between atoms: C_17  and  N_22
REMARK    4  A    between atoms: C_19  and  C_21
REMARK                            x       y       z     vdW  Elec       q    Type
REMARK                         _______ _______ _______ _____ _____    ______ ____
ROOT
ATOM      1  C   UNL     1      -1.588   7.775  -0.566  0.00  0.00    +0.132 A 
ATOM      2  N   UNL     1      -1.278   7.400   0.659  0.00  0.00    -0.212 NA
ATOM      3  C   UNL     1      -1.271   6.136   1.071  0.00  0.00    +0.168 A 
ATOM      4  C   UNL     1      -1.626   5.163   0.095  0.00  0.00    +0.055 A 
ATOM      5  C   UNL     1      -1.698   3.723   0.275  0.00  0.00    -0.024 A 
ATOM      6  C   UNL     1      -2.063   2.994  -0.803  0.00  0.00    -0.004 A 
ATOM      7  S   UNL     1      -2.326   4.176  -2.101  0.00  0.00    -0.073 S 
ATOM      8  C   UNL     1      -1.947   5.645  -1.201  0.00  0.00    +0.114 A 
ATOM      9  N   UNL     1      -1.929   6.921  -1.524  0.00  0.00    -0.225 NA
ATOM     10  C   UNL     1      -2.213   1.506  -0.883  0.00  0.00    +0.043 C 
ATOM     11  C   UNL     1      -1.531   0.881   0.342  0.00  0.00    +0.005 C 
ATOM     12  C   UNL     1      -1.984   1.634   1.596  0.00  0.00    +0.005 C 
ATOM     13  C   UNL     1      -1.383   3.039   1.603  0.00  0.00    +0.037 C 
ATOM     14  N   UNL     1      -0.936   5.785   2.377  0.00  0.00    -0.200 N 
ATOM     15  C   UNL     1      -1.541   6.240   3.510  0.00  0.00    +0.122 A 
ATOM     16  C   UNL     1      -0.917   5.651   4.568  0.00  0.00    +0.068 A 
ATOM     17  C   UNL     1       0.095   4.827   4.066  0.00  0.00    +0.062 A 
ATOM     18  N   UNL     1       0.085   4.906   2.760  0.00  0.00    -0.169 NA
ATOM     19  C   UNL     1       1.039   3.991   4.890  0.00  0.00    +0.067 C 
ENDROOT
BRANCH  15  20
ATOM     20  N   UNL     1      -2.601   7.138   3.575  0.00  0.00    -0.343 N 
ATOM     21  H   UNL     1      -2.979   7.501   2.759  0.00  0.00    +0.144 HD
ATOM     22  H   UNL     1      -2.962   7.400   4.436  0.00  0.00    +0.144 HD
ENDBRANCH  15  20
BRANCH   1  24
ATOM     23  C   UNL     1      -2.928   9.861  -0.619  0.00  0.00    +0.012 C 
ATOM     24  C   UNL     1      -1.555   9.245  -0.895  0.00  0.00    +0.073 C 
ENDBRANCH   1  24
TORSDOF 2
