REMARK  Name = ZINC36851768
REMARK  5 active torsions:
REMARK  status: ('A' for Active; 'I' for Inactive)
REMARK    1  A    between atoms: C_1  and  S_2
REMARK    2  A    between atoms: S_2  and  N_5
REMARK    3  A    between atoms: C_8  and  N_11
REMARK    4  A    between atoms: N_11  and  C_12
REMARK    5  A    between atoms: N_17  and  C_20
REMARK                            x       y       z     vdW  Elec       q    Type
REMARK                         _______ _______ _______ _____ _____    ______ ____
ROOT
ATOM      1  N   UNL     1       2.756   0.796  -4.908  0.00  0.00    +0.389 N 
ATOM      2  H   UNL     1       2.333   0.668  -5.815  0.00  0.00    -0.084 HD
ATOM      3  H   UNL     1       2.615   1.748  -4.602  0.00  0.00    -0.084 HD
ENDROOT
BRANCH   1   4
ATOM      4  C   UNL     1       4.196   0.519  -4.995  0.00  0.00    +0.026 C 
ATOM      5  C   UNL     1       4.447  -0.834  -5.691  0.00  0.00    +0.090 C 
ATOM      6  C   UNL     1       5.243  -0.457  -6.922  0.00  0.00    +0.221 C 
ATOM      7  O   UNL     1       5.652  -1.234  -7.758  0.00  0.00    -0.275 OA
ATOM      8  N   UNL     1       5.423   0.869  -6.941  0.00  0.00    -0.240 N 
ATOM      9  C   UNL     1       4.877   1.520  -5.902  0.00  0.00    +0.208 C 
ATOM     10  O   UNL     1       4.920   2.718  -5.719  0.00  0.00    -0.277 OA
BRANCH   8  11
ATOM     11  C   UNL     1       6.158   1.554  -8.007  0.00  0.00    +0.084 C 
ATOM     12  C   UNL     1       6.586   3.001  -7.753  0.00  0.00    +0.025 C 
ATOM     13  C   UNL     1       5.449   2.700  -8.731  0.00  0.00    +0.025 C 
ENDBRANCH   8  11
ENDBRANCH   1   4
BRANCH   1  17
ATOM     14  N   UNL     1       0.591  -0.742  -1.658  0.00  0.00    -0.182 NA
ATOM     15  C   UNL     1      -0.025  -0.920  -2.980  0.00  0.00    +0.107 C 
ATOM     16  C   UNL     1       0.619   0.065  -3.961  0.00  0.00    +0.001 C 
ATOM     17  C   UNL     1       2.138  -0.124  -3.944  0.00  0.00    -0.068 C 
ATOM     18  C   UNL     1       2.675   0.170  -2.542  0.00  0.00    +0.001 C 
ATOM     19  C   UNL     1       2.055  -0.808  -1.546  0.00  0.00    +0.107 C 
BRANCH  14  21
ATOM     20  C   UNL     1      -0.510   1.338  -0.231  0.00  0.00    +0.215 C 
ATOM     21  S   UNL     1      -0.346  -0.466  -0.321  0.00  0.00    +0.029 S 
ATOM     22  O   UNL     1       0.430  -0.942   0.770  0.00  0.00    -0.158 OA
ATOM     23  O   UNL     1      -1.601  -1.057  -0.629  0.00  0.00    -0.158 OA
ENDBRANCH  14  21
ENDBRANCH   1  17
TORSDOF 4
