REMARK  Name = ZINC31972793
REMARK  6 active torsions:
REMARK  status: ('A' for Active; 'I' for Inactive)
REMARK    1  A    between atoms: C_1  and  C_2
REMARK    2  A    between atoms: C_5  and  C_8
REMARK    3  A    between atoms: C_9  and  C_21
REMARK    4  A    between atoms: C_11  and  C_16
REMARK    5  A    between atoms: C_21  and  C_22
REMARK    6  A    between atoms: C_22  and  N_23
REMARK                            x       y       z     vdW  Elec       q    Type
REMARK                         _______ _______ _______ _____ _____    ______ ____
ROOT
ATOM      1  C   UNL     1       1.151  -0.546   2.951  0.00  0.00    +0.093 A 
ATOM      2  C   UNL     1       1.138   0.558   2.165  0.00  0.00    +0.050 A 
ATOM      3  N   UNL     1       1.572   1.629   2.937  0.00  0.00    -0.287 N 
ATOM      4  C   UNL     1       1.782   2.990   2.783  0.00  0.00    +0.098 A 
ATOM      5  C   UNL     1       2.222   3.730   3.823  0.00  0.00    +0.078 A 
ATOM      6  S   UNL     1       2.358   2.507   5.117  0.00  0.00    -0.057 S 
ATOM      7  C   UNL     1       1.818   1.099   4.176  0.00  0.00    +0.179 A 
ATOM      8  N   UNL     1       1.573  -0.180   4.179  0.00  0.00    -0.221 NA
ENDROOT
BRANCH   1  13
ATOM      9  C   UNL     1      -0.332  -5.870   1.332  0.00  0.00    +0.044 C 
ATOM     10  C   UNL     1       0.056  -4.476   1.756  0.00  0.00    -0.050 A 
ATOM     11  C   UNL     1       1.179  -4.282   2.540  0.00  0.00    +0.004 A 
ATOM     12  C   UNL     1       1.540  -3.009   2.931  0.00  0.00    +0.010 A 
ATOM     13  C   UNL     1       0.769  -1.917   2.534  0.00  0.00    +0.002 A 
ATOM     14  C   UNL     1      -0.365  -2.119   1.750  0.00  0.00    +0.010 A 
ATOM     15  C   UNL     1      -0.713  -3.397   1.360  0.00  0.00    +0.004 A 
ENDBRANCH   1  13
BRANCH   4  16
ATOM     16  C   UNL     1       1.532   3.629   1.481  0.00  0.00    +0.152 A 
ATOM     17  C   UNL     1       2.082   4.796   1.043  0.00  0.00    +0.051 A 
ATOM     18  C   UNL     1       1.566   5.028  -0.248  0.00  0.00    +0.042 A 
ATOM     19  C   UNL     1       0.738   4.005  -0.533  0.00  0.00    +0.196 A 
ATOM     20  O   UNL     1       0.723   3.158   0.511  0.00  0.00    -0.461 OA
ENDBRANCH   4  16
BRANCH   2  21
ATOM     21  C   UNL     1       0.733   0.612   0.715  0.00  0.00    +0.036 C 
BRANCH  21  22
ATOM     22  C   UNL     1      -0.741   1.010   0.611  0.00  0.00    -0.080 C 
BRANCH  22  23
ATOM     23  N   UNL     1      -1.154   0.997  -0.798  0.00  0.00    +0.378 N 
ATOM     24  H   UNL     1      -2.213   1.282  -0.873  0.00  0.00    -0.090 HD
ATOM     25  H   UNL     1      -1.016  -0.014  -1.211  0.00  0.00    -0.090 HD
ATOM     26  H   UNL     1      -0.540   1.711  -1.367  0.00  0.00    -0.090 HD
ENDBRANCH  22  23
ENDBRANCH  21  22
ENDBRANCH   2  21
TORSDOF 5
