REMARK  Name = ZINC05497000
REMARK  5 active torsions:
REMARK  status: ('A' for Active; 'I' for Inactive)
REMARK    1  A    between atoms: C_1  and  C_2
REMARK    2  A    between atoms: C_7  and  O_15
REMARK    3  A    between atoms: C_7  and  O_17
REMARK    4  A    between atoms: O_15  and  C_16
REMARK    5  A    between atoms: O_17  and  C_18
REMARK                            x       y       z     vdW  Elec       q    Type
REMARK                         _______ _______ _______ _____ _____    ______ ____
ROOT
ATOM      1  C   UNL     1      -0.764   1.981   1.457  0.00  0.00    +0.023 C 
ATOM      2  C   UNL     1      -0.049   1.526   0.183  0.00  0.00    +0.081 C 
ATOM      3  C   UNL     1      -0.053  -0.007   0.024  0.00  0.00    +0.055 C 
ATOM      4  C   UNL     1       1.324  -0.445   0.512  0.00  0.00    +0.003 C 
ATOM      5  C   UNL     1       1.638  -1.505   1.218  0.00  0.00    +0.084 C 
ATOM      6 CL   UNL     1       0.388  -2.546   1.824  0.00  0.00    -0.092 Cl
ATOM      7  C   UNL     1       2.246   0.646  -0.019  0.00  0.00    +0.222 C 
ATOM      8  C   UNL     1       1.442   1.950   0.155  0.00  0.00    +0.192 C 
ATOM      9  C   UNL     1       1.548   2.774  -1.108  0.00  0.00    +0.247 C 
ATOM     10  O   UNL     1       2.559   3.306  -1.515  0.00  0.00    -0.273 OA
ATOM     11  N   UNL     1       0.352   2.825  -1.707  0.00  0.00    -0.254 N 
ATOM     12  C   UNL     1      -0.617   2.159  -1.068  0.00  0.00    +0.228 C 
ATOM     13  O   UNL     1      -1.769   2.076  -1.434  0.00  0.00    -0.275 OA
ATOM     14 CL   UNL     1       1.929   2.864   1.631  0.00  0.00    -0.101 Cl
ATOM     15  H   UNL     1       0.200   3.305  -2.535  0.00  0.00    +0.158 HD
ENDROOT
BRANCH   7  16
ATOM     16  O   UNL     1       3.451   0.697   0.747  0.00  0.00    -0.347 OA
ATOM     17  C   UNL     1       4.425   1.612   0.240  0.00  0.00    +0.198 C 
ENDBRANCH   7  16
BRANCH   7  18
ATOM     18  O   UNL     1       2.543   0.421  -1.399  0.00  0.00    -0.347 OA
ATOM     19  C   UNL     1       3.221  -0.810  -1.654  0.00  0.00    +0.198 C 
ENDBRANCH   7  18
TORSDOF 2
