REMARK  Name = ZINC62896184
REMARK  7 active torsions:
REMARK  status: ('A' for Active; 'I' for Inactive)
REMARK    1  A    between atoms: C_1  and  C_2
REMARK    2  A    between atoms: C_2  and  C_7
REMARK    3  A    between atoms: C_14  and  C_16
REMARK    4  A    between atoms: C_16  and  C_17
REMARK    5  A    between atoms: C_17  and  N_18
REMARK    6  A    between atoms: N_18  and  S_19
REMARK    7  A    between atoms: S_19  and  C_22
REMARK                            x       y       z     vdW  Elec       q    Type
REMARK                         _______ _______ _______ _____ _____    ______ ____
ROOT
ATOM      1  C   UNL     1      -1.324  -0.911  -0.143  0.00  0.00    +0.220 C 
ATOM      2  O   UNL     1      -1.667  -1.537   0.838  0.00  0.00    -0.275 OA
ATOM      3  N   UNL     1      -2.244  -0.519  -1.047  0.00  0.00    -0.298 N 
ATOM      4  C   UNL     1      -1.833   0.128  -2.301  0.00  0.00    +0.108 C 
ATOM      5  C   UNL     1      -2.456  -0.633  -3.476  0.00  0.00    +0.019 C 
ATOM      6  C   UNL     1      -3.971  -0.715  -3.278  0.00  0.00    +0.003 C 
ATOM      7  C   UNL     1      -4.279  -1.481  -1.990  0.00  0.00    +0.022 C 
ATOM      8  C   UNL     1      -3.676  -0.736  -0.801  0.00  0.00    +0.077 C 
ENDROOT
BRANCH   1  10
ATOM      9  C   UNL     1       0.311   0.944  -0.451  0.00  0.00    +0.019 C 
ATOM     10  C   UNL     1       0.129  -0.572  -0.351  0.00  0.00    +0.028 C 
ATOM     11  C   UNL     1       0.666  -1.262  -1.626  0.00  0.00    -0.005 C 
ATOM     12  C   UNL     1       2.092  -1.700  -1.209  0.00  0.00    -0.082 C 
ATOM     13  N   UNL     1       1.920  -2.114   0.207  0.00  0.00    +0.380 N 
ATOM     14  C   UNL     1       0.980  -1.138   0.801  0.00  0.00    -0.067 C 
ATOM     15  H   UNL     1       1.531  -3.043   0.253  0.00  0.00    -0.086 HD
ATOM     16  H   UNL     1       2.806  -2.081   0.690  0.00  0.00    -0.086 HD
ENDBRANCH   1  10
BRANCH   8  17
ATOM     17  C   UNL     1      -3.857  -1.569   0.470  0.00  0.00    +0.039 C 
BRANCH  17  18
ATOM     18  C   UNL     1      -5.349  -1.801   0.719  0.00  0.00    +0.107 C 
BRANCH  18  19
ATOM     19  N   UNL     1      -5.529  -2.493   1.998  0.00  0.00    -0.195 NA
ATOM     20  H   UNL     1      -4.771  -2.919   2.429  0.00  0.00    +0.148 HD
BRANCH  19  21
ATOM     21  S   UNL     1      -7.024  -2.548   2.706  0.00  0.00    +0.027 S 
ATOM     22  O   UNL     1      -6.825  -3.263   3.918  0.00  0.00    -0.158 OA
ATOM     23  O   UNL     1      -7.467  -1.198   2.725  0.00  0.00    -0.158 OA
ATOM     24  C   UNL     1      -8.044  -3.524   1.566  0.00  0.00    +0.214 C 
ENDBRANCH  19  21
ENDBRANCH  18  19
ENDBRANCH  17  18
ENDBRANCH   8  17
TORSDOF 5
