REMARK  Name = ZINC53012682
REMARK  6 active torsions:
REMARK  status: ('A' for Active; 'I' for Inactive)
REMARK    1  A    between atoms: C_1  and  C_2
REMARK    2  A    between atoms: C_7  and  N_12
REMARK    3  A    between atoms: C_9  and  C_11
REMARK    4  A    between atoms: C_15  and  C_18
REMARK    5  A    between atoms: C_18  and  N_19
REMARK    6  A    between atoms: N_19  and  C_20
REMARK                            x       y       z     vdW  Elec       q    Type
REMARK                         _______ _______ _______ _____ _____    ______ ____
ROOT
ATOM      1  N   UNL     1       1.544  -2.874   2.419  0.00  0.00    +0.382 N 
ATOM      2  C   UNL     1       0.924  -2.548   3.729  0.00  0.00    -0.078 C 
ATOM      3  C   UNL     1       1.409  -3.698   4.647  0.00  0.00    -0.019 C 
ATOM      4  C   UNL     1       1.381  -4.926   3.708  0.00  0.00    -0.047 C 
ATOM      5  C   UNL     1       1.450  -4.344   2.283  0.00  0.00    -0.077 C 
ATOM      6  H   UNL     1       2.511  -2.585   2.409  0.00  0.00    -0.081 HD
ENDROOT
BRANCH   1  12
ATOM      7  C   UNL     1       1.247  -2.348  -2.491  0.00  0.00    +0.008 C 
ATOM      8  C   UNL     1       0.643  -1.940  -1.146  0.00  0.00    -0.013 C 
ATOM      9  C   UNL     1      -0.826  -2.366  -1.096  0.00  0.00    +0.003 C 
ATOM     10  C   UNL     1      -1.430  -1.958   0.249  0.00  0.00    -0.001 C 
ATOM     11  C   UNL     1      -0.662  -2.643   1.381  0.00  0.00    -0.015 C 
ATOM     12  C   UNL     1       0.807  -2.217   1.332  0.00  0.00    -0.065 C 
ATOM     13  C   UNL     1       1.411  -2.625  -0.013  0.00  0.00    -0.025 C 
ATOM     14  C   UNL     1       2.879  -2.199  -0.063  0.00  0.00    +0.006 C 
ENDBRANCH   1  12
BRANCH   4  15
ATOM     15  C   UNL     1       2.588  -5.827   3.975  0.00  0.00    -0.081 C 
BRANCH  15  16
ATOM     16  N   UNL     1       2.474  -6.412   5.317  0.00  0.00    +0.381 N 
ATOM     17  H   UNL     1       2.447  -5.674   6.005  0.00  0.00    -0.086 HD
ATOM     18  H   UNL     1       1.628  -6.958   5.376  0.00  0.00    -0.086 HD
BRANCH  16  19
ATOM     19  C   UNL     1       3.634  -7.277   5.574  0.00  0.00    -0.072 C 
ATOM     20  C   UNL     1       3.369  -8.770   5.780  0.00  0.00    -0.017 C 
ATOM     21  C   UNL     1       3.762  -7.891   6.970  0.00  0.00    -0.017 C 
ENDBRANCH  16  19
ENDBRANCH  15  16
ENDBRANCH   4  15
TORSDOF 4
