REMARK  Name = ZINC50358899
REMARK  7 active torsions:
REMARK  status: ('A' for Active; 'I' for Inactive)
REMARK    1  A    between atoms: C_1  and  C_2
REMARK    2  A    between atoms: C_2  and  C_19
REMARK    3  A    between atoms: C_4  and  N_10
REMARK    4  A    between atoms: C_6  and  C_8
REMARK    5  A    between atoms: C_6  and  C_9
REMARK    6  A    between atoms: N_10  and  C_11
REMARK    7  A    between atoms: C_11  and  C_12
REMARK                            x       y       z     vdW  Elec       q    Type
REMARK                         _______ _______ _______ _____ _____    ______ ____
ROOT
ATOM      1  C   UNL     1      -0.019   1.542   0.011  0.00  0.00    -0.010 C 
ATOM      2  C   UNL     1       0.002  -0.004   0.002  0.00  0.00    -0.075 C 
ATOM      3  C   UNL     1      -1.446  -0.479  -0.047  0.00  0.00    -0.029 C 
ATOM      4  C   UNL     1      -1.522  -1.985   0.202  0.00  0.00    -0.074 C 
ATOM      5  C   UNL     1      -0.931  -2.270   1.582  0.00  0.00    -0.029 C 
ATOM      6  C   UNL     1       0.522  -1.810   1.643  0.00  0.00    -0.075 C 
ATOM      7  N   UNL     1       0.711  -0.443   1.191  0.00  0.00    +0.386 N 
ATOM      8  C   UNL     1       1.408  -2.784   0.859  0.00  0.00    -0.010 C 
ATOM      9  C   UNL     1       0.967  -1.882   3.122  0.00  0.00    -0.010 C 
ATOM     10  C   UNL     1       0.733  -0.436  -1.274  0.00  0.00    -0.010 C 
ATOM     11  H   UNL     1       1.713  -0.290   1.042  0.00  0.00    -0.084 HD
ATOM     12  H   UNL     1       0.464   0.186   1.962  0.00  0.00    -0.084 HD
ENDROOT
BRANCH   4  13
ATOM     13  N   UNL     1      -2.931  -2.411   0.180  0.00  0.00    +0.386 N 
ATOM     14  H   UNL     1      -3.423  -1.986   0.952  0.00  0.00    -0.085 HD
ATOM     15  H   UNL     1      -3.356  -2.123  -0.689  0.00  0.00    -0.085 HD
BRANCH  13  16
ATOM     16  C   UNL     1      -3.003  -3.873   0.299  0.00  0.00    -0.006 C 
BRANCH  16  17
ATOM     17  C   UNL     1      -4.446  -4.308   0.277  0.00  0.00    +0.091 A 
ATOM     18  C   UNL     1      -5.153  -4.631  -0.821  0.00  0.00    +0.059 A 
ATOM     19  C   UNL     1      -6.453  -4.979  -0.384  0.00  0.00    +0.070 A 
ATOM     20  C   UNL     1      -6.462  -4.846   0.957  0.00  0.00    +0.184 A 
ATOM     21  O   UNL     1      -5.242  -4.445   1.351  0.00  0.00    -0.454 OA
ATOM     22 BR   UNL     1      -7.938  -5.176   2.091  0.00  0.00    -0.007 Br
ATOM     23 BR   UNL     1      -7.900  -5.523  -1.472  0.00  0.00    -0.046 Br
ENDBRANCH  16  17
ENDBRANCH  13  16
ENDBRANCH   4  13
TORSDOF 3
