REMARK  Name = ZINC06614215
REMARK  4 active torsions:
REMARK  status: ('A' for Active; 'I' for Inactive)
REMARK    1  A    between atoms: C_1  and  C_2
REMARK    2  A    between atoms: N_10  and  N_11
REMARK    3  A    between atoms: C_12  and  C_14
REMARK    4  A    between atoms: C_17  and  N_20
REMARK                            x       y       z     vdW  Elec       q    Type
REMARK                         _______ _______ _______ _____ _____    ______ ____
ROOT
ATOM      1  C   UNL     1       3.233   0.465   0.275  0.00  0.00    +0.045 C 
ATOM      2  C   UNL     1       2.317  -0.729   0.186  0.00  0.00    -0.036 A 
ATOM      3  C   UNL     1       2.057  -1.311  -1.043  0.00  0.00    +0.006 A 
ATOM      4  C   UNL     1       1.220  -2.405  -1.140  0.00  0.00    +0.024 A 
ATOM      5  C   UNL     1       0.627  -2.934   0.002  0.00  0.00    +0.044 A 
ATOM      6  C   UNL     1       0.892  -2.342   1.243  0.00  0.00    +0.042 A 
ATOM      7  C   UNL     1       1.742  -1.244   1.332  0.00  0.00    +0.032 A 
ATOM      8 BR   UNL     1       2.101  -0.454   3.012  0.00  0.00    -0.049 Br
ATOM      9  C   UNL     1       0.128  -3.117   2.248  0.00  0.00    +0.154 C 
ATOM     10  N   UNL     1       0.079  -2.916   3.543  0.00  0.00    -0.174 NA
ATOM     11  C   UNL     1      -0.566  -4.165   1.474  0.00  0.00    +0.269 C 
ATOM     12  O   UNL     1      -1.305  -5.020   1.926  0.00  0.00    -0.268 OA
ATOM     13  N   UNL     1      -0.239  -4.007   0.180  0.00  0.00    -0.280 N 
ATOM     14  H   UNL     1      -0.565  -4.571  -0.539  0.00  0.00    +0.155 HD
ENDROOT
BRANCH  10  15
ATOM     15  N   UNL     1       0.172  -1.615   4.054  0.00  0.00    -0.202 N 
ATOM     16  C   UNL     1       0.252  -1.418   5.385  0.00  0.00    +0.263 C 
ATOM     17  O   UNL     1       0.338  -2.370   6.136  0.00  0.00    -0.268 OA
ATOM     18  H   UNL     1       0.178  -0.856   3.450  0.00  0.00    +0.178 HD
BRANCH  16  19
ATOM     19  C   UNL     1       0.236  -0.049   5.930  0.00  0.00    +0.038 A 
ATOM     20  C   UNL     1       0.211   1.050   5.064  0.00  0.00    +0.015 A 
ATOM     21  C   UNL     1       0.196   2.322   5.574  0.00  0.00    +0.023 A 
ATOM     22  C   UNL     1       0.204   2.522   6.952  0.00  0.00    +0.025 A 
ATOM     23  C   UNL     1       0.229   1.431   7.816  0.00  0.00    +0.023 A 
ATOM     24  C   UNL     1       0.239   0.155   7.313  0.00  0.00    +0.015 A 
BRANCH  22  25
ATOM     25  N   UNL     1       0.189   3.814   7.465  0.00  0.00    -0.358 N 
ATOM     26  H   UNL     1       0.172   4.574   6.864  0.00  0.00    +0.142 HD
ATOM     27  H   UNL     1       0.195   3.954   8.425  0.00  0.00    +0.142 HD
ENDBRANCH  22  25
ENDBRANCH  16  19
ENDBRANCH  10  15
TORSDOF 3
