REMARK  Name = ZINC12208693
REMARK  9 active torsions:
REMARK  status: ('A' for Active; 'I' for Inactive)
REMARK    1  A    between atoms: C_1  and  C_2
REMARK    2  A    between atoms: C_2  and  O_3
REMARK    3  A    between atoms: O_3  and  C_4
REMARK    4  A    between atoms: C_9  and  C_10
REMARK    5  A    between atoms: C_10  and  N_60
REMARK    6  A    between atoms: C_16  and  C_20
REMARK    7  A    between atoms: C_20  and  C_22
REMARK    8  A    between atoms: C_20  and  N_23
REMARK    9  A    between atoms: C_24  and  C_26
REMARK                            x       y       z     vdW  Elec       q    Type
REMARK                         _______ _______ _______ _____ _____    ______ ____
ROOT
ATOM      1  C   UNL     1      -0.640   3.031  -1.283  0.00  0.00    -0.071 C 
ATOM      2  C   UNL     1      -0.889   3.463  -2.732  0.00  0.00    +0.058 C 
ATOM      3  C   UNL     1       0.423   3.458  -3.473  0.00  0.00    +0.132 A 
ATOM      4  N   UNL     1       0.894   4.376  -4.264  0.00  0.00    -0.134 NA
ATOM      5  N   UNL     1       2.035   4.001  -4.729  0.00  0.00    -0.132 NA
ATOM      6  C   UNL     1       2.344   2.826  -4.245  0.00  0.00    +0.154 A 
ATOM      7  N   UNL     1       1.337   2.457  -3.425  0.00  0.00    -0.315 N 
ATOM      8  C   UNL     1       1.239   1.240  -2.618  0.00  0.00    +0.106 C 
ATOM      9  C   UNL     1      -0.238   0.903  -2.394  0.00  0.00    -0.056 C 
ATOM     10  N   UNL     1      -0.757   1.561  -1.172  0.00  0.00    +0.384 N 
ATOM     11  H   UNL     1      -1.748   1.316  -1.061  0.00  0.00    -0.081 HD
ENDROOT
BRANCH   6  12
ATOM     12  C   UNL     1       3.588   2.032  -4.547  0.00  0.00    +0.138 C 
ATOM     13  C   UNL     1       4.777   2.646  -3.805  0.00  0.00    +0.036 C 
BRANCH  12  14
ATOM     14  N   UNL     1       3.846   2.058  -5.989  0.00  0.00    -0.302 N 
ATOM     15  C   UNL     1       4.552   1.065  -6.566  0.00  0.00    +0.247 C 
ATOM     16  O   UNL     1       4.975   0.148  -5.889  0.00  0.00    -0.270 OA
ATOM     17  H   UNL     1       3.508   2.790  -6.529  0.00  0.00    +0.150 HD
BRANCH  15  18
ATOM     18  C   UNL     1       4.812   1.091  -8.019  0.00  0.00    +0.075 A 
ATOM     19  C   UNL     1       4.327   2.143  -8.800  0.00  0.00    +0.054 A 
ATOM     20  C   UNL     1       4.574   2.162 -10.158  0.00  0.00    +0.124 A 
ATOM     21  C   UNL     1       5.301   1.139 -10.748  0.00  0.00    +0.041 A 
ATOM     22  C   UNL     1       5.784   0.095  -9.982  0.00  0.00    +0.042 A 
ATOM     23  C   UNL     1       5.549   0.066  -8.620  0.00  0.00    +0.136 A 
ATOM     24  F   UNL     1       6.027  -0.952  -7.871  0.00  0.00    -0.205 F 
ATOM     25  F   UNL     1       4.106   3.179 -10.914  0.00  0.00    -0.205 F 
ENDBRANCH  15  18
ENDBRANCH  12  14
ENDBRANCH   6  12
BRANCH  10  26
ATOM     26  C   UNL     1      -0.013   1.086   0.008  0.00  0.00    -0.039 C 
BRANCH  26  32
ATOM     27  C   UNL     1      -1.857   0.921   1.698  0.00  0.00    +0.122 A 
ATOM     28  C   UNL     1      -2.502   1.369   2.843  0.00  0.00    +0.046 A 
ATOM     29  C   UNL     1      -2.013   2.466   3.525  0.00  0.00    +0.004 A 
ATOM     30  C   UNL     1      -0.880   3.115   3.071  0.00  0.00    +0.000 A 
ATOM     31  C   UNL     1      -0.234   2.669   1.934  0.00  0.00    +0.005 A 
ATOM     32  C   UNL     1      -0.718   1.572   1.248  0.00  0.00    -0.022 A 
BRANCH  27  33
ATOM     33  O   UNL     1      -2.339  -0.155   1.022  0.00  0.00    -0.492 OA
BRANCH  33  35
ATOM     34  C   UNL     1      -3.904  -1.959   0.657  0.00  0.00    +0.048 C 
ATOM     35  C   UNL     1      -3.516  -0.775   1.544  0.00  0.00    +0.225 C 
ENDBRANCH  33  35
ENDBRANCH  27  33
ENDBRANCH  26  32
ENDBRANCH  10  26
TORSDOF 7
