REMARK  Name = ZINC66862720
REMARK  8 active torsions:
REMARK  status: ('A' for Active; 'I' for Inactive)
REMARK    1  A    between atoms: C_1  and  C_2
REMARK    2  A    between atoms: C_2  and  C_3
REMARK    3  A    between atoms: C_2  and  C_4
REMARK    4  A    between atoms: C_2  and  N_6
REMARK    5  A    between atoms: C_4  and  O_5
REMARK    6  A    between atoms: N_6  and  C_7
REMARK    7  A    between atoms: C_7  and  C_8
REMARK    8  A    between atoms: C_14  and  C_16
REMARK                            x       y       z     vdW  Elec       q    Type
REMARK                         _______ _______ _______ _____ _____    ______ ____
ROOT
ATOM      1  C   UNL     1       2.773  -0.455  -2.457  0.00  0.00    +0.199 C 
ATOM      2  O   UNL     1       2.186  -1.156  -3.253  0.00  0.00    -0.278 OA
ATOM      3  N   UNL     1       4.057  -0.111  -2.681  0.00  0.00    -0.296 N 
ATOM      4  C   UNL     1       4.888   0.726  -1.797  0.00  0.00    +0.108 C 
ATOM      5  C   UNL     1       5.975   1.324  -2.724  0.00  0.00    +0.021 C 
ATOM      6  C   UNL     1       6.252   0.138  -3.685  0.00  0.00    +0.029 C 
ATOM      7  C   UNL     1       4.862  -0.513  -3.843  0.00  0.00    +0.106 C 
ENDROOT
BRANCH   7   8
ATOM      8  C   UNL     1       4.997  -2.014  -3.879  0.00  0.00    -0.023 A 
ATOM      9  C   UNL     1       5.188  -2.718  -2.704  0.00  0.00    +0.009 A 
ATOM     10  C   UNL     1       5.313  -4.093  -2.733  0.00  0.00    +0.050 A 
ATOM     11  C   UNL     1       5.247  -4.772  -3.941  0.00  0.00    +0.162 A 
ATOM     12  C   UNL     1       5.053  -4.065  -5.122  0.00  0.00    +0.162 A 
ATOM     13  C   UNL     1       4.923  -2.684  -5.085  0.00  0.00    +0.055 A 
ATOM     14  O   UNL     1       4.977  -4.712  -6.317  0.00  0.00    -0.485 OA
ATOM     15  C   UNL     1       5.476  -6.053  -6.355  0.00  0.00    +0.270 C 
ATOM     16  C   UNL     1       4.930  -6.805  -5.134  0.00  0.00    +0.270 C 
ATOM     17  O   UNL     1       5.377  -6.127  -3.954  0.00  0.00    -0.485 OA
ENDBRANCH   7   8
BRANCH   1  18
ATOM     18  C   UNL     1       2.068   0.031  -1.217  0.00  0.00    +0.016 C 
BRANCH  18  19
ATOM     19  N   UNL     1       0.690  -0.478  -1.207  0.00  0.00    +0.390 N 
ATOM     20  H   UNL     1       0.703  -1.487  -1.212  0.00  0.00    -0.084 HD
ATOM     21  H   UNL     1       0.202  -0.144  -2.024  0.00  0.00    -0.084 HD
BRANCH  19  23
ATOM     22  C   UNL     1      -0.019   1.526   0.010  0.00  0.00    -0.008 C 
ATOM     23  C   UNL     1       0.002  -0.004   0.002  0.00  0.00    -0.050 C 
ATOM     24  C   UNL     1       0.742  -0.511   1.242  0.00  0.00    -0.008 C 
BRANCH  23  25
ATOM     25  C   UNL     1      -1.433  -0.534   0.013  0.00  0.00    +0.143 C 
BRANCH  25  26
ATOM     26  O   UNL     1      -2.102  -0.073   1.189  0.00  0.00    -0.396 OA
ATOM     27  H   UNL     1      -3.019  -0.371   1.262  0.00  0.00    +0.209 HD
ENDBRANCH  25  26
ENDBRANCH  23  25
ENDBRANCH  19  23
ENDBRANCH  18  19
ENDBRANCH   1  18
TORSDOF 6
