REMARK  Name = ZINC17378537
REMARK  3 active torsions:
REMARK  status: ('A' for Active; 'I' for Inactive)
REMARK    1  A    between atoms: C_7  and  N_11
REMARK    2  A    between atoms: N_11  and  C_12
REMARK    3  A    between atoms: C_18  and  S_20
REMARK                            x       y       z     vdW  Elec       q    Type
REMARK                         _______ _______ _______ _____ _____    ______ ____
ROOT
ATOM      1  C   UNL     1      -0.739   6.146   4.297  0.00  0.00    +0.198 A 
ATOM      2  N   UNL     1      -0.878   7.276   3.546  0.00  0.00    -0.329 N 
ATOM      3  H   UNL     1      -1.300   8.133   3.840  0.00  0.00    +0.168 HD
ATOM      4  C   UNL     1      -0.334   7.019   2.313  0.00  0.00    +0.163 A 
ATOM      5  C   UNL     1       0.133   5.695   2.364  0.00  0.00    +0.147 A 
ATOM      6  N   UNL     1      -0.145   5.220   3.602  0.00  0.00    -0.231 NA
ATOM      7  C   UNL     1       0.747   5.163   1.217  0.00  0.00    +0.150 A 
ATOM      8  N   UNL     1       0.861   5.939   0.143  0.00  0.00    -0.219 NA
ATOM      9  C   UNL     1       0.403   7.177   0.142  0.00  0.00    +0.225 A 
ATOM     10  N   UNL     1      -0.179   7.716   1.193  0.00  0.00    -0.216 NA
ENDROOT
BRANCH   7  11
ATOM     11  N   UNL     1       1.226   3.865   1.207  0.00  0.00    -0.323 N 
ATOM     12  H   UNL     1       1.924   3.762   1.916  0.00  0.00    +0.148 HD
BRANCH  11  13
ATOM     13  C   UNL     1       1.863   3.328   0.002  0.00  0.00    +0.084 C 
ATOM     14  C   UNL     1       3.342   3.719  -0.010  0.00  0.00    +0.023 C 
ATOM     15  C   UNL     1       4.007   3.158  -1.269  0.00  0.00    +0.002 C 
ATOM     16  C   UNL     1       3.882   1.633  -1.276  0.00  0.00    +0.001 C 
ATOM     17  C   UNL     1       2.403   1.243  -1.264  0.00  0.00    +0.016 C 
ATOM     18  C   UNL     1       1.738   1.804  -0.005  0.00  0.00    +0.063 C 
BRANCH  18  19
ATOM     19  S   UNL     1      -0.016   1.341   0.009  0.00  0.00    -0.173 S 
ATOM     20  H   UNL     1       0.002  -0.004   0.002  0.00  0.00    +0.102 HD
ENDBRANCH  18  19
ENDBRANCH  11  13
ENDBRANCH   7  11
TORSDOF 3
