REMARK  Name = ZINC52595454
REMARK  8 active torsions:
REMARK  status: ('A' for Active; 'I' for Inactive)
REMARK    1  A    between atoms: C_3  and  C_24
REMARK    2  A    between atoms: C_5  and  N_12
REMARK    3  A    between atoms: C_6  and  O_11
REMARK    4  A    between atoms: N_13  and  C_14
REMARK    5  A    between atoms: C_17  and  S_20
REMARK    6  A    between atoms: S_20  and  N_23
REMARK    7  A    between atoms: C_24  and  C_25
REMARK    8  A    between atoms: C_25  and  C_26
REMARK                            x       y       z     vdW  Elec       q    Type
REMARK                         _______ _______ _______ _____ _____    ______ ____
ROOT
ATOM      1  C   UNL     1       0.455   1.154  -0.942  0.00  0.00    +0.002 A 
ATOM      2  C   UNL     1       1.716   1.748  -0.804  0.00  0.00    +0.004 A 
ATOM      3  C   UNL     1       2.828   1.010  -0.562  0.00  0.00    -0.036 A 
ATOM      4  C   UNL     1       2.725  -0.395  -0.444  0.00  0.00    +0.029 A 
ATOM      5  C   UNL     1       3.664  -1.389  -0.204  0.00  0.00    +0.121 C 
ATOM      6  C   UNL     1       2.890  -2.688  -0.200  0.00  0.00    +0.262 C 
ATOM      7  N   UNL     1       1.491  -2.328  -0.450  0.00  0.00    -0.354 N 
ATOM      8  C   UNL     1       1.398  -1.026  -0.588  0.00  0.00    +0.047 A 
ATOM      9  C   UNL     1       0.279  -0.183  -0.842  0.00  0.00    +0.026 A 
ATOM     10  H   UNL     1       0.751  -2.953  -0.504  0.00  0.00    +0.162 HD
ENDROOT
BRANCH   6  11
ATOM     11  O   UNL     1       3.369  -3.550  -1.234  0.00  0.00    -0.367 OA
ATOM     12  H   UNL     1       2.911  -4.401  -1.281  0.00  0.00    +0.212 HD
ENDBRANCH   6  11
BRANCH   5  13
ATOM     13  N   UNL     1       4.981  -1.230  -0.018  0.00  0.00    -0.148 NA
ATOM     14  N   UNL     1       5.743  -2.262   0.112  0.00  0.00    -0.149 NA
BRANCH  14  15
ATOM     15  C   UNL     1       7.056  -2.103   0.426  0.00  0.00    +0.086 A 
ATOM     16  C   UNL     1       7.558  -0.830   0.730  0.00  0.00    +0.031 A 
ATOM     17  C   UNL     1       8.890  -0.678   1.047  0.00  0.00    +0.030 A 
ATOM     18  C   UNL     1       9.732  -1.778   1.066  0.00  0.00    +0.105 A 
ATOM     19  C   UNL     1       9.244  -3.039   0.767  0.00  0.00    +0.030 A 
ATOM     20  C   UNL     1       7.914  -3.211   0.453  0.00  0.00    +0.031 A 
BRANCH  18  21
ATOM     21  S   UNL     1      11.434  -1.571   1.472  0.00  0.00    +0.056 S 
ATOM     22  O   UNL     1      12.127  -2.666   0.889  0.00  0.00    -0.153 OA
ATOM     23  O   UNL     1      11.761  -0.219   1.179  0.00  0.00    -0.153 OA
BRANCH  21  24
ATOM     24  N   UNL     1      11.571  -1.745   3.113  0.00  0.00    -0.204 NA
ATOM     25  H   UNL     1      10.783  -1.927   3.649  0.00  0.00    +0.144 HD
ATOM     26  H   UNL     1      12.439  -1.665   3.539  0.00  0.00    +0.144 HD
ENDBRANCH  21  24
ENDBRANCH  18  21
ENDBRANCH  14  15
ENDBRANCH   5  13
BRANCH   3  27
ATOM     27  C   UNL     1       4.167   1.686  -0.421  0.00  0.00    +0.040 C 
BRANCH  27  28
ATOM     28  C   UNL     1       4.875   1.704  -1.778  0.00  0.00    +0.040 C 
BRANCH  28  29
ATOM     29  C   UNL     1       6.154   2.492  -1.666  0.00  0.00    -0.044 A 
ATOM     30  C   UNL     1       6.181   3.848  -1.954  0.00  0.00    +0.023 A 
ATOM     31  C   UNL     1       7.373   4.538  -1.841  0.00  0.00    +0.111 A 
ATOM     32  N   UNL     1       8.476   3.921  -1.464  0.00  0.00    -0.263 NA
ATOM     33  C   UNL     1       8.488   2.633  -1.182  0.00  0.00    +0.111 A 
ATOM     34  C   UNL     1       7.332   1.880  -1.267  0.00  0.00    +0.023 A 
ENDBRANCH  28  29
ENDBRANCH  27  28
ENDBRANCH   3  27
TORSDOF 8
