REMARK  Name = ZINC08846627
REMARK  12 active torsions:
REMARK  status: ('A' for Active; 'I' for Inactive)
REMARK    1  A    between atoms: C_1  and  C_2
REMARK    2  A    between atoms: C_3  and  C_35
REMARK    3  A    between atoms: C_6  and  N_7
REMARK    4  A    between atoms: N_7  and  S_8
REMARK    5  A    between atoms: S_8  and  C_11
REMARK    6  A    between atoms: C_14  and  N_17
REMARK    7  A    between atoms: C_18  and  C_20
REMARK    8  A    between atoms: C_20  and  S_21
REMARK    9  A    between atoms: S_21  and  C_22
REMARK   10  A    between atoms: C_25  and  C_30
REMARK   11  A    between atoms: N_26  and  C_27
REMARK   12  A    between atoms: C_27  and  C_28
REMARK                            x       y       z     vdW  Elec       q    Type
REMARK                         _______ _______ _______ _____ _____    ______ ____
ROOT
ATOM      1  N   UNL     1      -0.163   8.088   5.172  0.00  0.00    -0.285 N 
ATOM      2  C   UNL     1       1.151   8.034   5.464  0.00  0.00    +0.227 C 
ATOM      3  O   UNL     1       1.702   6.960   5.583  0.00  0.00    -0.275 OA
ATOM      4  H   UNL     1      -0.588   8.943   5.001  0.00  0.00    +0.155 HD
ENDROOT
BRANCH   1   8
ATOM      5  C   UNL     1      -2.406   4.581   5.006  0.00  0.00    +0.109 A 
ATOM      6  C   UNL     1      -2.709   5.634   4.163  0.00  0.00    +0.030 A 
ATOM      7  C   UNL     1      -1.971   6.800   4.219  0.00  0.00    +0.025 A 
ATOM      8  C   UNL     1      -0.916   6.910   5.116  0.00  0.00    +0.034 A 
ATOM      9  C   UNL     1      -0.612   5.848   5.958  0.00  0.00    +0.025 A 
ATOM     10  C   UNL     1      -1.357   4.687   5.900  0.00  0.00    +0.030 A 
BRANCH   5  11
ATOM     11  S   UNL     1      -3.355   3.098   4.936  0.00  0.00    +0.075 S 
ATOM     12  O   UNL     1      -2.525   2.061   5.441  0.00  0.00    -0.150 OA
ATOM     13  O   UNL     1      -3.934   3.047   3.639  0.00  0.00    -0.150 OA
BRANCH  11  14
ATOM     14  N   UNL     1      -4.607   3.266   6.007  0.00  0.00    -0.183 N 
ATOM     15  H   UNL     1      -4.660   2.690   6.785  0.00  0.00    +0.177 HD
BRANCH  14  21
ATOM     16  C   UNL     1      -7.063   3.809   7.863  0.00  0.00    +0.051 C 
ATOM     17  C   UNL     1      -6.660   4.491   6.581  0.00  0.00    +0.035 A 
ATOM     18  C   UNL     1      -7.316   5.546   5.916  0.00  0.00    +0.085 A 
ATOM     19  N   UNL     1      -6.607   5.814   4.855  0.00  0.00    -0.081 NA
ATOM     20  O   UNL     1      -5.639   5.094   4.768  0.00  0.00    -0.338 OA
ATOM     21  C   UNL     1      -5.576   4.228   5.792  0.00  0.00    +0.240 A 
ATOM     22  C   UNL     1      -8.584   6.235   6.350  0.00  0.00    +0.069 C 
ENDBRANCH  14  21
ENDBRANCH  11  14
ENDBRANCH   5  11
ENDBRANCH   1   8
BRANCH   2  23
ATOM     23  C   UNL     1       1.937   9.308   5.641  0.00  0.00    +0.173 C 
BRANCH  23  24
ATOM     24  S   UNL     1       3.660   8.906   6.023  0.00  0.00    -0.077 S 
BRANCH  24  25
ATOM     25  C   UNL     1       4.326  10.530   6.175  0.00  0.00    +0.193 A 
ATOM     26  N   UNL     1       3.669  11.659   6.026  0.00  0.00    -0.122 NA
ATOM     27  N   UNL     1       4.458  12.657   6.210  0.00  0.00    -0.125 NA
ATOM     28  C   UNL     1       5.671  12.227   6.478  0.00  0.00    +0.201 A 
ATOM     29  N   UNL     1       5.623  10.850   6.464  0.00  0.00    -0.296 N 
BRANCH  28  30
ATOM     30  C   UNL     1       6.856  13.059   6.743  0.00  0.00    +0.172 A 
ATOM     31  C   UNL     1       6.975  14.389   6.475  0.00  0.00    +0.053 A 
ATOM     32  C   UNL     1       8.265  14.772   6.890  0.00  0.00    +0.042 A 
ATOM     33  C   UNL     1       8.868  13.669   7.377  0.00  0.00    +0.196 A 
ATOM     34  O   UNL     1       8.014  12.636   7.287  0.00  0.00    -0.460 OA
ENDBRANCH  28  30
BRANCH  29  35
ATOM     35  C   UNL     1       6.731   9.923   6.707  0.00  0.00    +0.152 C 
BRANCH  35  36
ATOM     36  C   UNL     1       7.419   9.609   5.404  0.00  0.00    -0.013 C 
ATOM     37  C   UNL     1       8.709   9.803   5.281  0.00  0.00    +0.005 C 
ENDBRANCH  35  36
ENDBRANCH  29  35
ENDBRANCH  24  25
ENDBRANCH  23  24
ENDBRANCH   2  23
TORSDOF 10
