REMARK  Name = ZINC02865658
REMARK  6 active torsions:
REMARK  status: ('A' for Active; 'I' for Inactive)
REMARK    1  A    between atoms: C_1  and  O_2
REMARK    2  A    between atoms: O_2  and  C_3
REMARK    3  A    between atoms: C_6  and  N_21
REMARK    4  A    between atoms: C_8  and  N_9
REMARK    5  A    between atoms: N_9  and  S_10
REMARK    6  A    between atoms: S_10  and  C_13
REMARK                            x       y       z     vdW  Elec       q    Type
REMARK                         _______ _______ _______ _____ _____    ______ ____
ROOT
ATOM      1  N   UNL     1       4.296   2.575  -1.607  0.00  0.00    -0.213 N 
ATOM      2  H   UNL     1       5.102   2.176  -1.971  0.00  0.00    +0.174 HD
ENDROOT
BRANCH   1   8
ATOM      3  C   UNL     1       3.240   2.884  -3.762  0.00  0.00    +0.142 A 
ATOM      4  C   UNL     1       2.381   3.590  -4.586  0.00  0.00    +0.049 A 
ATOM      5  C   UNL     1       1.718   4.704  -4.105  0.00  0.00    +0.026 A 
ATOM      6  C   UNL     1       1.908   5.114  -2.792  0.00  0.00    +0.027 A 
ATOM      7  C   UNL     1       2.765   4.407  -1.961  0.00  0.00    +0.051 A 
ATOM      8  C   UNL     1       3.430   3.290  -2.443  0.00  0.00    +0.091 A 
BRANCH   6   9
ATOM      9  N   UNL     1       1.235   6.242  -2.308  0.00  0.00    -0.358 N 
ATOM     10  H   UNL     1       1.369   6.529  -1.391  0.00  0.00    +0.142 HD
ATOM     11  H   UNL     1       0.636   6.736  -2.889  0.00  0.00    +0.142 HD
ENDBRANCH   6   9
BRANCH   3  13
ATOM     12  C   UNL     1       3.655   1.433  -5.601  0.00  0.00    +0.277 C 
ATOM     13  O   UNL     1       3.897   1.791  -4.239  0.00  0.00    -0.493 OA
ENDBRANCH   3  13
ENDBRANCH   1   8
BRANCH   1  14
ATOM     14  S   UNL     1       3.944   2.410   0.003  0.00  0.00    +0.072 S 
ATOM     15  O   UNL     1       3.729   3.721   0.508  0.00  0.00    -0.150 OA
ATOM     16  O   UNL     1       4.924   1.536   0.545  0.00  0.00    -0.150 OA
BRANCH  14  17
ATOM     17  C   UNL     1       2.401   1.568   0.115  0.00  0.00    +0.110 A 
ATOM     18  C   UNL     1       1.221   2.288   0.141  0.00  0.00    +0.030 A 
ATOM     19  C   UNL     1       0.009   1.629   0.229  0.00  0.00    +0.023 A 
ATOM     20  C   UNL     1      -0.023   0.247   0.291  0.00  0.00    +0.059 A 
ATOM     21  C   UNL     1       1.158  -0.474   0.265  0.00  0.00    +0.061 A 
ATOM     22  C   UNL     1       2.370   0.187   0.177  0.00  0.00    +0.050 A 
ATOM     23 CL   UNL     1       1.119  -2.208   0.343  0.00  0.00    -0.082 Cl
ATOM     24 CL   UNL     1      -1.544  -0.582   0.402  0.00  0.00    -0.082 Cl
ENDBRANCH  14  17
ENDBRANCH   1  14
TORSDOF 5
