REMARK  Name = ZINC49026018
REMARK  11 active torsions:
REMARK  status: ('A' for Active; 'I' for Inactive)
REMARK    1  A    between atoms: C_1  and  C_2
REMARK    2  A    between atoms: C_2  and  C_3
REMARK    3  A    between atoms: C_3  and  N_4
REMARK    4  A    between atoms: C_5  and  C_7
REMARK    5  A    between atoms: C_7  and  N_8
REMARK    6  A    between atoms: N_8  and  C_9
REMARK    7  A    between atoms: N_8  and  C_10
REMARK    8  A    between atoms: C_10  and  C_11
REMARK    9  A    between atoms: N_13  and  C_14
REMARK   10  A    between atoms: C_17  and  N_21
REMARK   11  A    between atoms: C_19  and  C_20
REMARK                            x       y       z     vdW  Elec       q    Type
REMARK                         _______ _______ _______ _____ _____    ______ ____
ROOT
ATOM      1  C   UNL     1      -5.320  -6.680   0.264  0.00  0.00    +0.201 C 
ATOM      2  O   UNL     1      -6.251  -5.902   0.259  0.00  0.00    -0.278 OA
ATOM      3  N   UNL     1      -5.549  -8.003   0.380  0.00  0.00    -0.287 N 
ATOM      4  H   UNL     1      -4.814  -8.631   0.303  0.00  0.00    +0.155 HD
ENDROOT
BRANCH   3   5
ATOM      5  C   UNL     1      -6.850  -8.472   0.609  0.00  0.00    +0.036 A 
ATOM      6  C   UNL     1      -7.787  -7.648   1.217  0.00  0.00    +0.025 A 
ATOM      7  C   UNL     1      -9.069  -8.109   1.444  0.00  0.00    +0.024 A 
ATOM      8  C   UNL     1      -9.420  -9.398   1.063  0.00  0.00    +0.025 A 
ATOM      9  C   UNL     1      -8.482 -10.222   0.455  0.00  0.00    +0.028 A 
ATOM     10  C   UNL     1      -7.202  -9.758   0.224  0.00  0.00    -0.028 A 
ATOM     11  C   UNL     1      -6.186 -10.651  -0.441  0.00  0.00    +0.046 C 
BRANCH   8  12
ATOM     12  N   UNL     1     -10.718  -9.866   1.293  0.00  0.00    -0.358 N 
ATOM     13  H   UNL     1     -11.373  -9.291   1.718  0.00  0.00    +0.142 HD
ATOM     14  H   UNL     1     -10.963 -10.766   1.027  0.00  0.00    +0.142 HD
ENDBRANCH   8  12
ENDBRANCH   3   5
BRANCH   1  15
ATOM     15  C   UNL     1      -3.909  -6.167   0.142  0.00  0.00    +0.019 C 
BRANCH  15  16
ATOM     16  N   UNL     1      -3.927  -4.703   0.030  0.00  0.00    +0.389 N 
ATOM     17  C   UNL     1      -4.591  -4.315  -1.221  0.00  0.00    -0.095 C 
ATOM     18  H   UNL     1      -4.431  -4.312   0.813  0.00  0.00    -0.081 HD
BRANCH  16  19
ATOM     19  C   UNL     1      -2.549  -4.194   0.032  0.00  0.00    +0.019 C 
BRANCH  19  21
ATOM     20  N   UNL     1      -1.413  -1.997   0.044  0.00  0.00    -0.317 N 
ATOM     21  C   UNL     1      -2.570  -2.687   0.041  0.00  0.00    +0.196 C 
ATOM     22  O   UNL     1      -3.629  -2.095   0.046  0.00  0.00    -0.278 OA
ATOM     23  H   UNL     1      -0.566  -2.470   0.039  0.00  0.00    +0.149 HD
BRANCH  20  24
ATOM     24  C   UNL     1      -1.433  -0.532   0.053  0.00  0.00    +0.104 C 
BRANCH  24  26
ATOM     25  C   UNL     1      -0.019   1.528   0.064  0.00  0.00    +0.005 C 
ATOM     26  C   UNL     1       0.002  -0.002   0.054  0.00  0.00    +0.015 C 
ENDBRANCH  24  26
ENDBRANCH  20  24
ENDBRANCH  19  21
ENDBRANCH  16  19
ENDBRANCH  15  16
ENDBRANCH   1  15
TORSDOF 8
