REMARK  Name = ZINC67059785
REMARK  8 active torsions:
REMARK  status: ('A' for Active; 'I' for Inactive)
REMARK    1  A    between atoms: C_1  and  C_2
REMARK    2  A    between atoms: C_6  and  C_7
REMARK    3  A    between atoms: N_9  and  N_10
REMARK    4  A    between atoms: N_13  and  C_14
REMARK    5  A    between atoms: C_14  and  C_15
REMARK    6  A    between atoms: C_15  and  C_17
REMARK    7  A    between atoms: C_15  and  N_18
REMARK    8  A    between atoms: C_23  and  C_25
REMARK                            x       y       z     vdW  Elec       q    Type
REMARK                         _______ _______ _______ _____ _____    ______ ____
ROOT
ATOM      1  N   UNL     1       0.974  -0.653   5.183  0.00  0.00    -0.218 N 
ATOM      2  C   UNL     1       0.646  -1.572   6.112  0.00  0.00    +0.316 C 
ATOM      3  O   UNL     1       0.496  -1.237   7.272  0.00  0.00    -0.251 OA
ATOM      4  N   UNL     1       0.486  -2.862   5.757  0.00  0.00    -0.300 N 
ATOM      5  H   UNL     1       1.163   0.260   5.449  0.00  0.00    +0.174 HD
ATOM      6  H   UNL     1       0.678  -3.143   4.849  0.00  0.00    +0.150 HD
ENDROOT
BRANCH   1   9
ATOM      7  C   UNL     1       1.267  -0.078   2.891  0.00  0.00    +0.267 C 
ATOM      8  O   UNL     1       1.414   1.086   3.216  0.00  0.00    -0.268 OA
ATOM      9  N   UNL     1       1.040  -1.017   3.831  0.00  0.00    -0.229 N 
ATOM     10  H   UNL     1       0.923  -1.944   3.572  0.00  0.00    +0.173 HD
BRANCH   7  16
ATOM     11  C   UNL     1       1.773   1.829   0.481  0.00  0.00    +0.045 C 
ATOM     12  C   UNL     1       1.558   0.342   0.367  0.00  0.00    -0.031 A 
ATOM     13  C   UNL     1       1.575  -0.308  -0.844  0.00  0.00    +0.011 A 
ATOM     14  C   UNL     1       1.375  -1.649  -0.875  0.00  0.00    +0.046 A 
ATOM     15  S   UNL     1       1.157  -2.070   0.737  0.00  0.00    -0.092 S 
ATOM     16  C   UNL     1       1.337  -0.458   1.477  0.00  0.00    +0.078 A 
ENDBRANCH   7  16
ENDBRANCH   1   9
BRANCH   4  17
ATOM     17  C   UNL     1       0.020  -3.841   6.743  0.00  0.00    +0.090 C 
BRANCH  17  18
ATOM     18  C   UNL     1      -0.184  -5.195   6.061  0.00  0.00    -0.054 C 
ATOM     19  C   UNL     1      -0.540  -6.248   7.112  0.00  0.00    -0.012 C 
BRANCH  18  20
ATOM     20  N   UNL     1       1.054  -5.588   5.374  0.00  0.00    +0.384 N 
ATOM     21  C   UNL     1       2.137  -5.719   6.356  0.00  0.00    -0.078 C 
ATOM     22  C   UNL     1       3.446  -6.049   5.637  0.00  0.00    -0.019 C 
ATOM     23  C   UNL     1       3.285  -7.368   4.874  0.00  0.00    -0.003 C 
ATOM     24  C   UNL     1       2.105  -7.244   3.905  0.00  0.00    -0.016 C 
ATOM     25  C   UNL     1       0.845  -6.870   4.689  0.00  0.00    -0.071 C 
ATOM     26  C   UNL     1      -0.336  -6.745   3.725  0.00  0.00    -0.013 C 
ATOM     27  H   UNL     1       1.300  -4.882   4.697  0.00  0.00    -0.081 HD
ENDBRANCH  18  20
ENDBRANCH  17  18
ENDBRANCH   4  17
TORSDOF 5
