REMARK  Name = ZINC08790774
REMARK  8 active torsions:
REMARK  status: ('A' for Active; 'I' for Inactive)
REMARK    1  A    between atoms: C_1  and  C_2
REMARK    2  A    between atoms: C_2  and  C_3
REMARK    3  A    between atoms: C_17  and  C_19
REMARK    4  A    between atoms: C_19  and  C_21
REMARK    5  A    between atoms: C_19  and  O_22
REMARK    6  A    between atoms: N_25  and  C_28
REMARK    7  A    between atoms: C_28  and  C_29
REMARK    8  A    between atoms: C_29  and  C_30
REMARK                            x       y       z     vdW  Elec       q    Type
REMARK                         _______ _______ _______ _____ _____    ______ ____
ROOT
ATOM      1  C   UNL     1       3.844  -3.879  -4.068  0.00  0.00    -0.026 A 
ATOM      2  C   UNL     1       4.853  -2.942  -3.984  0.00  0.00    +0.005 A 
ATOM      3  C   UNL     1       4.594  -1.681  -3.479  0.00  0.00    +0.001 A 
ATOM      4  C   UNL     1       3.317  -1.357  -3.056  0.00  0.00    +0.004 A 
ATOM      5  C   UNL     1       2.307  -2.289  -3.137  0.00  0.00    -0.027 A 
ATOM      6  C   UNL     1       2.556  -3.561  -3.645  0.00  0.00    +0.039 A 
ATOM      7  N   UNL     1       1.386  -4.325  -3.629  0.00  0.00    -0.286 N 
ATOM      8  C   UNL     1       0.339  -3.639  -3.132  0.00  0.00    +0.211 C 
ATOM      9  O   UNL     1      -0.796  -4.045  -3.000  0.00  0.00    -0.277 OA
ATOM     10  C   UNL     1       0.850  -2.269  -2.774  0.00  0.00    +0.050 C 
ATOM     11  C   UNL     1       0.093  -1.173  -3.533  0.00  0.00    +0.088 C 
ATOM     12  C   UNL     1      -0.012   0.003  -2.521  0.00  0.00    +0.075 C 
ATOM     13  C   UNL     1       0.718  -0.497  -1.257  0.00  0.00    -0.028 C 
ATOM     14  C   UNL     1       0.809   1.094  -3.170  0.00  0.00    +0.224 C 
ATOM     15  O   UNL     1       0.991   2.201  -2.711  0.00  0.00    -0.275 OA
ATOM     16  N   UNL     1       1.305   0.648  -4.330  0.00  0.00    -0.241 N 
ATOM     17  C   UNL     1       0.967  -0.612  -4.631  0.00  0.00    +0.225 C 
ATOM     18  O   UNL     1       1.309  -1.209  -5.628  0.00  0.00    -0.275 OA
ATOM     19  H   UNL     1       1.334  -5.242  -3.939  0.00  0.00    +0.155 HD
ATOM     20  N   UNL     1       0.659  -1.957  -1.369  0.00  0.00    +0.396 N 
ATOM     21  H   UNL     1       1.402  -2.386  -0.805  0.00  0.00    -0.083 HD
ATOM     22  H   UNL     1      -0.255  -2.300  -1.049  0.00  0.00    -0.083 HD
ENDROOT
BRANCH   1  24
ATOM     23  C   UNL     1       3.795  -5.284  -6.111  0.00  0.00    +0.009 C 
ATOM     24  C   UNL     1       4.137  -5.250  -4.620  0.00  0.00    +0.033 C 
ENDBRANCH   1  24
BRANCH  13  25
ATOM     25  C   UNL     1       0.002  -0.004   0.002  0.00  0.00    +0.098 C 
ATOM     26  C   UNL     1       0.742  -0.511   1.242  0.00  0.00    +0.036 C 
BRANCH  25  27
ATOM     27  O   UNL     1      -0.017   1.425   0.010  0.00  0.00    -0.394 OA
ATOM     28  H   UNL     1       0.861   1.830   0.004  0.00  0.00    +0.210 HD
ENDBRANCH  25  27
ENDBRANCH  13  25
BRANCH  16  29
ATOM     29  C   UNL     1       2.148   1.471  -5.200  0.00  0.00    +0.121 C 
BRANCH  29  30
ATOM     30  C   UNL     1       3.616   1.280  -4.817  0.00  0.00    +0.054 C 
BRANCH  30  31
ATOM     31  C   UNL     1       4.484   2.127  -5.712  0.00  0.00    -0.046 A 
ATOM     32  C   UNL     1       4.971   1.606  -6.897  0.00  0.00    +0.004 A 
ATOM     33  C   UNL     1       5.762   2.385  -7.720  0.00  0.00    +0.000 A 
ATOM     34  C   UNL     1       6.075   3.680  -7.354  0.00  0.00    +0.000 A 
ATOM     35  C   UNL     1       5.593   4.199  -6.168  0.00  0.00    +0.000 A 
ATOM     36  C   UNL     1       4.797   3.422  -5.346  0.00  0.00    +0.004 A 
ENDBRANCH  30  31
ENDBRANCH  29  30
ENDBRANCH  16  29
TORSDOF 6
