REMARK  Name = ZINC23742728
REMARK  6 active torsions:
REMARK  status: ('A' for Active; 'I' for Inactive)
REMARK    1  A    between atoms: C_1  and  C_2
REMARK    2  A    between atoms: C_5  and  C_12
REMARK    3  A    between atoms: N_9  and  C_11
REMARK    4  A    between atoms: N_14  and  N_15
REMARK    5  A    between atoms: C_16  and  C_18
REMARK    6  A    between atoms: C_22  and  C_23
REMARK                            x       y       z     vdW  Elec       q    Type
REMARK                         _______ _______ _______ _____ _____    ______ ____
ROOT
ATOM      1  C   UNL     1       4.069   4.370  -0.014  0.00  0.00    +0.262 C 
ATOM      2  O   UNL     1       3.428   5.404  -0.002  0.00  0.00    -0.269 OA
ATOM      3  N   UNL     1       5.416   4.412  -0.027  0.00  0.00    -0.230 N 
ATOM      4  H   UNL     1       5.995   3.478  -0.038  0.00  0.00    +0.173 HD
ENDROOT
BRANCH   1   9
ATOM      5  C   UNL     1      -1.244   2.171   0.020  0.00  0.00    +0.068 C 
ATOM      6  C   UNL     1      -0.016   1.298   0.009  0.00  0.00    +0.069 A 
ATOM      7  C   UNL     1       1.370   1.758  -0.002  0.00  0.00    +0.042 A 
ATOM      8  C   UNL     1       1.977   3.016  -0.001  0.00  0.00    +0.028 A 
ATOM      9  C   UNL     1       3.370   3.069  -0.015  0.00  0.00    +0.057 A 
ATOM     10  C   UNL     1       4.100   1.872  -0.028  0.00  0.00    +0.126 A 
ATOM     11  N   UNL     1       3.500   0.706  -0.028  0.00  0.00    -0.235 NA
ATOM     12  C   UNL     1       2.175   0.599  -0.015  0.00  0.00    +0.158 A 
ATOM     13  N   UNL     1       1.321  -0.467  -0.013  0.00  0.00    -0.249 N 
ATOM     14  N   UNL     1       0.002  -0.004   0.002  0.00  0.00    -0.174 NA
ATOM     15  C   UNL     1       1.724  -1.876  -0.025  0.00  0.00    +0.174 C 
ENDBRANCH   1   9
BRANCH   3  16
ATOM     16  N   UNL     1       6.078   5.647  -0.026  0.00  0.00    -0.230 N 
ATOM     17  C   UNL     1       7.425   5.689  -0.039  0.00  0.00    +0.263 C 
ATOM     18  O   UNL     1       8.066   4.655  -0.051  0.00  0.00    -0.269 OA
ATOM     19  H   UNL     1       5.499   6.582  -0.015  0.00  0.00    +0.173 HD
BRANCH  17  20
ATOM     20  C   UNL     1       8.122   6.988  -0.039  0.00  0.00    +0.079 A 
ATOM     21  C   UNL     1       7.510   8.325  -0.032  0.00  0.00    +0.054 A 
ATOM     22  C   UNL     1       8.530   9.197  -0.030  0.00  0.00    +0.196 A 
ATOM     23  O   UNL     1       9.688   8.519  -0.045  0.00  0.00    -0.467 OA
ATOM     24  C   UNL     1       9.469   7.201  -0.051  0.00  0.00    +0.114 A 
ATOM     25  C   UNL     1      10.531   6.131  -0.068  0.00  0.00    +0.087 C 
ENDBRANCH  17  20
ENDBRANCH   3  16
TORSDOF 3
