REMARK  Name = ZINC59170348
REMARK  5 active torsions:
REMARK  status: ('A' for Active; 'I' for Inactive)
REMARK    1  A    between atoms: C_1  and  C_2
REMARK    2  A    between atoms: C_9  and  C_23
REMARK    3  A    between atoms: N_11  and  C_12
REMARK    4  A    between atoms: C_15  and  S_18
REMARK    5  A    between atoms: S_18  and  N_21
REMARK                            x       y       z     vdW  Elec       q    Type
REMARK                         _______ _______ _______ _____ _____    ______ ____
ROOT
ATOM      1  C   UNL     1       0.117   1.489   1.938  0.00  0.00    +0.044 C 
ATOM      2  C   UNL     1       0.118   0.050   1.490  0.00  0.00    -0.050 A 
ATOM      3  C   UNL     1       0.156  -0.248   0.136  0.00  0.00    +0.007 A 
ATOM      4  C   UNL     1       0.156  -1.560  -0.296  0.00  0.00    +0.047 A 
ATOM      5  C   UNL     1       0.118  -2.591   0.630  0.00  0.00    +0.137 A 
ATOM      6  C   UNL     1       0.084  -2.286   2.004  0.00  0.00    +0.018 A 
ATOM      7  C   UNL     1       0.088  -0.950   2.421  0.00  0.00    +0.015 A 
ATOM      8  C   UNL     1       0.055  -3.377   2.982  0.00  0.00    +0.030 A 
ATOM      9  C   UNL     1       0.335  -4.656   2.519  0.00  0.00    +0.097 A 
ATOM     10  C   UNL     1       0.636  -4.800   1.081  0.00  0.00    +0.212 A 
ATOM     11  N   UNL     1       1.389  -5.785   0.641  0.00  0.00    -0.325 N 
ATOM     12  O   UNL     1       0.113  -3.884   0.226  0.00  0.00    -0.439 OA
ATOM     13  H   UNL     1       1.828  -6.378   1.271  0.00  0.00    +0.169 HD
ENDROOT
BRANCH  11  14
ATOM     14  C   UNL     1       1.553  -5.973  -0.704  0.00  0.00    +0.042 A 
ATOM     15  C   UNL     1       0.451  -5.909  -1.560  0.00  0.00    +0.027 A 
ATOM     16  C   UNL     1       0.624  -6.099  -2.916  0.00  0.00    +0.030 A 
ATOM     17  C   UNL     1       1.884  -6.353  -3.427  0.00  0.00    +0.105 A 
ATOM     18  C   UNL     1       2.980  -6.418  -2.584  0.00  0.00    +0.030 A 
ATOM     19  C   UNL     1       2.823  -6.225  -1.228  0.00  0.00    +0.027 A 
BRANCH  17  20
ATOM     20  S   UNL     1       2.095  -6.596  -5.159  0.00  0.00    +0.056 S 
ATOM     21  O   UNL     1       3.283  -7.357  -5.321  0.00  0.00    -0.153 OA
ATOM     22  O   UNL     1       0.839  -7.027  -5.665  0.00  0.00    -0.153 OA
BRANCH  20  23
ATOM     23  N   UNL     1       2.390  -5.110  -5.829  0.00  0.00    -0.204 NA
ATOM     24  H   UNL     1       2.940  -5.038  -6.625  0.00  0.00    +0.144 HD
ATOM     25  H   UNL     1       2.014  -4.312  -5.426  0.00  0.00    +0.144 HD
ENDBRANCH  20  23
ENDBRANCH  17  20
ENDBRANCH  11  14
BRANCH   9  26
ATOM     26  C   UNL     1       0.332  -5.818   3.423  0.00  0.00    +0.247 C 
ATOM     27  O   UNL     1       0.460  -6.940   2.972  0.00  0.00    -0.270 OA
ATOM     28  N   UNL     1       0.186  -5.639   4.751  0.00  0.00    -0.325 N 
ATOM     29  H   UNL     1       0.012  -4.752   5.104  0.00  0.00    +0.145 HD
ATOM     30  H   UNL     1       0.256  -6.396   5.353  0.00  0.00    +0.145 HD
ENDBRANCH   9  26
TORSDOF 4
