REMARK  Name = ZINC37806200
REMARK  8 active torsions:
REMARK  status: ('A' for Active; 'I' for Inactive)
REMARK    1  A    between atoms: C_1  and  C_2
REMARK    2  A    between atoms: C_2  and  N_3
REMARK    3  A    between atoms: C_4  and  C_6
REMARK    4  A    between atoms: C_6  and  N_7
REMARK    5  A    between atoms: C_13  and  C_15
REMARK    6  A    between atoms: C_15  and  C_17
REMARK    7  A    between atoms: C_15  and  N_21
REMARK    8  A    between atoms: C_17  and  C_18
REMARK                            x       y       z     vdW  Elec       q    Type
REMARK                         _______ _______ _______ _____ _____    ______ ____
ROOT
ATOM      1  N   UNL     1      -2.994  -3.830   0.010  0.00  0.00    -0.291 NA
ATOM      2  C   UNL     1      -2.411  -4.355   1.252  0.00  0.00    +0.104 C 
ATOM      3  C   UNL     1      -2.242  -5.873   1.130  0.00  0.00    +0.123 C 
ATOM      4  N   UNL     1      -3.538  -6.460   0.755  0.00  0.00    -0.300 N 
ATOM      5  C   UNL     1      -4.250  -5.892  -0.400  0.00  0.00    +0.123 C 
ATOM      6  C   UNL     1      -4.340  -4.373  -0.218  0.00  0.00    +0.104 C 
ATOM      7  C   UNL     1      -4.058  -7.489   1.451  0.00  0.00    +0.202 C 
ATOM      8  O   UNL     1      -3.457  -7.945   2.401  0.00  0.00    -0.277 OA
ENDROOT
BRANCH   1   9
ATOM      9  C   UNL     1      -3.014  -2.361   0.018  0.00  0.00    +0.180 C 
BRANCH   9  11
ATOM     10  N   UNL     1      -1.372  -0.511   0.012  0.00  0.00    -0.315 N 
ATOM     11  C   UNL     1      -1.601  -1.839   0.007  0.00  0.00    +0.227 C 
ATOM     12  O   UNL     1      -0.668  -2.615  -0.006  0.00  0.00    -0.274 OA
ATOM     13  H   UNL     1      -2.118   0.109   0.023  0.00  0.00    +0.149 HD
BRANCH  10  15
ATOM     14  C   UNL     1      -0.019   1.526   0.010  0.00  0.00    +0.024 C 
ATOM     15  C   UNL     1       0.002  -0.004   0.002  0.00  0.00    +0.101 C 
ENDBRANCH  10  15
ENDBRANCH   9  11
ENDBRANCH   1   9
BRANCH   7  16
ATOM     16  C   UNL     1      -5.388  -8.075   1.050  0.00  0.00    +0.022 C 
BRANCH  16  17
ATOM     17  N   UNL     1      -5.516  -9.427   1.609  0.00  0.00    +0.386 N 
ATOM     18  H   UNL     1      -6.406  -9.819   1.340  0.00  0.00    -0.089 HD
ATOM     19  H   UNL     1      -4.772 -10.009   1.256  0.00  0.00    -0.089 HD
ATOM     20  H   UNL     1      -5.459  -9.382   2.615  0.00  0.00    -0.089 HD
ENDBRANCH  16  17
BRANCH  16  21
ATOM     21  C   UNL     1      -6.516  -7.192   1.585  0.00  0.00    +0.088 C 
BRANCH  21  22
ATOM     22  C   UNL     1      -7.840  -7.707   1.081  0.00  0.00    +0.209 C 
ATOM     23  O   UNL     1      -7.876  -8.685   0.364  0.00  0.00    -0.276 OA
ATOM     24  N   UNL     1      -8.983  -7.082   1.427  0.00  0.00    -0.329 N 
ATOM     25  H   UNL     1      -8.953  -6.301   2.001  0.00  0.00    +0.145 HD
ATOM     26  H   UNL     1      -9.834  -7.414   1.103  0.00  0.00    +0.145 HD
ENDBRANCH  21  22
ENDBRANCH  16  21
ENDBRANCH   7  16
TORSDOF 7
