REMARK  Name = ZINC08876240
REMARK  8 active torsions:
REMARK  status: ('A' for Active; 'I' for Inactive)
REMARK    1  A    between atoms: C_1  and  C_2
REMARK    2  A    between atoms: C_2  and  N_59
REMARK    3  A    between atoms: C_15  and  C_17
REMARK    4  A    between atoms: C_18  and  O_35
REMARK    5  A    between atoms: N_23  and  C_26
REMARK    6  A    between atoms: C_31  and  O_32
REMARK    7  A    between atoms: O_32  and  C_33
REMARK    8  A    between atoms: C_33  and  C_34
REMARK                            x       y       z     vdW  Elec       q    Type
REMARK                         _______ _______ _______ _____ _____    ______ ____
ROOT
ATOM      1  C   UNL     1      -0.231   1.310  -0.088  0.00  0.00    +0.069 A 
ATOM      2  C   UNL     1       0.967   1.950  -0.202  0.00  0.00    +0.201 A 
ATOM      3  N   UNL     1       2.120   1.212  -0.295  0.00  0.00    -0.278 N 
ATOM      4  H   UNL     1       2.975   1.663  -0.377  0.00  0.00    +0.173 HD
ATOM      5  C   UNL     1       2.073  -0.132  -0.274  0.00  0.00    +0.337 A 
ATOM      6  O   UNL     1       3.105  -0.769  -0.358  0.00  0.00    -0.246 OA
ATOM      7  N   UNL     1       0.900  -0.782  -0.162  0.00  0.00    -0.225 N 
ATOM      8  C   UNL     1      -0.256  -0.095  -0.069  0.00  0.00    +0.267 A 
ATOM      9  O   UNL     1      -1.316  -0.689   0.033  0.00  0.00    -0.267 OA
ENDROOT
BRANCH   1  22
ATOM     10  C   UNL     1      -3.608   2.268   1.227  0.00  0.00    -0.073 C 
ATOM     11  C   UNL     1      -4.476   1.608   0.146  0.00  0.00    +0.019 C 
ATOM     12  C   UNL     1      -3.696   1.614  -1.144  0.00  0.00    -0.022 A 
ATOM     13  C   UNL     1      -4.162   1.404  -2.497  0.00  0.00    +0.003 A 
ATOM     14  C   UNL     1      -5.423   1.135  -3.037  0.00  0.00    +0.010 A 
ATOM     15  C   UNL     1      -5.497   0.991  -4.401  0.00  0.00    +0.001 A 
ATOM     16  C   UNL     1      -4.382   1.105  -5.214  0.00  0.00    +0.002 A 
ATOM     17  C   UNL     1      -3.122   1.370  -4.707  0.00  0.00    +0.026 A 
ATOM     18  C   UNL     1      -3.015   1.521  -3.326  0.00  0.00    +0.047 A 
ATOM     19  N   UNL     1      -1.949   1.781  -2.513  0.00  0.00    -0.359 N 
ATOM     20  H   UNL     1      -1.036   1.909  -2.814  0.00  0.00    +0.166 HD
ATOM     21  C   UNL     1      -2.363   1.836  -1.210  0.00  0.00    +0.011 A 
ATOM     22  C   UNL     1      -1.512   2.099   0.009  0.00  0.00    +0.021 C 
ATOM     23  N   UNL     1      -2.265   1.645   1.203  0.00  0.00    +0.388 N 
ATOM     24  H   UNL     1      -2.373   0.625   1.161  0.00  0.00    -0.080 HD
BRANCH  23  26
ATOM     25  C   UNL     1      -1.461   3.517   2.605  0.00  0.00    -0.017 C 
ATOM     26  C   UNL     1      -1.524   1.999   2.431  0.00  0.00    -0.081 C 
ENDBRANCH  23  26
ENDBRANCH   1  22
BRANCH   7  27
ATOM     27  C   UNL     1       0.880  -2.185  -0.143  0.00  0.00    +0.096 A 
ATOM     28  C   UNL     1       0.764  -2.894  -1.329  0.00  0.00    +0.030 A 
ATOM     29  C   UNL     1       0.745  -4.276  -1.308  0.00  0.00    +0.002 A 
ATOM     30  C   UNL     1       0.841  -4.954  -0.107  0.00  0.00    +0.004 A 
ATOM     31  C   UNL     1       0.956  -4.254   1.079  0.00  0.00    +0.048 A 
ATOM     32  C   UNL     1       0.982  -2.868   1.066  0.00  0.00    +0.144 A 
BRANCH  32  33
ATOM     33  O   UNL     1       1.101  -2.178   2.231  0.00  0.00    -0.490 OA
BRANCH  33  34
ATOM     34  C   UNL     1       1.201  -2.945   3.432  0.00  0.00    +0.226 C 
ATOM     35  C   UNL     1       1.327  -2.002   4.631  0.00  0.00    +0.048 C 
ENDBRANCH  33  34
ENDBRANCH  32  33
ENDBRANCH   7  27
BRANCH   2  36
ATOM     36  O   UNL     1       1.019   3.299  -0.223  0.00  0.00    -0.493 OA
ATOM     37  H   UNL     1       1.913   3.657  -0.306  0.00  0.00    +0.294 HD
ENDBRANCH   2  36
TORSDOF 6
