REMARK  Name = ZINC39154610
REMARK  13 active torsions:
REMARK  status: ('A' for Active; 'I' for Inactive)
REMARK    1  A    between atoms: C_1  and  C_2
REMARK    2  A    between atoms: C_2  and  O_3
REMARK    3  A    between atoms: O_3  and  C_4
REMARK    4  A    between atoms: C_4  and  C_6
REMARK    5  A    between atoms: C_8  and  C_39
REMARK    6  A    between atoms: C_10  and  C_34
REMARK    7  A    between atoms: C_13  and  N_15
REMARK    8  A    between atoms: C_16  and  C_18
REMARK    9  A    between atoms: C_18  and  S_19
REMARK   10  A    between atoms: S_19  and  C_20
REMARK   11  A    between atoms: C_34  and  O_36
REMARK   12  A    between atoms: O_36  and  C_37
REMARK   13  A    between atoms: C_37  and  C_38
REMARK                            x       y       z     vdW  Elec       q    Type
REMARK                         _______ _______ _______ _____ _____    ______ ____
ROOT
ATOM      1  N   UNL     1       0.779  -1.030  -4.790  0.00  0.00    -0.302 N 
ATOM      2  C   UNL     1       1.062  -0.970  -6.106  0.00  0.00    +0.224 C 
ATOM      3  O   UNL     1       1.145  -1.991  -6.755  0.00  0.00    -0.275 OA
ATOM      4  H   UNL     1       0.712  -0.213  -4.271  0.00  0.00    +0.150 HD
ENDROOT
BRANCH   1   9
ATOM      5  C   UNL     1       1.328  -2.412  -2.787  0.00  0.00    +0.132 C 
ATOM      6  C   UNL     1       1.582  -3.871  -2.413  0.00  0.00    +0.026 C 
ATOM      7  C   UNL     1       1.763  -4.795  -3.633  0.00  0.00    +0.160 C 
ATOM      8  S   UNL     1       1.434  -3.679  -5.059  0.00  0.00    -0.123 S 
ATOM      9  C   UNL     1       0.573  -2.328  -4.143  0.00  0.00    +0.146 C 
ATOM     10  C   UNL     1       0.397  -4.379  -1.589  0.00  0.00    +0.010 C 
BRANCH   5  11
ATOM     11  C   UNL     1       0.497  -1.758  -1.712  0.00  0.00    +0.313 C 
ATOM     12  O   UNL     1      -0.701  -1.676  -1.841  0.00  0.00    -0.250 OA
BRANCH  11  13
ATOM     13  O   UNL     1       1.089  -1.268  -0.612  0.00  0.00    -0.465 OA
BRANCH  13  15
ATOM     14  C   UNL     1       1.088  -0.166   1.539  0.00  0.00    +0.048 C 
ATOM     15  C   UNL     1       0.241  -0.662   0.366  0.00  0.00    +0.229 C 
ENDBRANCH  13  15
ENDBRANCH  11  13
ENDBRANCH   5  11
BRANCH   7  16
ATOM     16  C   UNL     1       3.169  -5.334  -3.688  0.00  0.00    +0.321 C 
ATOM     17  O   UNL     1       4.084  -4.681  -3.245  0.00  0.00    -0.250 OA
BRANCH  16  18
ATOM     18  O   UNL     1       3.405  -6.540  -4.228  0.00  0.00    -0.464 OA
BRANCH  18  19
ATOM     19  C   UNL     1       4.762  -6.988  -4.247  0.00  0.00    +0.229 C 
ATOM     20  C   UNL     1       4.833  -8.372  -4.896  0.00  0.00    +0.048 C 
ENDBRANCH  18  19
ENDBRANCH  16  18
ENDBRANCH   7  16
ENDBRANCH   1   9
BRANCH   2  21
ATOM     21  C   UNL     1       1.274   0.365  -6.772  0.00  0.00    +0.173 C 
BRANCH  21  22
ATOM     22  S   UNL     1       1.634   0.113  -8.532  0.00  0.00    -0.075 S 
BRANCH  22  23
ATOM     23  C   UNL     1       1.854   1.745  -9.159  0.00  0.00    +0.208 C 
ATOM     24  N   UNL     1       1.736   2.749  -8.325  0.00  0.00    -0.227 NA
ATOM     25  C   UNL     1       1.842   4.101  -8.868  0.00  0.00    +0.252 C 
ATOM     26  C   UNL     1       2.739   4.001 -10.094  0.00  0.00    +0.117 C 
ATOM     27  C   UNL     1       3.664   4.990  -9.952  0.00  0.00    +0.025 A 
ATOM     28  C   UNL     1       4.688   5.465 -10.808  0.00  0.00    +0.012 A 
ATOM     29  C   UNL     1       5.466   6.481 -10.349  0.00  0.00    +0.001 A 
ATOM     30  C   UNL     1       5.319   7.079  -9.093  0.00  0.00    +0.002 A 
ATOM     31  C   UNL     1       4.368   6.709  -8.194  0.00  0.00    +0.026 A 
ATOM     32  C   UNL     1       3.471   5.618  -8.609  0.00  0.00    +0.046 A 
ATOM     33  N   UNL     1       2.473   5.070  -7.984  0.00  0.00    -0.358 N 
ATOM     34  N   UNL     1       2.611   2.995 -10.965  0.00  0.00    -0.147 NA
ATOM     35  N   UNL     1       2.142   1.889 -10.476  0.00  0.00    -0.122 NA
ATOM     36  H   UNL     1       2.194   5.274  -7.078  0.00  0.00    +0.162 HD
ENDBRANCH  22  23
ENDBRANCH  21  22
ENDBRANCH   2  21
TORSDOF 10
