REMARK  Name = ZINC36961267
REMARK  10 active torsions:
REMARK  status: ('A' for Active; 'I' for Inactive)
REMARK    1  A    between atoms: C_1  and  C_2
REMARK    2  A    between atoms: C_5  and  O_24
REMARK    3  A    between atoms: C_6  and  C_8
REMARK    4  A    between atoms: C_8  and  C_10
REMARK    5  A    between atoms: C_8  and  N_11
REMARK    6  A    between atoms: N_11  and  C_12
REMARK    7  A    between atoms: C_15  and  C_23
REMARK    8  A    between atoms: N_17  and  C_22
REMARK    9  A    between atoms: C_19  and  C_21
REMARK   10  A    between atoms: O_24  and  C_25
REMARK                            x       y       z     vdW  Elec       q    Type
REMARK                         _______ _______ _______ _____ _____    ______ ____
ROOT
ATOM      1  N   UNL     1      -0.539  -2.010   3.551  0.00  0.00    +0.385 N 
ATOM      2  H   UNL     1       0.042  -1.200   3.707  0.00  0.00    -0.085 HD
ATOM      3  H   UNL     1      -1.461  -1.714   3.270  0.00  0.00    -0.085 HD
ENDROOT
BRANCH   1   4
ATOM      4  C   UNL     1      -0.633  -2.792   4.792  0.00  0.00    -0.071 C 
ATOM      5  C   UNL     1      -1.615  -3.950   4.595  0.00  0.00    -0.031 C 
ATOM      6  C   UNL     1      -1.768  -4.711   5.913  0.00  0.00    -0.074 C 
ATOM      7  N   UNL     1      -2.279  -3.805   6.949  0.00  0.00    +0.380 N 
ATOM      8  C   UNL     1      -1.308  -2.732   7.194  0.00  0.00    -0.077 C 
ATOM      9  C   UNL     1      -1.136  -1.894   5.926  0.00  0.00    -0.045 C 
ATOM     10  C   UNL     1      -2.481  -1.280   5.533  0.00  0.00    +0.004 C 
ATOM     11  C   UNL     1      -2.498  -4.558   8.191  0.00  0.00    -0.096 C 
ATOM     12  C   UNL     1      -2.750  -5.869   5.721  0.00  0.00    -0.013 C 
ATOM     13  H   UNL     1      -3.153  -3.404   6.643  0.00  0.00    -0.082 HD
ENDBRANCH   1   4
BRANCH   1  14
ATOM     14  C   UNL     1       0.052  -2.841   2.493  0.00  0.00    -0.040 C 
ATOM     15  C   UNL     1       1.496  -3.187   2.864  0.00  0.00    -0.009 C 
BRANCH  14  21
ATOM     16  C   UNL     1      -0.018   1.503   0.010  0.00  0.00    +0.044 C 
ATOM     17  C   UNL     1       0.002  -0.004   0.002  0.00  0.00    -0.050 A 
ATOM     18  C   UNL     1       0.006  -0.688  -1.200  0.00  0.00    +0.007 A 
ATOM     19  C   UNL     1       0.024  -2.069  -1.210  0.00  0.00    +0.046 A 
ATOM     20  C   UNL     1       0.039  -2.770  -0.013  0.00  0.00    +0.122 A 
ATOM     21  C   UNL     1       0.036  -2.082   1.191  0.00  0.00    -0.020 A 
ATOM     22  C   UNL     1       0.023  -0.701   1.196  0.00  0.00    +0.009 A 
BRANCH  20  23
ATOM     23  O   UNL     1       0.057  -4.129  -0.021  0.00  0.00    -0.495 OA
ATOM     24  C   UNL     1       0.058  -4.771  -1.298  0.00  0.00    +0.277 C 
ENDBRANCH  20  23
ENDBRANCH  14  21
ENDBRANCH   1  14
TORSDOF 4
