REMARK  Name = ZINC05458320
REMARK  6 active torsions:
REMARK  status: ('A' for Active; 'I' for Inactive)
REMARK    1  A    between atoms: C_1  and  C_2
REMARK    2  A    between atoms: N_4  and  C_5
REMARK    3  A    between atoms: C_8  and  S_11
REMARK    4  A    between atoms: S_11  and  N_14
REMARK    5  A    between atoms: N_14  and  N_15
REMARK    6  A    between atoms: N_15  and  C_16
REMARK                            x       y       z     vdW  Elec       q    Type
REMARK                         _______ _______ _______ _____ _____    ______ ____
ROOT
ATOM      1  N   UNL     1      -0.878  -7.002   1.964  0.00  0.00    -0.110 NA
ATOM      2  H   UNL     1      -0.138  -7.485   2.362  0.00  0.00    +0.172 HD
ENDROOT
BRANCH   1   3
ATOM      3  S   UNL     1      -0.840  -6.603   0.357  0.00  0.00    +0.073 S 
ATOM      4  O   UNL     1      -2.038  -7.108  -0.216  0.00  0.00    -0.152 OA
ATOM      5  O   UNL     1       0.447  -6.970  -0.121  0.00  0.00    -0.152 OA
BRANCH   3   9
ATOM      6  C   UNL     1      -1.081  -2.089   0.091  0.00  0.00    +0.033 A 
ATOM      7  C   UNL     1       0.155  -2.716   0.178  0.00  0.00    +0.025 A 
ATOM      8  C   UNL     1       0.225  -4.092   0.259  0.00  0.00    +0.030 A 
ATOM      9  C   UNL     1      -0.934  -4.847   0.254  0.00  0.00    +0.107 A 
ATOM     10  C   UNL     1      -2.166  -4.226   0.168  0.00  0.00    +0.030 A 
ATOM     11  C   UNL     1      -2.244  -2.849   0.093  0.00  0.00    +0.025 A 
BRANCH   6  15
ATOM     12  C   UNL     1      -2.194   1.470   0.609  0.00  0.00    +0.109 C 
ATOM     13  C   UNL     1      -2.169  -0.037   0.608  0.00  0.00    +0.214 C 
ATOM     14  O   UNL     1      -3.061  -0.658   1.145  0.00  0.00    -0.276 OA
ATOM     15  N   UNL     1      -1.156  -0.694   0.009  0.00  0.00    -0.286 N 
ATOM     16  H   UNL     1      -0.478  -0.200  -0.478  0.00  0.00    +0.155 HD
ENDBRANCH   6  15
ENDBRANCH   3   9
ENDBRANCH   1   3
BRANCH   1  17
ATOM     17  N   UNL     1      -1.981  -6.641   2.749  0.00  0.00    -0.257 N 
ATOM     18  H   UNL     1      -2.264  -5.714   2.792  0.00  0.00    +0.168 HD
BRANCH  17  19
ATOM     19  C   UNL     1      -2.644  -7.574   3.438  0.00  0.00    +0.114 C 
ATOM     20  C   UNL     1      -2.369  -8.961   3.494  0.00  0.00    +0.023 A 
ATOM     21  C   UNL     1      -1.393  -9.771   2.901  0.00  0.00    +0.012 A 
ATOM     22  C   UNL     1      -1.383 -11.128   3.154  0.00  0.00    +0.001 A 
ATOM     23  C   UNL     1      -2.333 -11.690   3.992  0.00  0.00    +0.002 A 
ATOM     24  C   UNL     1      -3.307 -10.907   4.590  0.00  0.00    +0.024 A 
ATOM     25  C   UNL     1      -3.343  -9.535   4.353  0.00  0.00    +0.043 A 
ATOM     26  N   UNL     1      -4.180  -8.560   4.808  0.00  0.00    -0.280 N 
ATOM     27  C   UNL     1      -3.842  -7.377   4.327  0.00  0.00    +0.264 C 
ATOM     28  O   UNL     1      -4.399  -6.319   4.560  0.00  0.00    -0.268 OA
ATOM     29  H   UNL     1      -4.925  -8.714   5.410  0.00  0.00    +0.155 HD
ENDBRANCH  17  19
ENDBRANCH   1  17
TORSDOF 5
