REMARK  Name = ZINC43337088
REMARK  5 active torsions:
REMARK  status: ('A' for Active; 'I' for Inactive)
REMARK    1  A    between atoms: C_3  and  C_6
REMARK    2  A    between atoms: C_6  and  C_8
REMARK    3  A    between atoms: C_6  and  O_10
REMARK    4  A    between atoms: C_8  and  N_9
REMARK    5  A    between atoms: O_10  and  C_11
REMARK                            x       y       z     vdW  Elec       q    Type
REMARK                         _______ _______ _______ _____ _____    ______ ____
ROOT
ATOM      1  C   UNL     1       3.585   0.639   0.000  0.00  0.00    +0.222 C 
ENDROOT
BRANCH   1   4
ATOM      2  C   UNL     1       0.030   1.537   0.364  0.00  0.00    +0.041 A 
ATOM      3  C   UNL     1       1.390   1.896   0.222  0.00  0.00    +0.048 A 
ATOM      4  C   UNL     1       2.090   0.750   0.155  0.00  0.00    +0.143 A 
ATOM      5  O   UNL     1       1.232  -0.278   0.248  0.00  0.00    -0.464 OA
ATOM      6  C   UNL     1      -0.019   0.193   0.375  0.00  0.00    +0.195 A 
ENDBRANCH   1   4
BRANCH   1   7
ATOM      7  C   UNL     1       3.934   0.470  -1.480  0.00  0.00    -0.033 C 
BRANCH   7   8
ATOM      8  N   UNL     1       5.391   0.361  -1.631  0.00  0.00    +0.381 N 
ATOM      9  H   UNL     1       5.829   1.198  -1.276  0.00  0.00    -0.090 HD
ATOM     10  H   UNL     1       5.724  -0.438  -1.113  0.00  0.00    -0.090 HD
ATOM     11  H   UNL     1       5.621   0.250  -2.607  0.00  0.00    -0.090 HD
ENDBRANCH   7   8
ENDBRANCH   1   7
BRANCH   1  12
ATOM     12  O   UNL     1       4.057  -0.493   0.733  0.00  0.00    -0.482 OA
BRANCH  12  13
ATOM     13  C   UNL     1       5.305  -0.408   1.264  0.00  0.00    +0.141 A 
ATOM     14  C   UNL     1       6.032   0.767   1.145  0.00  0.00    +0.068 A 
ATOM     15  C   UNL     1       7.302   0.852   1.686  0.00  0.00    +0.063 A 
ATOM     16  C   UNL     1       7.847  -0.236   2.347  0.00  0.00    +0.061 A 
ATOM     17  C   UNL     1       7.124  -1.409   2.468  0.00  0.00    +0.045 A 
ATOM     18  C   UNL     1       5.852  -1.495   1.933  0.00  0.00    +0.084 A 
ATOM     19 CL   UNL     1       4.942  -2.965   2.090  0.00  0.00    -0.080 Cl
ATOM     20 CL   UNL     1       9.442  -0.128   3.026  0.00  0.00    -0.082 Cl
ATOM     21 CL   UNL     1       8.212   2.322   1.536  0.00  0.00    -0.082 Cl
ENDBRANCH  12  13
ENDBRANCH   1  12
TORSDOF 5
