REMARK  Name = ZINC20483358
REMARK  11 active torsions:
REMARK  status: ('A' for Active; 'I' for Inactive)
REMARK    1  A    between atoms: C_1  and  C_2
REMARK    2  A    between atoms: C_2  and  C_3
REMARK    3  A    between atoms: C_3  and  C_4
REMARK    4  A    between atoms: C_4  and  C_5
REMARK    5  A    between atoms: C_5  and  N_6
REMARK    6  A    between atoms: C_7  and  C_9
REMARK    7  A    between atoms: C_9  and  C_11
REMARK    8  A    between atoms: C_9  and  O_12
REMARK    9  A    between atoms: O_12  and  C_13
REMARK   10  A    between atoms: C_18  and  C_19
REMARK   11  A    between atoms: C_19  and  N_20
REMARK                            x       y       z     vdW  Elec       q    Type
REMARK                         _______ _______ _______ _____ _____    ______ ____
ROOT
ATOM      1  O   UNL     1       1.312   3.218  -1.942  0.00  0.00    -0.480 OA
ENDROOT
BRANCH   1   2
ATOM      2  C   UNL     1       0.294   3.802  -1.255  0.00  0.00    +0.123 A 
ATOM      3  C   UNL     1       0.330   5.162  -0.983  0.00  0.00    +0.047 A 
ATOM      4  C   UNL     1      -0.702   5.752  -0.280  0.00  0.00    +0.019 A 
ATOM      5  C   UNL     1      -1.774   4.988   0.148  0.00  0.00    +0.018 A 
ATOM      6  C   UNL     1      -1.814   3.633  -0.127  0.00  0.00    +0.020 A 
ATOM      7  C   UNL     1      -0.784   3.039  -0.830  0.00  0.00    -0.022 A 
ATOM      8 BR   UNL     1      -3.186   5.798   1.111  0.00  0.00    -0.050 Br
BRANCH   7   9
ATOM      9  C   UNL     1      -0.828   1.563  -1.130  0.00  0.00    -0.047 C 
BRANCH   9  10
ATOM     10  N   UNL     1       0.019   0.843  -0.170  0.00  0.00    +0.381 N 
ATOM     11  H   UNL     1      -0.013  -0.235  -0.389  0.00  0.00    -0.090 HD
ATOM     12  H   UNL     1      -0.350   1.021   0.851  0.00  0.00    -0.090 HD
ATOM     13  H   UNL     1       1.055   1.203  -0.253  0.00  0.00    -0.090 HD
ENDBRANCH   9  10
ENDBRANCH   7   9
ENDBRANCH   1   2
BRANCH   1  14
ATOM     14  C   UNL     1       2.327   4.083  -2.456  0.00  0.00    +0.255 C 
ATOM     15  C   UNL     1       3.369   4.350  -1.368  0.00  0.00    +0.062 C 
BRANCH  14  17
ATOM     16  N   UNL     1       3.987   4.063  -4.290  0.00  0.00    -0.312 N 
ATOM     17  C   UNL     1       2.992   3.428  -3.639  0.00  0.00    +0.254 C 
ATOM     18  O   UNL     1       2.632   2.329  -4.006  0.00  0.00    -0.272 OA
ATOM     19  H   UNL     1       4.313   5.060  -3.958  0.00  0.00    +0.149 HD
BRANCH  16  20
ATOM     20  C   UNL     1       4.633   3.426  -5.440  0.00  0.00    +0.104 C 
BRANCH  20  21
ATOM     21  C   UNL     1       5.720   4.352  -5.991  0.00  0.00    +0.019 C 
BRANCH  21  22
ATOM     22  C   UNL     1       6.396   3.687  -7.192  0.00  0.00    +0.001 C 
BRANCH  22  24
ATOM     23  C   UNL     1       8.158   3.948  -8.944  0.00  0.00    +0.004 C 
ATOM     24  C   UNL     1       7.482   4.613  -7.743  0.00  0.00    -0.003 C 
ENDBRANCH  22  24
ENDBRANCH  21  22
ENDBRANCH  20  21
ENDBRANCH  16  20
ENDBRANCH  14  17
ENDBRANCH   1  14
TORSDOF 9
