REMARK  Name = ZINC00262345
REMARK  5 active torsions:
REMARK  status: ('A' for Active; 'I' for Inactive)
REMARK    1  A    between atoms: C_3  and  O_27
REMARK    2  A    between atoms: C_6  and  C_7
REMARK    3  A    between atoms: C_16  and  C_25
REMARK    4  A    between atoms: C_20  and  C_21
REMARK    5  A    between atoms: C_20  and  C_23
REMARK                            x       y       z     vdW  Elec       q    Type
REMARK                         _______ _______ _______ _____ _____    ______ ____
ROOT
ATOM      1  C   UNL     1      -1.293  -0.774   0.011  0.00  0.00    +0.066 C 
ATOM      2  C   UNL     1      -1.351  -1.661   1.258  0.00  0.00    +0.027 C 
ATOM      3  C   UNL     1      -1.199  -0.802   2.503  0.00  0.00    +0.009 C 
ATOM      4  C   UNL     1      -1.782  -1.506   3.728  0.00  0.00    +0.005 C 
ATOM      5  C   UNL     1      -3.283  -1.710   3.498  0.00  0.00    +0.027 C 
ATOM      6  C   UNL     1      -3.473  -2.491   2.228  0.00  0.00    -0.026 C 
ATOM      7  C   UNL     1      -2.624  -2.455   1.257  0.00  0.00    -0.047 C 
ATOM      8  C   UNL     1      -2.932  -3.300   0.030  0.00  0.00    +0.164 C 
ATOM      9  C   UNL     1      -2.678  -2.439  -1.189  0.00  0.00    +0.065 C 
ATOM     10  N   UNL     1      -3.527  -2.383  -2.145  0.00  0.00    -0.304 NA
ATOM     11  C   UNL     1      -1.376  -1.647  -1.245  0.00  0.00    +0.188 C 
ATOM     12  H   UNL     1      -3.350  -1.827  -2.919  0.00  0.00    +0.186 HD
ENDROOT
BRANCH   1  18
ATOM     13  C   UNL     1      -0.017   1.378   0.010  0.00  0.00    +0.007 A 
ATOM     14  C   UNL     1       1.169   2.087   0.002  0.00  0.00    +0.045 A 
ATOM     15  C   UNL     1       2.380   1.409  -0.013  0.00  0.00    +0.117 A 
ATOM     16  C   UNL     1       2.396   0.022  -0.021  0.00  0.00    +0.045 A 
ATOM     17  C   UNL     1       1.207  -0.681  -0.013  0.00  0.00    +0.007 A 
ATOM     18  C   UNL     1       0.002  -0.004   0.002  0.00  0.00    -0.041 A 
BRANCH  15  19
ATOM     19  O   UNL     1       3.548   2.104  -0.021  0.00  0.00    -0.507 OA
ATOM     20  H   UNL     1       3.895   2.300   0.860  0.00  0.00    +0.292 HD
ENDBRANCH  15  19
ENDBRANCH   1  18
BRANCH  11  21
ATOM     21  C   UNL     1      -1.377  -0.790  -2.442  0.00  0.00    +0.091 C 
ATOM     22  N   UNL     1      -1.377  -0.129  -3.365  0.00  0.00    -0.195 NA
ENDBRANCH  11  21
BRANCH  11  23
ATOM     23  C   UNL     1      -0.221  -2.558  -1.288  0.00  0.00    +0.091 C 
ATOM     24  N   UNL     1       0.670  -3.262  -1.322  0.00  0.00    -0.195 NA
ENDBRANCH  11  23
BRANCH   8  25
ATOM     25  C   UNL     1      -2.053  -4.481   0.001  0.00  0.00    +0.076 C 
ATOM     26  N   UNL     1      -1.375  -5.392  -0.020  0.00  0.00    -0.196 NA
ENDBRANCH   8  25
TORSDOF 5
