REMARK  Name = ZINC54414005
REMARK  7 active torsions:
REMARK  status: ('A' for Active; 'I' for Inactive)
REMARK    1  A    between atoms: C_1  and  C_2
REMARK    2  A    between atoms: C_2  and  C_3
REMARK    3  A    between atoms: C_3  and  C_4
REMARK    4  A    between atoms: C_3  and  C_5
REMARK    5  A    between atoms: C_3  and  N_6
REMARK    6  A    between atoms: C_7  and  C_11
REMARK    7  A    between atoms: C_14  and  N_18
REMARK                            x       y       z     vdW  Elec       q    Type
REMARK                         _______ _______ _______ _____ _____    ______ ____
ROOT
ATOM      1  N   UNL     1      -2.439  -1.301  -0.405  0.00  0.00    -0.219 N 
ATOM      2  C   UNL     1      -3.715  -0.896  -0.184  0.00  0.00    +0.182 A 
ATOM      3  N   UNL     1      -4.449  -1.983  -0.062  0.00  0.00    -0.108 NA
ATOM      4  N   UNL     1      -3.721  -3.033  -0.191  0.00  0.00    -0.023 NA
ATOM      5  N   UNL     1      -2.493  -2.705  -0.407  0.00  0.00    -0.043 NA
ENDROOT
BRANCH   2   6
ATOM      6  C   UNL     1      -4.192   0.501  -0.097  0.00  0.00    +0.024 A 
ATOM      7  C   UNL     1      -3.361   1.492   0.427  0.00  0.00    +0.013 A 
ATOM      8  C   UNL     1      -3.806   2.794   0.508  0.00  0.00    +0.026 A 
ATOM      9  C   UNL     1      -5.083   3.121   0.067  0.00  0.00    +0.060 A 
ATOM     10  C   UNL     1      -5.915   2.136  -0.458  0.00  0.00    +0.145 A 
ATOM     11  C   UNL     1      -5.472   0.832  -0.545  0.00  0.00    +0.051 A 
ATOM     12  F   UNL     1      -7.156   2.457  -0.885  0.00  0.00    -0.204 F 
BRANCH   9  13
ATOM     13  N   UNL     1      -5.532   4.440   0.149  0.00  0.00    -0.356 N 
ATOM     14  H   UNL     1      -4.953   5.128   0.515  0.00  0.00    +0.142 HD
ATOM     15  H   UNL     1      -6.423   4.670  -0.158  0.00  0.00    +0.142 HD
ENDBRANCH   9  13
ENDBRANCH   2   6
BRANCH   1  16
ATOM     16  C   UNL     1      -1.260  -0.455  -0.606  0.00  0.00    +0.062 C 
ATOM     17  C   UNL     1      -0.792   0.096   0.743  0.00  0.00    +0.036 C 
ATOM     18  C   UNL     1      -1.617   0.707  -1.535  0.00  0.00    +0.036 C 
BRANCH  16  20
ATOM     19  C   UNL     1       1.094  -0.402  -1.443  0.00  0.00    +0.006 C 
ATOM     20  C   UNL     1      -0.138  -1.285  -1.234  0.00  0.00    +0.026 C 
ENDBRANCH  16  20
ENDBRANCH   1  16
TORSDOF 4
