REMARK  Name = ZINC29636249
REMARK  5 active torsions:
REMARK  status: ('A' for Active; 'I' for Inactive)
REMARK    1  A    between atoms: C_4  and  O_30
REMARK    2  A    between atoms: C_5  and  N_7
REMARK    3  A    between atoms: N_10  and  C_13
REMARK    4  A    between atoms: C_13  and  C_14
REMARK    5  A    between atoms: C_18  and  C_27
REMARK                            x       y       z     vdW  Elec       q    Type
REMARK                         _______ _______ _______ _____ _____    ______ ____
ROOT
ATOM      1  C   UNL     1      -2.736   0.592   2.301  0.00  0.00    +0.203 C 
ATOM      2  O   UNL     1      -2.123   0.485   3.342  0.00  0.00    -0.277 OA
ATOM      3  N   UNL     1      -2.120   1.069   1.201  0.00  0.00    -0.266 N 
ATOM      4  C   UNL     1      -2.818   1.131  -0.098  0.00  0.00    +0.168 C 
ATOM      5  C   UNL     1      -2.459   2.475  -0.748  0.00  0.00    +0.276 C 
ATOM      6  O   UNL     1      -1.039   2.554  -0.893  0.00  0.00    -0.476 OA
ATOM      7  C   UNL     1      -0.274   2.267   0.194  0.00  0.00    +0.143 A 
ATOM      8  C   UNL     1      -0.791   1.524   1.252  0.00  0.00    +0.078 A 
ATOM      9  C   UNL     1       0.001   1.234   2.351  0.00  0.00    +0.027 A 
ATOM     10  C   UNL     1       1.307   1.687   2.398  0.00  0.00    +0.002 A 
ATOM     11  C   UNL     1       1.821   2.427   1.350  0.00  0.00    +0.004 A 
ATOM     12  C   UNL     1       1.036   2.717   0.250  0.00  0.00    +0.047 A 
ENDROOT
BRANCH   5  13
ATOM     13  C   UNL     1      -3.110   2.570  -2.104  0.00  0.00    +0.253 C 
ATOM     14  O   UNL     1      -2.426   2.607  -3.104  0.00  0.00    -0.272 OA
ATOM     15  N   UNL     1      -4.454   2.613  -2.204  0.00  0.00    -0.326 N 
ATOM     16  H   UNL     1      -4.929   2.682  -3.194  0.00  0.00    +0.145 HD
ATOM     17  H   UNL     1      -5.074   2.579  -1.297  0.00  0.00    +0.145 HD
ENDBRANCH   5  13
BRANCH   1  18
ATOM     18  C   UNL     1      -4.188   0.193   2.237  0.00  0.00    +0.019 C 
BRANCH  18  22
ATOM     19  N   UNL     1      -5.878  -1.911   5.488  0.00  0.00    -0.331 N 
ATOM     20  C   UNL     1      -6.554  -0.688   5.033  0.00  0.00    +0.086 C 
ATOM     21  C   UNL     1      -6.108  -0.362   3.605  0.00  0.00    -0.059 C 
ATOM     22  N   UNL     1      -4.648  -0.195   3.578  0.00  0.00    +0.387 N 
ATOM     23  C   UNL     1      -3.972  -1.418   4.033  0.00  0.00    -0.059 C 
ATOM     24  C   UNL     1      -4.419  -1.743   5.460  0.00  0.00    +0.086 C 
ATOM     25  H   UNL     1      -4.386   0.617   4.272  0.00  0.00    -0.081 HD
BRANCH  19  30
ATOM     26  C   UNL     1      -6.582  -1.782   9.096  0.00  0.00    +0.002 A 
ATOM     27  C   UNL     1      -7.184  -3.011   9.292  0.00  0.00    +0.004 A 
ATOM     28  C   UNL     1      -7.355  -3.879   8.229  0.00  0.00    +0.047 A 
ATOM     29  C   UNL     1      -6.928  -3.516   6.963  0.00  0.00    +0.138 A 
ATOM     30  C   UNL     1      -6.317  -2.280   6.765  0.00  0.00    +0.072 A 
ATOM     31  C   UNL     1      -6.148  -1.415   7.836  0.00  0.00    +0.027 A 
BRANCH  29  32
ATOM     32  O   UNL     1      -7.101  -4.367   5.915  0.00  0.00    -0.505 OA
ATOM     33  H   UNL     1      -6.762  -4.077   4.910  0.00  0.00    +0.292 HD
ENDBRANCH  29  32
ENDBRANCH  19  30
ENDBRANCH  18  22
ENDBRANCH   1  18
TORSDOF 5
