REMARK  Name = ZINC54507926
REMARK  7 active torsions:
REMARK  status: ('A' for Active; 'I' for Inactive)
REMARK    1  A    between atoms: C_1  and  C_2
REMARK    2  A    between atoms: C_3  and  C_22
REMARK    3  A    between atoms: C_7  and  N_8
REMARK    4  A    between atoms: N_11  and  C_12
REMARK    5  A    between atoms: C_12  and  C_13
REMARK    6  A    between atoms: C_13  and  N_14
REMARK    7  A    between atoms: C_19  and  C_21
REMARK                            x       y       z     vdW  Elec       q    Type
REMARK                         _______ _______ _______ _____ _____    ______ ____
ROOT
ATOM      1  N   UNL     1       0.864   0.275   1.688  0.00  0.00    -0.269 N 
ATOM      2  C   UNL     1       1.152  -0.112   2.947  0.00  0.00    +0.304 C 
ATOM      3  O   UNL     1       0.977  -1.267   3.283  0.00  0.00    -0.253 OA
ATOM      4  N   UNL     1       1.634   0.782   3.832  0.00  0.00    -0.301 N 
ATOM      5  H   UNL     1       0.917   1.212   1.444  0.00  0.00    +0.156 HD
ATOM      6  H   UNL     1       1.773   1.704   3.564  0.00  0.00    +0.150 HD
ENDROOT
BRANCH   1  13
ATOM      7  C   UNL     1      -0.605   1.159  -0.580  0.00  0.00    +0.046 C 
ATOM      8  C   UNL     1      -0.229  -0.287  -0.388  0.00  0.00    -0.017 A 
ATOM      9  C   UNL     1      -0.596  -1.238  -1.340  0.00  0.00    +0.042 A 
ATOM     10  C   UNL     1      -0.244  -2.576  -1.156  0.00  0.00    +0.013 A 
ATOM     11  C   UNL     1       0.465  -2.954  -0.033  0.00  0.00    +0.003 A 
ATOM     12  C   UNL     1       0.829  -2.012   0.910  0.00  0.00    +0.023 A 
ATOM     13  C   UNL     1       0.488  -0.676   0.733  0.00  0.00    +0.038 A 
BRANCH   9  14
ATOM     14  C   UNL     1      -1.356  -0.830  -2.542  0.00  0.00    +0.247 C 
ATOM     15  O   UNL     1      -0.996   0.132  -3.191  0.00  0.00    -0.270 OA
ATOM     16  N   UNL     1      -2.448  -1.526  -2.916  0.00  0.00    -0.293 N 
ATOM     17  C   UNL     1      -2.978  -2.614  -2.079  0.00  0.00    +0.136 C 
ATOM     18  C   UNL     1      -4.479  -2.382  -1.878  0.00  0.00    +0.179 C 
ATOM     19  O   UNL     1      -5.102  -2.200  -3.152  0.00  0.00    -0.377 OA
ATOM     20  C   UNL     1      -4.640  -1.055  -3.872  0.00  0.00    +0.179 C 
ATOM     21  C   UNL     1      -3.149  -1.215  -4.172  0.00  0.00    +0.136 C 
ENDBRANCH   9  14
ENDBRANCH   1  13
BRANCH   4  22
ATOM     22  C   UNL     1       1.947   0.362   5.200  0.00  0.00    +0.087 C 
BRANCH  22  23
ATOM     23  C   UNL     1       2.474   1.560   5.994  0.00  0.00    -0.059 C 
BRANCH  23  24
ATOM     24  N   UNL     1       2.788   1.139   7.366  0.00  0.00    +0.382 N 
ATOM     25  C   UNL     1       3.887   0.167   7.338  0.00  0.00    -0.078 C 
ATOM     26  C   UNL     1       4.164  -0.336   8.756  0.00  0.00    -0.019 C 
ATOM     27  C   UNL     1       4.551   0.849   9.646  0.00  0.00    -0.003 C 
ATOM     28  C   UNL     1       3.428   1.890   9.608  0.00  0.00    -0.016 C 
ATOM     29  C   UNL     1       3.179   2.311   8.158  0.00  0.00    -0.072 C 
ATOM     30  C   UNL     1       2.058   3.352   8.116  0.00  0.00    -0.013 C 
ATOM     31  H   UNL     1       1.973   0.711   7.780  0.00  0.00    -0.081 HD
ENDBRANCH  23  24
ENDBRANCH  22  23
ENDBRANCH   4  22
TORSDOF 5
