REMARK  Name = ZINC20123635
REMARK  7 active torsions:
REMARK  status: ('A' for Active; 'I' for Inactive)
REMARK    1  A    between atoms: C_1  and  C_2
REMARK    2  A    between atoms: C_5  and  O_24
REMARK    3  A    between atoms: C_8  and  C_23
REMARK    4  A    between atoms: C_11  and  N_13
REMARK    5  A    between atoms: N_13  and  C_14
REMARK    6  A    between atoms: C_14  and  C_16
REMARK    7  A    between atoms: C_14  and  C_17
REMARK                            x       y       z     vdW  Elec       q    Type
REMARK                         _______ _______ _______ _____ _____    ______ ____
ROOT
ATOM      1  C   UNL     1       2.615   3.597   4.221  0.00  0.00    +0.044 C 
ATOM      2  C   UNL     1       2.046   3.789   2.838  0.00  0.00    -0.047 A 
ATOM      3  C   UNL     1       1.659   5.049   2.424  0.00  0.00    +0.007 A 
ATOM      4  C   UNL     1       1.137   5.229   1.158  0.00  0.00    +0.046 A 
ATOM      5  C   UNL     1       1.002   4.144   0.305  0.00  0.00    +0.119 A 
ATOM      6  C   UNL     1       1.393   2.878   0.723  0.00  0.00    -0.016 A 
ATOM      7  C   UNL     1       1.914   2.703   1.990  0.00  0.00    -0.037 A 
ATOM      8  C   UNL     1       2.260   1.244   2.204  0.00  0.00    +0.015 C 
ATOM      9  C   UNL     1       2.304   0.628   0.790  0.00  0.00    -0.003 C 
ATOM     10  C   UNL     1       1.353   1.550  -0.003  0.00  0.00    -0.036 C 
ATOM     11  C   UNL     1       3.626   1.117   2.881  0.00  0.00    +0.012 C 
ENDROOT
BRANCH  10  12
ATOM     12  N   UNL     1      -0.012   1.005   0.008  0.00  0.00    +0.389 N 
ATOM     13  H   UNL     1       0.031  -0.092  -0.070  0.00  0.00    -0.084 HD
ATOM     14  H   UNL     1      -0.512   1.287   0.946  0.00  0.00    -0.084 HD
BRANCH  12  15
ATOM     15  C   UNL     1      -0.795   1.527  -1.120  0.00  0.00    -0.024 C 
ATOM     16  C   UNL     1      -0.534   0.673  -2.362  0.00  0.00    -0.007 C 
BRANCH  15  17
ATOM     17  C   UNL     1      -2.262   1.479  -0.777  0.00  0.00    +0.027 A 
ATOM     18  C   UNL     1      -3.138   2.347  -1.400  0.00  0.00    +0.021 A 
ATOM     19  C   UNL     1      -4.486   2.295  -1.078  0.00  0.00    +0.003 A 
ATOM     20  C   UNL     1      -4.903   1.366  -0.137  0.00  0.00    +0.020 A 
ATOM     21  C   UNL     1      -3.969   0.530   0.445  0.00  0.00    +0.111 A 
ATOM     22  N   UNL     1      -2.696   0.605   0.110  0.00  0.00    -0.262 NA
ENDBRANCH  15  17
ENDBRANCH  12  15
ENDBRANCH  10  12
BRANCH   5  23
ATOM     23  O   UNL     1       0.490   4.320  -0.941  0.00  0.00    -0.507 OA
ATOM     24  H   UNL     1       0.383   3.459  -1.618  0.00  0.00    +0.292 HD
ENDBRANCH   5  23
TORSDOF 4
