REMARK  Name = ZINC62633826
REMARK  1 active torsions:
REMARK  status: ('A' for Active; 'I' for Inactive)
REMARK    1  A    between atoms: C_13  and  C_15
REMARK                            x       y       z     vdW  Elec       q    Type
REMARK                         _______ _______ _______ _____ _____    ______ ____
ROOT
ATOM      1  C   UNL     1       2.370   1.437   0.014  0.00  0.00    +0.005 A 
ATOM      2  C   UNL     1       1.127   2.057   0.003  0.00  0.00    +0.018 A 
ATOM      3  C   UNL     1      -0.015   1.282  -0.017  0.00  0.00    +0.084 A 
ATOM      4  N   UNL     1       0.061  -0.036  -0.024  0.00  0.00    -0.350 N 
ATOM      5  C   UNL     1       1.227  -0.664  -0.014  0.00  0.00    +0.099 A 
ATOM      6  C   UNL     1       2.418   0.054   0.005  0.00  0.00    +0.042 A 
ATOM      7  N   UNL     1       1.260  -2.054  -0.022  0.00  0.00    -0.314 N 
ATOM      8  C   UNL     1       2.538  -2.770  -0.142  0.00  0.00    +0.125 C 
ATOM      9  C   UNL     1       2.671  -3.737   1.041  0.00  0.00    +0.127 C 
ATOM     10  N   UNL     1       1.430  -4.516   1.153  0.00  0.00    -0.297 N 
ATOM     11  C   UNL     1       0.152  -3.799   1.273  0.00  0.00    +0.127 C 
ATOM     12  C   UNL     1       0.020  -2.833   0.096  0.00  0.00    +0.125 C 
ATOM     13  C   UNL     1       1.462  -5.863   1.145  0.00  0.00    +0.239 C 
ATOM     14  O   UNL     1       2.522  -6.443   1.045  0.00  0.00    -0.273 OA
ATOM     15  H   UNL     1      -0.757  -0.557  -0.038  0.00  0.00    +0.166 HD
ENDROOT
BRANCH  13  16
ATOM     16  C   UNL     1       0.181  -6.649   1.261  0.00  0.00    +0.200 C 
ATOM     17  C   UNL     1      -0.513  -6.776  -0.116  0.00  0.00    +0.265 C 
ATOM     18  O   UNL     1      -1.039  -8.116  -0.065  0.00  0.00    -0.448 OA
ATOM     19  C   UNL     1      -0.273  -8.831   0.776  0.00  0.00    +0.401 C 
ATOM     20  O   UNL     1      -0.242 -10.046   0.791  0.00  0.00    -0.226 OA
ATOM     21  N   UNL     1       0.458  -8.057   1.607  0.00  0.00    -0.267 N 
ATOM     22  H   UNL     1       1.057  -8.367   2.304  0.00  0.00    +0.153 HD
ENDBRANCH  13  16
TORSDOF 1
