REMARK  Name = ZINC37270397
REMARK  6 active torsions:
REMARK  status: ('A' for Active; 'I' for Inactive)
REMARK    1  A    between atoms: C_1  and  S_2
REMARK    2  A    between atoms: S_2  and  N_5
REMARK    3  A    between atoms: C_8  and  N_11
REMARK    4  A    between atoms: N_11  and  C_12
REMARK    5  A    between atoms: N_15  and  C_18
REMARK    6  A    between atoms: C_18  and  C_19
REMARK                            x       y       z     vdW  Elec       q    Type
REMARK                         _______ _______ _______ _____ _____    ______ ____
ROOT
ATOM      1  N   UNL     1       2.260  -3.397  -3.953  0.00  0.00    +0.383 N 
ATOM      2  H   UNL     1       1.996  -4.131  -3.313  0.00  0.00    -0.085 HD
ATOM      3  H   UNL     1       1.763  -3.515  -4.823  0.00  0.00    -0.085 HD
ENDROOT
BRANCH   1   7
ATOM      4  N   UNL     1       0.795  -0.411  -1.394  0.00  0.00    -0.182 NA
ATOM      5  C   UNL     1       0.053  -0.601  -2.648  0.00  0.00    +0.107 C 
ATOM      6  C   UNL     1       0.403  -1.976  -3.225  0.00  0.00    +0.001 C 
ATOM      7  C   UNL     1       1.922  -2.092  -3.369  0.00  0.00    -0.069 C 
ATOM      8  C   UNL     1       2.579  -1.965  -1.993  0.00  0.00    +0.001 C 
ATOM      9  C   UNL     1       2.254  -0.584  -1.403  0.00  0.00    +0.107 C 
BRANCH   4  11
ATOM     10  C   UNL     1      -0.022   1.810   0.012  0.00  0.00    +0.215 C 
ATOM     11  S   UNL     1       0.002  -0.004   0.002  0.00  0.00    +0.029 S 
ATOM     12  O   UNL     1       0.835  -0.488   1.046  0.00  0.00    -0.158 OA
ATOM     13  O   UNL     1      -1.315  -0.510  -0.168  0.00  0.00    -0.158 OA
ENDBRANCH   4  11
ENDBRANCH   1   7
BRANCH   1  14
ATOM     14  C   UNL     1       3.706  -3.463  -4.203  0.00  0.00    -0.069 C 
ATOM     15  C   UNL     1       4.087  -2.437  -5.274  0.00  0.00    -0.000 C 
ATOM     16  C   UNL     1       5.583  -2.552  -5.574  0.00  0.00    +0.084 C 
ATOM     17  N   UNL     1       5.888  -3.910  -6.041  0.00  0.00    -0.292 NA
ATOM     18  C   UNL     1       5.574  -4.909  -5.011  0.00  0.00    +0.084 C 
ATOM     19  C   UNL     1       4.077  -4.864  -4.694  0.00  0.00    -0.000 C 
BRANCH  17  20
ATOM     20  C   UNL     1       7.289  -4.018  -6.470  0.00  0.00    +0.173 C 
BRANCH  20  21
ATOM     21  C   UNL     1       7.496  -5.307  -7.149  0.00  0.00    -0.090 C 
ATOM     22  C   UNL     1       7.661  -6.336  -7.691  0.00  0.00    +0.005 C 
ENDBRANCH  20  21
ENDBRANCH  17  20
ENDBRANCH   1  14
TORSDOF 5
