REMARK  Name = ZINC09466629
REMARK  10 active torsions:
REMARK  status: ('A' for Active; 'I' for Inactive)
REMARK    1  A    between atoms: C_1  and  C_2
REMARK    2  A    between atoms: C_5  and  C_7
REMARK    3  A    between atoms: C_10  and  C_13
REMARK    4  A    between atoms: C_18  and  C_20
REMARK    5  A    between atoms: C_20  and  N_55
REMARK    6  A    between atoms: C_21  and  C_23
REMARK    7  A    between atoms: C_21  and  C_24
REMARK    8  A    between atoms: C_21  and  N_55
REMARK    9  A    between atoms: C_27  and  S_30
REMARK   10  A    between atoms: S_30  and  N_33
REMARK                            x       y       z     vdW  Elec       q    Type
REMARK                         _______ _______ _______ _____ _____    ______ ____
ROOT
ATOM      1  C   UNL     1      -4.449  -1.168  -4.652  0.00  0.00    +0.104 C 
ATOM      2  N   UNL     1      -3.585  -0.945  -3.718  0.00  0.00    -0.178 NA
ATOM      3  N   UNL     1      -4.043  -1.244  -2.437  0.00  0.00    -0.186 N 
ATOM      4  C   UNL     1      -5.422  -1.749  -2.530  0.00  0.00    +0.143 C 
ATOM      5  C   UNL     1      -5.725  -1.699  -4.040  0.00  0.00    +0.090 C 
ATOM      6  C   UNL     1      -3.336  -1.100  -1.298  0.00  0.00    +0.218 C 
ATOM      7  O   UNL     1      -3.836  -1.393  -0.233  0.00  0.00    -0.276 OA
ENDROOT
BRANCH   1  12
ATOM      8  C   UNL     1      -5.242  -0.958  -9.593  0.00  0.00    +0.086 C 
ATOM      9  C   UNL     1      -4.567  -0.846  -8.250  0.00  0.00    +0.103 A 
ATOM     10  C   UNL     1      -3.310  -0.405  -8.037  0.00  0.00    +0.045 A 
ATOM     11  C   UNL     1      -3.081  -0.461  -6.650  0.00  0.00    +0.051 A 
ATOM     12  C   UNL     1      -4.226  -0.940  -6.083  0.00  0.00    +0.151 A 
ATOM     13  O   UNL     1      -5.115  -1.173  -7.069  0.00  0.00    -0.459 OA
ENDBRANCH   1  12
BRANCH   4  14
ATOM     14  C   UNL     1      -5.505  -3.163  -2.015  0.00  0.00    +0.013 A 
ATOM     15  C   UNL     1      -6.480  -3.747  -1.278  0.00  0.00    +0.013 A 
ATOM     16  C   UNL     1      -6.345  -5.075  -0.918  0.00  0.00    +0.008 A 
ATOM     17  C   UNL     1      -5.236  -5.751  -1.306  0.00  0.00    +0.045 A 
ATOM     18  S   UNL     1      -4.340  -4.501  -2.214  0.00  0.00    -0.100 S 
ENDBRANCH   4  14
BRANCH   6  19
ATOM     19  C   UNL     1      -1.924  -0.575  -1.349  0.00  0.00    +0.018 C 
BRANCH  19  20
ATOM     20  N   UNL     1      -1.381  -0.515   0.021  0.00  0.00    +0.389 N 
ATOM     21  H   UNL     1      -1.389  -1.457   0.430  0.00  0.00    -0.084 HD
ATOM     22  H   UNL     1      -1.965   0.109   0.590  0.00  0.00    -0.084 HD
BRANCH  20  23
ATOM     23  C   UNL     1       0.002  -0.004   0.002  0.00  0.00    -0.043 C 
ATOM     24  C   UNL     1      -0.019   1.526   0.010  0.00  0.00    -0.009 C 
BRANCH  23  25
ATOM     25  C   UNL     1       0.731  -0.503   1.223  0.00  0.00    -0.062 A 
ATOM     26  C   UNL     1       0.084  -0.548   2.444  0.00  0.00    +0.004 A 
ATOM     27  C   UNL     1       0.751  -1.010   3.563  0.00  0.00    +0.029 A 
ATOM     28  C   UNL     1       2.068  -1.419   3.463  0.00  0.00    +0.105 A 
ATOM     29  C   UNL     1       2.717  -1.369   2.243  0.00  0.00    +0.029 A 
ATOM     30  C   UNL     1       2.048  -0.911   1.123  0.00  0.00    +0.004 A 
BRANCH  28  31
ATOM     31  S   UNL     1       2.920  -2.002   4.890  0.00  0.00    +0.056 S 
ATOM     32  O   UNL     1       1.927  -2.464   5.796  0.00  0.00    -0.153 OA
ATOM     33  O   UNL     1       3.972  -2.837   4.423  0.00  0.00    -0.153 OA
BRANCH  31  34
ATOM     34  N   UNL     1       3.638  -0.691   5.603  0.00  0.00    -0.204 NA
ATOM     35  H   UNL     1       3.535   0.190   5.211  0.00  0.00    +0.144 HD
ATOM     36  H   UNL     1       4.160  -0.804   6.412  0.00  0.00    +0.144 HD
ENDBRANCH  31  34
ENDBRANCH  28  31
ENDBRANCH  23  25
ENDBRANCH  20  23
ENDBRANCH  19  20
ENDBRANCH   6  19
TORSDOF 8
