REMARK  Name = ZINC20076218
REMARK  6 active torsions:
REMARK  status: ('A' for Active; 'I' for Inactive)
REMARK    1  A    between atoms: C_1  and  C_2
REMARK    2  A    between atoms: C_2  and  C_20
REMARK    3  A    between atoms: C_8  and  O_11
REMARK    4  A    between atoms: O_11  and  C_12
REMARK    5  A    between atoms: C_17  and  C_18
REMARK    6  A    between atoms: C_18  and  N_19
REMARK                            x       y       z     vdW  Elec       q    Type
REMARK                         _______ _______ _______ _____ _____    ______ ____
ROOT
ATOM      1  O   UNL     1       0.908   4.131   0.771  0.00  0.00    -0.452 OA
ENDROOT
BRANCH   1   9
ATOM      2  C   UNL     1      -0.066  -0.548   1.369  0.00  0.00    +0.056 C 
ATOM      3  C   UNL     1      -0.046   0.017  -0.052  0.00  0.00    +0.109 C 
ATOM      4  C   UNL     1       1.292  -0.313  -0.755  0.00  0.00    +0.086 C 
ATOM      5  C   UNL     1       2.119   0.921  -0.450  0.00  0.00    +0.002 A 
ATOM      6  C   UNL     1       3.472   1.170  -0.530  0.00  0.00    +0.007 A 
ATOM      7  C   UNL     1       3.971   2.411  -0.175  0.00  0.00    +0.004 A 
ATOM      8  C   UNL     1       3.109   3.399   0.261  0.00  0.00    +0.050 A 
ATOM      9  C   UNL     1       1.749   3.154   0.340  0.00  0.00    +0.170 A 
ATOM     10  C   UNL     1       1.239   1.904  -0.021  0.00  0.00    +0.167 A 
ATOM     11  O   UNL     1      -0.046   1.455  -0.028  0.00  0.00    -0.482 OA
ATOM     12  C   UNL     1      -1.230  -0.512  -0.864  0.00  0.00    +0.056 C 
ENDBRANCH   1   9
BRANCH   1  13
ATOM     13  C   UNL     1       0.496   4.094   2.066  0.00  0.00    +0.130 A 
ATOM     14  C   UNL     1       1.023   3.150   2.936  0.00  0.00    +0.046 A 
ATOM     15  C   UNL     1       0.607   3.118   4.252  0.00  0.00    +0.004 A 
ATOM     16  C   UNL     1      -0.341   4.019   4.701  0.00  0.00    +0.000 A 
ATOM     17  C   UNL     1      -0.871   4.957   3.835  0.00  0.00    +0.005 A 
ATOM     18  C   UNL     1      -0.455   4.997   2.518  0.00  0.00    -0.023 A 
BRANCH  18  19
ATOM     19  C   UNL     1      -1.033   6.020   1.575  0.00  0.00    -0.047 C 
BRANCH  19  20
ATOM     20  N   UNL     1      -2.075   5.393   0.751  0.00  0.00    +0.381 N 
ATOM     21  H   UNL     1      -2.497   6.140   0.062  0.00  0.00    -0.090 HD
ATOM     22  H   UNL     1      -2.871   5.002   1.401  0.00  0.00    -0.090 HD
ATOM     23  H   UNL     1      -1.636   4.567   0.172  0.00  0.00    -0.090 HD
ENDBRANCH  19  20
ENDBRANCH  18  19
ENDBRANCH   1  13
TORSDOF 4
