REMARK  Name = ZINC39604934
REMARK  4 active torsions:
REMARK  status: ('A' for Active; 'I' for Inactive)
REMARK    1  A    between atoms: C_3  and  C_7
REMARK    2  A    between atoms: C_7  and  N_8
REMARK    3  A    between atoms: C_9  and  C_11
REMARK    4  A    between atoms: C_22  and  C_24
REMARK                            x       y       z     vdW  Elec       q    Type
REMARK                         _______ _______ _______ _____ _____    ______ ____
ROOT
ATOM      1  C   UNL     1       5.868  -3.099   0.687  0.00  0.00    +0.100 C 
ATOM      2  C   UNL     1       6.200  -2.531   2.085  0.00  0.00    +0.121 C 
ATOM      3  N   UNL     1       7.511  -3.128   2.430  0.00  0.00    -0.300 N 
ATOM      4  C   UNL     1       8.271  -3.110   1.158  0.00  0.00    +0.115 C 
ATOM      5  C   UNL     1       7.230  -3.477   0.081  0.00  0.00    -0.004 C 
ATOM      6  C   UNL     1       7.484  -2.674  -1.192  0.00  0.00    -0.010 C 
ATOM      7  C   UNL     1       8.816  -3.109  -1.807  0.00  0.00    -0.082 C 
ATOM      8  N   UNL     1       8.772  -4.545  -2.111  0.00  0.00    +0.379 N 
ATOM      9  C   UNL     1       8.622  -5.314  -0.870  0.00  0.00    -0.082 C 
ATOM     10  C   UNL     1       7.280  -4.973  -0.214  0.00  0.00    -0.010 C 
ATOM     11  C   UNL     1       7.921  -3.585   3.631  0.00  0.00    +0.219 C 
ATOM     12  O   UNL     1       7.150  -3.605   4.567  0.00  0.00    -0.275 OA
ATOM     13  H   UNL     1       7.990  -4.735  -2.719  0.00  0.00    -0.086 HD
ATOM     14  H   UNL     1       9.628  -4.816  -2.571  0.00  0.00    -0.086 HD
ENDROOT
BRANCH  11  15
ATOM     15  C   UNL     1       9.336  -4.071   3.809  0.00  0.00    +0.079 C 
ATOM     16  C   UNL     1       9.394  -5.076   4.966  0.00  0.00    +0.017 C 
ATOM     17  C   UNL     1      10.798  -5.684   5.009  0.00  0.00    +0.027 C 
ATOM     18  C   UNL     1      11.833  -4.598   4.965  0.00  0.00    -0.031 C 
ATOM     19  C   UNL     1      11.594  -3.384   4.586  0.00  0.00    -0.030 C 
ATOM     20  C   UNL     1      10.248  -2.888   4.143  0.00  0.00    +0.039 C 
ENDBRANCH  11  15
BRANCH   1  22
ATOM     21  N   UNL     1       4.338  -2.420  -1.134  0.00  0.00    -0.313 N 
ATOM     22  C   UNL     1       5.191  -2.050  -0.158  0.00  0.00    +0.218 C 
ATOM     23  O   UNL     1       5.413  -0.875   0.041  0.00  0.00    -0.275 OA
ATOM     24  H   UNL     1       4.161  -3.360  -1.293  0.00  0.00    +0.149 HD
BRANCH  21  25
ATOM     25  C   UNL     1       3.680  -1.401  -1.955  0.00  0.00    +0.135 C 
BRANCH  25  28
ATOM     26  C   UNL     1       1.748  -1.835  -5.148  0.00  0.00    +0.031 C 
ATOM     27  C   UNL     1       2.060  -1.026  -3.866  0.00  0.00    +0.035 C 
ATOM     28  C   UNL     1       2.771  -2.081  -2.981  0.00  0.00    +0.135 C 
ATOM     29  O   UNL     1       3.550  -2.844  -3.928  0.00  0.00    -0.375 OA
ATOM     30  C   UNL     1       2.736  -3.016  -5.099  0.00  0.00    +0.160 C 
ENDBRANCH  25  28
ENDBRANCH  21  25
ENDBRANCH   1  22
TORSDOF 4
