REMARK  Name = ZINC33320276
REMARK  8 active torsions:
REMARK  status: ('A' for Active; 'I' for Inactive)
REMARK    1  A    between atoms: C_1  and  C_2
REMARK    2  A    between atoms: C_4  and  O_9
REMARK    3  A    between atoms: O_9  and  C_10
REMARK    4  A    between atoms: C_10  and  C_11
REMARK    5  A    between atoms: N_13  and  N_14
REMARK    6  A    between atoms: C_15  and  C_16
REMARK    7  A    between atoms: C_15  and  C_17
REMARK    8  A    between atoms: C_20  and  N_23
REMARK                            x       y       z     vdW  Elec       q    Type
REMARK                         _______ _______ _______ _____ _____    ______ ____
ROOT
ATOM      1  C   UNL     1      -1.732  -5.211  -4.024  0.00  0.00    +0.270 C 
ATOM      2  O   UNL     1      -1.967  -4.590  -5.040  0.00  0.00    -0.270 OA
ATOM      3  N   UNL     1      -0.972  -6.323  -4.075  0.00  0.00    -0.204 N 
ATOM      4  H   UNL     1      -0.784  -6.819  -3.263  0.00  0.00    +0.177 HD
ENDROOT
BRANCH   3   5
ATOM      5  N   UNL     1      -0.454  -6.761  -5.301  0.00  0.00    -0.184 NA
ATOM      6  C   UNL     1       0.180  -7.892  -5.370  0.00  0.00    +0.063 C 
ATOM      7  C   UNL     1       0.897  -8.278  -6.638  0.00  0.00    +0.068 C 
BRANCH   6   8
ATOM      8  C   UNL     1       0.199  -8.799  -4.207  0.00  0.00    -0.002 A 
ATOM      9  C   UNL     1      -0.934  -8.923  -3.398  0.00  0.00    +0.011 A 
ATOM     10  C   UNL     1      -0.913  -9.772  -2.313  0.00  0.00    +0.023 A 
ATOM     11  C   UNL     1       0.233 -10.504  -2.023  0.00  0.00    +0.025 A 
ATOM     12  C   UNL     1       1.363 -10.382  -2.826  0.00  0.00    +0.023 A 
ATOM     13  C   UNL     1       1.347  -9.540  -3.916  0.00  0.00    +0.011 A 
BRANCH  11  14
ATOM     14  N   UNL     1       0.251 -11.362  -0.923  0.00  0.00    -0.358 N 
ATOM     15  H   UNL     1      -0.536 -11.447  -0.362  0.00  0.00    +0.142 HD
ATOM     16  H   UNL     1       1.050 -11.873  -0.720  0.00  0.00    +0.142 HD
ENDBRANCH  11  14
ENDBRANCH   6   8
ENDBRANCH   3   5
BRANCH   1  17
ATOM     17  C   UNL     1      -2.289  -4.738  -2.706  0.00  0.00    +0.326 C 
BRANCH  17  18
ATOM     18  O   UNL     1      -3.054  -3.549  -2.911  0.00  0.00    -0.483 OA
BRANCH  18  22
ATOM     19  C   UNL     1      -5.796  -0.012  -0.963  0.00  0.00    +0.045 C 
ATOM     20  C   UNL     1      -4.973  -1.267  -0.826  0.00  0.00    -0.029 A 
ATOM     21  C   UNL     1      -4.388  -1.834  -1.942  0.00  0.00    +0.050 A 
ATOM     22  C   UNL     1      -3.631  -2.990  -1.815  0.00  0.00    +0.122 A 
ATOM     23  C   UNL     1      -3.463  -3.574  -0.567  0.00  0.00    +0.047 A 
ATOM     24  C   UNL     1      -4.050  -3.004   0.545  0.00  0.00    +0.024 A 
ATOM     25  C   UNL     1      -4.800  -1.848   0.418  0.00  0.00    +0.044 A 
ATOM     26 CL   UNL     1      -5.531  -1.129   1.819  0.00  0.00    -0.083 Cl
ENDBRANCH  18  22
ENDBRANCH  17  18
ENDBRANCH   1  17
TORSDOF 6
