REMARK  Name = ZINC64498125
REMARK  7 active torsions:
REMARK  status: ('A' for Active; 'I' for Inactive)
REMARK    1  A    between atoms: C_1  and  S_2
REMARK    2  A    between atoms: S_2  and  N_5
REMARK    3  A    between atoms: N_5  and  C_6
REMARK    4  A    between atoms: C_11  and  C_12
REMARK    5  A    between atoms: N_14  and  N_15
REMARK    6  A    between atoms: C_16  and  C_18
REMARK    7  A    between atoms: C_21  and  C_24
REMARK                            x       y       z     vdW  Elec       q    Type
REMARK                         _______ _______ _______ _____ _____    ______ ____
ROOT
ATOM      1  C   UNL     1       2.163  -1.047  -3.805  0.00  0.00    +0.262 C 
ATOM      2  O   UNL     1       1.994   0.125  -3.529  0.00  0.00    -0.269 OA
ATOM      3  N   UNL     1       2.807  -1.387  -4.939  0.00  0.00    -0.230 N 
ATOM      4  H   UNL     1       2.941  -2.322  -5.159  0.00  0.00    +0.173 HD
ENDROOT
BRANCH   1  10
ATOM      5  C   UNL     1       0.991  -1.748  -1.716  0.00  0.00    +0.086 A 
ATOM      6  C   UNL     1       0.519  -2.747  -0.873  0.00  0.00    +0.029 A 
ATOM      7  C   UNL     1       0.715  -4.074  -1.195  0.00  0.00    +0.022 A 
ATOM      8  C   UNL     1       1.383  -4.422  -2.359  0.00  0.00    +0.042 A 
ATOM      9  C   UNL     1       1.859  -3.446  -3.208  0.00  0.00    +0.035 A 
ATOM     10  C   UNL     1       1.662  -2.097  -2.898  0.00  0.00    +0.064 A 
ATOM     11 CL   UNL     1       1.622  -6.097  -2.750  0.00  0.00    -0.084 Cl
BRANCH   5  12
ATOM     12  N   UNL     1       0.795  -0.411  -1.394  0.00  0.00    -0.102 NA
BRANCH  12  14
ATOM     13  C   UNL     1      -0.022   1.810   0.012  0.00  0.00    +0.220 C 
ATOM     14  S   UNL     1       0.002  -0.004   0.002  0.00  0.00    +0.059 S 
ATOM     15  O   UNL     1       0.835  -0.488   1.046  0.00  0.00    -0.154 OA
ATOM     16  O   UNL     1      -1.315  -0.510  -0.168  0.00  0.00    -0.154 OA
ENDBRANCH  12  14
ENDBRANCH   5  12
ENDBRANCH   1  10
BRANCH   3  17
ATOM     17  N   UNL     1       3.282  -0.390  -5.800  0.00  0.00    -0.230 N 
ATOM     18  C   UNL     1       3.926  -0.729  -6.934  0.00  0.00    +0.260 C 
ATOM     19  O   UNL     1       4.095  -1.901  -7.210  0.00  0.00    -0.269 OA
ATOM     20  H   UNL     1       3.148   0.545  -5.580  0.00  0.00    +0.173 HD
BRANCH  18  21
ATOM     21  C   UNL     1       4.428   0.324  -7.843  0.00  0.00    +0.038 A 
ATOM     22  C   UNL     1       4.240   1.670  -7.524  0.00  0.00    +0.014 A 
ATOM     23  C   UNL     1       4.707   2.651  -8.370  0.00  0.00    +0.019 A 
ATOM     24  C   UNL     1       5.369   2.299  -9.549  0.00  0.00    +0.052 A 
ATOM     25  C   UNL     1       5.558   0.952  -9.868  0.00  0.00    +0.019 A 
ATOM     26  C   UNL     1       5.095  -0.028  -9.018  0.00  0.00    +0.014 A 
BRANCH  24  27
ATOM     27  C   UNL     1       5.855   3.318 -10.429  0.00  0.00    +0.099 C 
ATOM     28  N   UNL     1       6.240   4.127 -11.127  0.00  0.00    -0.191 NA
ENDBRANCH  24  27
ENDBRANCH  18  21
ENDBRANCH   3  17
TORSDOF 6
