REMARK  Name = ZINC57845605
REMARK  7 active torsions:
REMARK  status: ('A' for Active; 'I' for Inactive)
REMARK    1  A    between atoms: C_1  and  C_2
REMARK    2  A    between atoms: C_2  and  C_4
REMARK    3  A    between atoms: C_2  and  N_6
REMARK    4  A    between atoms: C_4  and  N_5
REMARK    5  A    between atoms: C_9  and  C_13
REMARK    6  A    between atoms: C_9  and  C_14
REMARK    7  A    between atoms: C_17  and  N_20
REMARK                            x       y       z     vdW  Elec       q    Type
REMARK                         _______ _______ _______ _____ _____    ______ ____
ROOT
ATOM      1  N   UNL     1      -1.372  -0.511   0.012  0.00  0.00    -0.223 N 
ATOM      2  C   UNL     1      -1.897  -1.295  -0.950  0.00  0.00    +0.251 C 
ATOM      3  O   UNL     1      -1.342  -1.699  -1.949  0.00  0.00    -0.272 OA
ATOM      4  C   UNL     1      -3.325  -1.569  -0.522  0.00  0.00    +0.135 C 
ATOM      5  N   UNL     1      -3.451  -0.838   0.751  0.00  0.00    -0.281 N 
ATOM      6  C   UNL     1      -2.260  -0.258   0.981  0.00  0.00    +0.310 C 
ATOM      7  O   UNL     1      -2.017   0.424   1.958  0.00  0.00    -0.252 OA
ATOM      8  C   UNL     1      -3.546  -3.067  -0.306  0.00  0.00    +0.047 C 
ATOM      9  H   UNL     1      -4.239  -0.788   1.315  0.00  0.00    +0.152 HD
ENDROOT
BRANCH   4  10
ATOM     10  C   UNL     1      -4.296  -1.030  -1.541  0.00  0.00    -0.015 A 
ATOM     11  C   UNL     1      -3.938  -0.973  -2.874  0.00  0.00    +0.008 A 
ATOM     12  C   UNL     1      -4.829  -0.478  -3.809  0.00  0.00    +0.033 A 
ATOM     13  C   UNL     1      -6.078  -0.042  -3.410  0.00  0.00    +0.126 A 
ATOM     14  C   UNL     1      -6.437  -0.100  -2.076  0.00  0.00    +0.033 A 
ATOM     15  C   UNL     1      -5.548  -0.598  -1.142  0.00  0.00    +0.008 A 
BRANCH  13  16
ATOM     16  N   UNL     1      -7.031   0.489  -4.410  0.00  0.00    +0.056 N 
ATOM     17  O   UNL     1      -6.717   0.540  -5.577  0.00  0.00    -0.126 OA
ATOM     18  O   UNL     1      -8.124   0.871  -4.061  0.00  0.00    -0.126 OA
ENDBRANCH  13  16
ENDBRANCH   4  10
BRANCH   1  20
ATOM     19  C   UNL     1      -0.019   1.526   0.010  0.00  0.00    +0.026 C 
ATOM     20  C   UNL     1       0.002  -0.004   0.002  0.00  0.00    +0.065 C 
BRANCH  20  21
ATOM     21  C   UNL     1       0.742  -0.511   1.242  0.00  0.00    -0.063 C 
BRANCH  21  22
ATOM     22  N   UNL     1       0.659  -1.976   1.296  0.00  0.00    +0.379 N 
ATOM     23  H   UNL     1       1.147  -2.311   2.114  0.00  0.00    -0.090 HD
ATOM     24  H   UNL     1      -0.309  -2.257   1.345  0.00  0.00    -0.090 HD
ATOM     25  H   UNL     1       1.082  -2.369   0.468  0.00  0.00    -0.090 HD
ENDBRANCH  21  22
ENDBRANCH  20  21
ENDBRANCH   1  20
TORSDOF 5
