REMARK  Name = ZINC40824975
REMARK  6 active torsions:
REMARK  status: ('A' for Active; 'I' for Inactive)
REMARK    1  A    between atoms: C_1  and  C_2
REMARK    2  A    between atoms: C_2  and  N_3
REMARK    3  A    between atoms: N_3  and  C_4
REMARK    4  A    between atoms: C_10  and  C_12
REMARK    5  A    between atoms: C_13  and  C_26
REMARK    6  A    between atoms: N_21  and  N_22
REMARK                            x       y       z     vdW  Elec       q    Type
REMARK                         _______ _______ _______ _____ _____    ______ ____
ROOT
ATOM      1  C   UNL     1      -1.033  -0.585   2.394  0.00  0.00    +0.193 A 
ATOM      2  C   UNL     1      -1.450  -0.819   3.675  0.00  0.00    +0.009 A 
ATOM      3  C   UNL     1      -0.398  -0.417   4.508  0.00  0.00    +0.042 A 
ATOM      4  C   UNL     1       0.614   0.046   3.701  0.00  0.00    +0.115 A 
ATOM      5  O   UNL     1       0.217  -0.070   2.436  0.00  0.00    -0.454 OA
ATOM      6  C   UNL     1       1.918   0.573   4.243  0.00  0.00    +0.075 C 
ATOM      7  C   UNL     1       1.733   0.983   5.706  0.00  0.00    +0.014 C 
ATOM      8  C   UNL     1       1.125  -0.166   6.517  0.00  0.00    +0.058 C 
ATOM      9  C   UNL     1      -0.274  -0.438   5.983  0.00  0.00    +0.072 C 
ATOM     10  N   UNL     1      -1.283  -0.670   6.764  0.00  0.00    -0.175 NA
ATOM     11  C   UNL     1      -2.775  -1.393   4.105  0.00  0.00    +0.048 C 
ENDROOT
BRANCH  10  12
ATOM     12  N   UNL     1      -1.107  -0.677   8.153  0.00  0.00    -0.248 N 
ATOM     13  C   UNL     1      -2.173  -0.922   8.977  0.00  0.00    +0.187 C 
ATOM     14  N   UNL     1      -2.005  -0.928  10.299  0.00  0.00    -0.370 N 
ATOM     15  N   UNL     1      -3.377  -1.153   8.457  0.00  0.00    -0.370 N 
ATOM     16  H   UNL     1      -0.230  -0.508   8.532  0.00  0.00    +0.192 HD
ATOM     17  H   UNL     1      -1.128  -0.760  10.678  0.00  0.00    +0.159 HD
ATOM     18  H   UNL     1      -3.499  -1.149   7.495  0.00  0.00    +0.159 HD
ATOM     19  H   UNL     1      -4.133  -1.327   9.041  0.00  0.00    +0.159 HD
ATOM     20  H   UNL     1      -2.760  -1.102  10.883  0.00  0.00    +0.159 HD
ENDBRANCH  10  12
BRANCH   1  22
ATOM     21  N   UNL     1      -1.240  -0.696  -0.033  0.00  0.00    -0.265 N 
ATOM     22  C   UNL     1      -1.809  -0.854   1.179  0.00  0.00    +0.286 C 
ATOM     23  O   UNL     1      -2.967  -1.219   1.264  0.00  0.00    -0.266 OA
BRANCH  21  24
ATOM     24  C   UNL     1      -2.014  -0.821  -1.191  0.00  0.00    +0.037 A 
ATOM     25  C   UNL     1      -1.403  -0.826  -2.438  0.00  0.00    +0.023 A 
ATOM     26  C   UNL     1      -2.171  -0.950  -3.580  0.00  0.00    +0.002 A 
ATOM     27  C   UNL     1      -3.545  -1.067  -3.482  0.00  0.00    +0.000 A 
ATOM     28  C   UNL     1      -4.156  -1.062  -2.241  0.00  0.00    +0.002 A 
ATOM     29  C   UNL     1      -3.394  -0.945  -1.095  0.00  0.00    +0.023 A 
ENDBRANCH  21  24
BRANCH  21  31
ATOM     30  C   UNL     1       0.396   1.122  -0.087  0.00  0.00    +0.025 C 
ATOM     31  C   UNL     1       0.190  -0.393  -0.136  0.00  0.00    +0.111 C 
ENDBRANCH  21  31
ENDBRANCH   1  22
TORSDOF 4
