REMARK  Name = ZINC37757222
REMARK  5 active torsions:
REMARK  status: ('A' for Active; 'I' for Inactive)
REMARK    1  A    between atoms: C_8  and  N_13
REMARK    2  A    between atoms: N_13  and  C_14
REMARK    3  A    between atoms: C_14  and  C_15
REMARK    4  A    between atoms: C_15  and  S_16
REMARK    5  A    between atoms: S_16  and  N_19
REMARK                            x       y       z     vdW  Elec       q    Type
REMARK                         _______ _______ _______ _____ _____    ______ ____
ROOT
ATOM      1  C   UNL     1      -0.016   1.361   0.009  0.00  0.00    +0.001 A 
ATOM      2  C   UNL     1       1.166   2.092   0.002  0.00  0.00    +0.001 A 
ATOM      3  C   UNL     1       2.379   1.463  -0.013  0.00  0.00    +0.014 A 
ATOM      4  C   UNL     1       2.432   0.068  -0.021  0.00  0.00    +0.047 A 
ATOM      5  C   UNL     1       1.229  -0.678  -0.013  0.00  0.00    -0.010 A 
ATOM      6  C   UNL     1       0.002  -0.004   0.002  0.00  0.00    +0.009 A 
ATOM      7  C   UNL     1       1.303  -2.091  -0.021  0.00  0.00    +0.050 A 
ATOM      8  C   UNL     1       2.509  -2.706  -0.036  0.00  0.00    +0.099 A 
ATOM      9  N   UNL     1       3.686  -2.006  -0.043  0.00  0.00    -0.310 N 
ATOM     10  H   UNL     1       4.526  -2.492  -0.053  0.00  0.00    +0.170 HD
ATOM     11  C   UNL     1       3.705  -0.657  -0.036  0.00  0.00    +0.258 A 
ATOM     12  O   UNL     1       4.762  -0.053  -0.044  0.00  0.00    -0.267 OA
ENDROOT
BRANCH   8  13
ATOM     13  N   UNL     1       2.554  -4.087  -0.043  0.00  0.00    -0.329 N 
ATOM     14  H   UNL     1       1.731  -4.599  -0.038  0.00  0.00    +0.147 HD
BRANCH  13  15
ATOM     15  C   UNL     1       3.846  -4.778  -0.059  0.00  0.00    +0.127 C 
BRANCH  15  16
ATOM     16  C   UNL     1       3.616  -6.290  -0.064  0.00  0.00    +0.203 C 
BRANCH  16  17
ATOM     17  S   UNL     1       5.215  -7.146  -0.083  0.00  0.00    +0.028 S 
ATOM     18  O   UNL     1       5.874  -6.925  -1.323  0.00  0.00    -0.158 OA
ATOM     19  O   UNL     1       5.897  -6.937   1.146  0.00  0.00    -0.158 OA
BRANCH  17  20
ATOM     20  N   UNL     1       4.836  -8.758  -0.088  0.00  0.00    -0.208 NA
ATOM     21  H   UNL     1       3.907  -9.037  -0.081  0.00  0.00    +0.144 HD
ATOM     22  H   UNL     1       5.542  -9.422  -0.098  0.00  0.00    +0.144 HD
ENDBRANCH  17  20
ENDBRANCH  16  17
ENDBRANCH  15  16
ENDBRANCH  13  15
ENDBRANCH   8  13
TORSDOF 5
