REMARK  Name = ZINC37141601
REMARK  6 active torsions:
REMARK  status: ('A' for Active; 'I' for Inactive)
REMARK    1  A    between atoms: C_1  and  C_2
REMARK    2  A    between atoms: C_2  and  C_4
REMARK    3  A    between atoms: C_2  and  N_11
REMARK    4  A    between atoms: N_7  and  C_10
REMARK    5  A    between atoms: N_11  and  C_12
REMARK    6  A    between atoms: C_17  and  C_20
REMARK                            x       y       z     vdW  Elec       q    Type
REMARK                         _______ _______ _______ _____ _____    ______ ____
ROOT
ATOM      1  N   UNL     1      -1.376  -0.512   0.012  0.00  0.00    +0.383 N 
ATOM      2  H   UNL     1      -1.363  -1.518   0.090  0.00  0.00    -0.085 HD
ATOM      3  H   UNL     1      -1.873  -0.121   0.799  0.00  0.00    -0.085 HD
ENDROOT
BRANCH   1   4
ATOM      4  C   UNL     1      -2.050  -0.126  -1.234  0.00  0.00    -0.071 C 
ATOM      5  C   UNL     1      -1.371  -0.820  -2.417  0.00  0.00    -0.016 C 
ATOM      6  C   UNL     1      -1.461  -2.337  -2.238  0.00  0.00    -0.001 C 
ATOM      7  C   UNL     1      -2.930  -2.757  -2.175  0.00  0.00    +0.012 C 
ATOM      8  C   UNL     1      -3.609  -2.063  -0.992  0.00  0.00    +0.092 C 
ATOM      9  C   UNL     1      -3.520  -0.547  -1.171  0.00  0.00    -0.004 C 
BRANCH   8  10
ATOM     10  C   UNL     1      -5.079  -2.484  -0.929  0.00  0.00    +0.393 C 
ATOM     11  F   UNL     1      -5.160  -3.871  -0.765  0.00  0.00    -0.170 F 
ATOM     12  F   UNL     1      -5.699  -1.849   0.153  0.00  0.00    -0.170 F 
ATOM     13  F   UNL     1      -5.721  -2.116  -2.116  0.00  0.00    -0.170 F 
ENDBRANCH   8  10
ENDBRANCH   1   4
BRANCH   1  15
ATOM     14  C   UNL     1      -0.019   1.526   0.010  0.00  0.00    -0.013 C 
ATOM     15  C   UNL     1       0.002  -0.004   0.002  0.00  0.00    -0.072 C 
BRANCH  15  16
ATOM     16  C   UNL     1       0.742  -0.511   1.242  0.00  0.00    -0.029 C 
ATOM     17  C   UNL     1       0.032  -0.010   2.502  0.00  0.00    -0.017 C 
ATOM     18  C   UNL     1       0.822  -0.453   3.736  0.00  0.00    -0.079 C 
ATOM     19  N   UNL     1       2.177   0.106   3.681  0.00  0.00    +0.378 N 
ATOM     20  C   UNL     1       2.889  -0.426   2.513  0.00  0.00    -0.079 C 
ATOM     21  C   UNL     1       2.179   0.018   1.232  0.00  0.00    -0.017 C 
ATOM     22  C   UNL     1       2.906  -0.257   4.904  0.00  0.00    -0.096 C 
ATOM     23  H   UNL     1       2.123   1.112   3.611  0.00  0.00    -0.082 HD
ENDBRANCH  15  16
ENDBRANCH   1  15
TORSDOF 4
