REMARK  Name = ZINC50790665
REMARK  6 active torsions:
REMARK  status: ('A' for Active; 'I' for Inactive)
REMARK    1  A    between atoms: C_1  and  C_2
REMARK    2  A    between atoms: C_2  and  C_3
REMARK    3  A    between atoms: C_4  and  C_19
REMARK    4  A    between atoms: C_9  and  C_11
REMARK    5  A    between atoms: C_13  and  N_17
REMARK    6  A    between atoms: N_17  and  C_18
REMARK                            x       y       z     vdW  Elec       q    Type
REMARK                         _______ _______ _______ _____ _____    ______ ____
ROOT
ATOM      1  C   UNL     1      -1.412  -0.526   0.013  0.00  0.00    +0.053 A 
ATOM      2  C   UNL     1      -2.067  -0.772   1.174  0.00  0.00    +0.011 A 
ATOM      3  S   UNL     1      -3.639  -1.349   0.553  0.00  0.00    -0.057 S 
ATOM      4  C   UNL     1      -3.302  -1.218  -1.090  0.00  0.00    +0.165 A 
ATOM      5  N   UNL     1      -2.069  -0.758  -1.108  0.00  0.00    -0.229 NA
ATOM      6  N   UNL     1      -4.127  -1.517  -2.167  0.00  0.00    -0.259 N 
ATOM      7  C   UNL     1      -5.375  -1.978  -1.951  0.00  0.00    +0.268 C 
ATOM      8  O   UNL     1      -5.779  -2.131  -0.815  0.00  0.00    -0.268 OA
ATOM      9  C   UNL     1      -1.597  -0.606   2.596  0.00  0.00    +0.053 C 
ATOM     10  H   UNL     1      -3.805  -1.395  -3.073  0.00  0.00    +0.157 HD
ENDROOT
BRANCH   7  11
ATOM     11  C   UNL     1      -6.255  -2.298  -3.099  0.00  0.00    +0.127 A 
ATOM     12  C   UNL     1      -7.543  -2.768  -2.870  0.00  0.00    +0.056 A 
ATOM     13  C   UNL     1      -8.358  -3.064  -3.962  0.00  0.00    +0.031 A 
ATOM     14  C   UNL     1      -7.843  -2.875  -5.243  0.00  0.00    +0.042 A 
ATOM     15  C   UNL     1      -6.551  -2.404  -5.389  0.00  0.00    +0.113 A 
ATOM     16  N   UNL     1      -5.807  -2.128  -4.339  0.00  0.00    -0.250 NA
BRANCH  13  17
ATOM     17  N   UNL     1      -9.654  -3.537  -3.777  0.00  0.00    -0.347 N 
ATOM     18  C   UNL     1     -10.495  -3.842  -4.937  0.00  0.00    +0.125 C 
ATOM     19  H   UNL     1     -10.001  -3.664  -2.880  0.00  0.00    +0.146 HD
ENDBRANCH  13  17
ENDBRANCH   7  11
BRANCH   1  21
ATOM     20  C   UNL     1      -0.019   1.526   0.010  0.00  0.00    +0.010 C 
ATOM     21  C   UNL     1       0.002  -0.004   0.002  0.00  0.00    +0.053 C 
ENDBRANCH   1  21
TORSDOF 3
