REMARK  Name = ZINC06301616
REMARK  6 active torsions:
REMARK  status: ('A' for Active; 'I' for Inactive)
REMARK    1  A    between atoms: C_1  and  C_2
REMARK    2  A    between atoms: C_4  and  C_35
REMARK    3  A    between atoms: C_7  and  C_14
REMARK    4  A    between atoms: C_14  and  C_16
REMARK    5  A    between atoms: C_14  and  N_64
REMARK    6  A    between atoms: N_20  and  C_21
REMARK                            x       y       z     vdW  Elec       q    Type
REMARK                         _______ _______ _______ _____ _____    ______ ____
ROOT
ATOM      1  C   UNL     1       4.873   4.287  -0.021  0.00  0.00    +0.039 C 
ENDROOT
BRANCH   1   8
ATOM      2  C   UNL     1      -1.297  -0.767   0.011  0.00  0.00    +0.044 C 
ATOM      3  C   UNL     1       0.002  -0.004   0.002  0.00  0.00    -0.048 A 
ATOM      4  C   UNL     1       1.205  -0.697  -0.013  0.00  0.00    +0.007 A 
ATOM      5  C   UNL     1       2.394  -0.024  -0.021  0.00  0.00    -0.041 A 
ATOM      6  C   UNL     1       2.400   1.375  -0.014  0.00  0.00    +0.002 A 
ATOM      7  C   UNL     1       3.655   2.127  -0.023  0.00  0.00    +0.018 A 
ATOM      8  C   UNL     1       3.599   3.482  -0.014  0.00  0.00    +0.011 A 
ATOM      9  C   UNL     1       2.351   4.141   0.001  0.00  0.00    +0.251 A 
ATOM     10  O   UNL     1       2.323   5.360   0.008  0.00  0.00    -0.268 OA
ATOM     11  N   UNL     1       1.193   3.459   0.009  0.00  0.00    -0.322 N 
ATOM     12  H   UNL     1       0.353   3.944   0.019  0.00  0.00    +0.169 HD
ATOM     13  C   UNL     1       1.182   2.080   0.002  0.00  0.00    +0.050 A 
ATOM     14  C   UNL     1      -0.017   1.374   0.010  0.00  0.00    +0.029 A 
ATOM     15  C   UNL     1       3.695  -0.785  -0.038  0.00  0.00    +0.044 C 
ENDBRANCH   1   8
BRANCH   1  25
ATOM     16  C   UNL     1       6.154   5.933   1.213  0.00  0.00    -0.072 C 
ATOM     17  C   UNL     1       5.975   7.120   2.159  0.00  0.00    +0.017 C 
ATOM     18  C   UNL     1       5.341   6.661   3.447  0.00  0.00    -0.048 A 
ATOM     19  C   UNL     1       5.417   7.492   4.555  0.00  0.00    +0.004 A 
ATOM     20  C   UNL     1       4.847   7.111   5.753  0.00  0.00    +0.000 A 
ATOM     21  C   UNL     1       4.197   5.894   5.849  0.00  0.00    +0.000 A 
ATOM     22  C   UNL     1       4.122   5.066   4.747  0.00  0.00    +0.002 A 
ATOM     23  C   UNL     1       4.697   5.446   3.543  0.00  0.00    -0.061 A 
ATOM     24  C   UNL     1       4.596   4.505   2.372  0.00  0.00    -0.041 C 
ATOM     25  N   UNL     1       4.858   5.232   1.118  0.00  0.00    +0.392 N 
ATOM     26  H   UNL     1       4.113   5.923   0.969  0.00  0.00    -0.080 HD
ENDBRANCH   1  25
BRANCH   1  27
ATOM     27  C   UNL     1       4.965   5.070  -1.306  0.00  0.00    +0.143 A 
ATOM     28  N   UNL     1       4.288   6.149  -1.615  0.00  0.00    -0.115 NA
ATOM     29  N   UNL     1       4.647   6.520  -2.795  0.00  0.00    -0.023 NA
ATOM     30  N   UNL     1       5.537   5.706  -3.247  0.00  0.00    -0.044 NA
ATOM     31  N   UNL     1       5.763   4.801  -2.356  0.00  0.00    -0.227 N 
BRANCH  31  32
ATOM     32  C   UNL     1       6.710   3.688  -2.467  0.00  0.00    +0.111 C 
ATOM     33  C   UNL     1       8.133   4.227  -2.720  0.00  0.00    +0.027 C 
ATOM     34  C   UNL     1       8.757   3.204  -3.701  0.00  0.00    +0.002 C 
ATOM     35  C   UNL     1       7.566   2.845  -4.625  0.00  0.00    +0.002 C 
ATOM     36  C   UNL     1       6.350   2.809  -3.678  0.00  0.00    +0.027 C 
ENDBRANCH  31  32
ENDBRANCH   1  27
TORSDOF 4
