REMARK  Name = ZINC41154938
REMARK  4 active torsions:
REMARK  status: ('A' for Active; 'I' for Inactive)
REMARK    1  A    between atoms: C_1  and  C_2
REMARK    2  A    between atoms: C_7  and  C_9
REMARK    3  A    between atoms: C_7  and  N_21
REMARK    4  A    between atoms: C_11  and  C_14
REMARK                            x       y       z     vdW  Elec       q    Type
REMARK                         _______ _______ _______ _____ _____    ______ ____
ROOT
ATOM      1  C   UNL     1       1.492  -2.540   2.454  0.00  0.00    +0.161 A 
ATOM      2  N   UNL     1       1.783  -3.817   2.714  0.00  0.00    -0.193 NA
ATOM      3  C   UNL     1       2.422  -3.908   3.858  0.00  0.00    +0.258 A 
ATOM      4  O   UNL     1       2.554  -2.667   4.360  0.00  0.00    -0.333 OA
ATOM      5  N   UNL     1       1.944  -1.794   3.422  0.00  0.00    -0.062 NA
ENDROOT
BRANCH   1  11
ATOM      6  C   UNL     1      -0.019   1.526   0.010  0.00  0.00    +0.007 C 
ATOM      7  C   UNL     1       0.002  -0.004   0.002  0.00  0.00    -0.015 C 
ATOM      8  C   UNL     1      -1.433  -0.534   0.013  0.00  0.00    +0.003 C 
ATOM      9  C   UNL     1      -1.413  -2.063   0.004  0.00  0.00    -0.001 C 
ATOM     10  C   UNL     1      -0.673  -2.570   1.244  0.00  0.00    -0.005 C 
ATOM     11  C   UNL     1       0.763  -2.041   1.233  0.00  0.00    -0.006 C 
ATOM     12  C   UNL     1       0.742  -0.511   1.242  0.00  0.00    -0.002 C 
BRANCH  11  13
ATOM     13  N   UNL     1       1.450  -2.514   0.025  0.00  0.00    +0.387 N 
ATOM     14  H   UNL     1       0.962  -2.180  -0.793  0.00  0.00    -0.089 HD
ATOM     15  H   UNL     1       2.397  -2.165   0.017  0.00  0.00    -0.089 HD
ATOM     16  H   UNL     1       1.464  -3.523   0.019  0.00  0.00    -0.089 HD
ENDBRANCH  11  13
ENDBRANCH   1  11
BRANCH   3  17
ATOM     17  C   UNL     1       2.910  -5.154   4.484  0.00  0.00    +0.042 A 
ATOM     18  C   UNL     1       2.710  -6.382   3.849  0.00  0.00    +0.013 A 
ATOM     19  C   UNL     1       3.168  -7.543   4.438  0.00  0.00    +0.004 A 
ATOM     20  C   UNL     1       3.825  -7.494   5.654  0.00  0.00    +0.038 A 
ATOM     21  C   UNL     1       4.027  -6.279   6.290  0.00  0.00    +0.124 A 
ATOM     22  C   UNL     1       3.578  -5.109   5.708  0.00  0.00    +0.051 A 
ATOM     23  F   UNL     1       4.668  -6.239   7.479  0.00  0.00    -0.205 F 
ENDBRANCH   3  17
TORSDOF 3
