REMARK  Name = ZINC10153790
REMARK  12 active torsions:
REMARK  status: ('A' for Active; 'I' for Inactive)
REMARK    1  A    between atoms: C_1  and  C_2
REMARK    2  A    between atoms: C_5  and  O_9
REMARK    3  A    between atoms: C_7  and  C_8
REMARK    4  A    between atoms: O_9  and  C_10
REMARK    5  A    between atoms: C_10  and  C_12
REMARK    6  A    between atoms: C_10  and  C_13
REMARK    7  A    between atoms: N_15  and  N_16
REMARK    8  A    between atoms: N_16  and  C_17
REMARK    9  A    between atoms: C_17  and  N_19
REMARK   10  A    between atoms: C_20  and  C_22
REMARK   11  A    between atoms: C_24  and  N_31
REMARK   12  A    between atoms: C_26  and  N_28
REMARK                            x       y       z     vdW  Elec       q    Type
REMARK                         _______ _______ _______ _____ _____    ______ ____
ROOT
ATOM      1  C   UNL     1      -2.034  -8.792  -3.156  0.00  0.00    +0.153 C 
ATOM      2  S   UNL     1      -2.929 -10.242  -2.988  0.00  0.00    -0.017 S 
ENDROOT
BRANCH   1   3
ATOM      3  N   UNL     1      -1.561  -8.429  -4.365  0.00  0.00    -0.263 N 
ATOM      4  C   UNL     1      -1.792  -9.207  -5.441  0.00  0.00    +0.250 C 
ATOM      5  O   UNL     1      -2.427 -10.236  -5.321  0.00  0.00    -0.270 OA
ATOM      6  H   UNL     1      -1.054  -7.607  -4.461  0.00  0.00    +0.157 HD
BRANCH   4   7
ATOM      7  C   UNL     1      -1.273  -8.809  -6.766  0.00  0.00    +0.041 A 
ATOM      8  C   UNL     1      -0.538  -7.631  -6.906  0.00  0.00    +0.046 A 
ATOM      9  C   UNL     1      -0.056  -7.266  -8.146  0.00  0.00    +0.129 A 
ATOM     10  C   UNL     1      -0.300  -8.064  -9.249  0.00  0.00    +0.065 A 
ATOM     11  C   UNL     1      -1.028  -9.234  -9.117  0.00  0.00    +0.129 A 
ATOM     12  C   UNL     1      -1.511  -9.614  -7.882  0.00  0.00    +0.046 A 
BRANCH  11  13
ATOM     13  N   UNL     1      -1.284 -10.082 -10.303  0.00  0.00    +0.057 N 
ATOM     14  O   UNL     1      -0.857  -9.753 -11.385  0.00  0.00    -0.126 OA
ATOM     15  O   UNL     1      -1.919 -11.104 -10.189  0.00  0.00    -0.126 OA
ENDBRANCH  11  13
BRANCH   9  16
ATOM     16  N   UNL     1       0.723  -6.016  -8.297  0.00  0.00    +0.057 N 
ATOM     17  O   UNL     1       0.936  -5.317  -7.334  0.00  0.00    -0.126 OA
ATOM     18  O   UNL     1       1.146  -5.695  -9.383  0.00  0.00    -0.126 OA
ENDBRANCH   9  16
ENDBRANCH   4   7
ENDBRANCH   1   3
BRANCH   1  19
ATOM     19  N   UNL     1      -1.803  -8.013  -2.081  0.00  0.00    -0.245 N 
ATOM     20  H   UNL     1      -2.144  -8.274  -1.211  0.00  0.00    +0.172 HD
BRANCH  19  23
ATOM     21  C   UNL     1      -0.840  -6.048  -1.143  0.00  0.00    +0.270 C 
ATOM     22  O   UNL     1      -1.266  -6.375  -0.056  0.00  0.00    -0.270 OA
ATOM     23  N   UNL     1      -1.071  -6.827  -2.219  0.00  0.00    -0.232 N 
ATOM     24  H   UNL     1      -0.731  -6.566  -3.089  0.00  0.00    +0.173 HD
BRANCH  21  25
ATOM     25  C   UNL     1      -0.052  -4.772  -1.292  0.00  0.00    +0.257 C 
ATOM     26  C   UNL     1       1.346  -5.095  -1.822  0.00  0.00    +0.062 C 
BRANCH  25  27
ATOM     27  O   UNL     1       0.057  -4.129  -0.021  0.00  0.00    -0.480 OA
BRANCH  27  32
ATOM     28  C   UNL     1       0.868   1.445  -0.036  0.00  0.00    +0.044 C 
ATOM     29  C   UNL     1       0.651  -0.047  -0.032  0.00  0.00    -0.047 A 
ATOM     30  C   UNL     1       0.649  -0.747  -1.224  0.00  0.00    +0.007 A 
ATOM     31  C   UNL     1       0.450  -2.114  -1.223  0.00  0.00    +0.046 A 
ATOM     32  C   UNL     1       0.253  -2.784  -0.024  0.00  0.00    +0.122 A 
ATOM     33  C   UNL     1       0.256  -2.079   1.170  0.00  0.00    +0.049 A 
ATOM     34  C   UNL     1       0.460  -0.713   1.164  0.00  0.00    -0.044 A 
ATOM     35  C   UNL     1       0.469   0.053   2.462  0.00  0.00    +0.044 C 
ENDBRANCH  27  32
ENDBRANCH  25  27
ENDBRANCH  21  25
ENDBRANCH  19  23
ENDBRANCH   1  19
TORSDOF 9
