REMARK  Name = ZINC66620647
REMARK  6 active torsions:
REMARK  status: ('A' for Active; 'I' for Inactive)
REMARK    1  A    between atoms: C_1  and  C_2
REMARK    2  A    between atoms: C_2  and  C_3
REMARK    3  A    between atoms: C_10  and  C_15
REMARK    4  A    between atoms: N_17  and  C_18
REMARK    5  A    between atoms: C_18  and  C_19
REMARK    6  A    between atoms: N_23  and  C_25
REMARK                            x       y       z     vdW  Elec       q    Type
REMARK                         _______ _______ _______ _____ _____    ______ ____
ROOT
ATOM      1  C   UNL     1       0.742  -0.511   1.242  0.00  0.00    +0.157 C 
ATOM      2  C   UNL     1       0.867  -2.012   1.176  0.00  0.00    +0.237 C 
ATOM      3  O   UNL     1       1.844  -2.511   0.659  0.00  0.00    -0.273 OA
ATOM      4  N   UNL     1      -0.094  -2.804   1.685  0.00  0.00    -0.282 N 
ATOM      5  C   UNL     1      -1.162  -2.259   2.410  0.00  0.00    +0.055 A 
ATOM      6  C   UNL     1      -2.246  -3.042   2.755  0.00  0.00    +0.038 A 
ATOM      7  C   UNL     1      -3.308  -2.481   3.471  0.00  0.00    +0.039 A 
ATOM      8  C   UNL     1      -3.271  -1.132   3.835  0.00  0.00    +0.015 A 
ATOM      9  C   UNL     1      -2.186  -0.355   3.492  0.00  0.00    +0.025 A 
ATOM     10  C   UNL     1      -1.130  -0.912   2.785  0.00  0.00    +0.049 A 
ATOM     11  N   UNL     1      -0.012  -0.143   2.449  0.00  0.00    -0.331 N 
ATOM     12  H   UNL     1      -0.048  -3.763   1.548  0.00  0.00    +0.155 HD
ATOM     13  H   UNL     1       0.260   0.610   2.996  0.00  0.00    +0.147 HD
ENDROOT
BRANCH   7  14
ATOM     14  C   UNL     1      -4.468  -3.314   3.843  0.00  0.00    +0.244 C 
ATOM     15  O   UNL     1      -4.500  -4.487   3.526  0.00  0.00    -0.270 OA
ATOM     16  N   UNL     1      -5.491  -2.773   4.533  0.00  0.00    -0.311 N 
ATOM     17  H   UNL     1      -5.465  -1.837   4.786  0.00  0.00    +0.149 HD
BRANCH  16  18
ATOM     18  C   UNL     1      -6.643  -3.600   4.902  0.00  0.00    +0.106 C 
BRANCH  18  19
ATOM     19  C   UNL     1      -7.654  -2.750   5.674  0.00  0.00    -0.012 C 
ATOM     20  C   UNL     1      -7.075  -2.344   7.049  0.00  0.00    -0.015 C 
ATOM     21  C   UNL     1      -8.301  -2.462   7.989  0.00  0.00    -0.078 C 
ATOM     22  N   UNL     1      -9.015  -3.656   7.469  0.00  0.00    +0.382 N 
ATOM     23  C   UNL     1      -8.914  -3.576   5.994  0.00  0.00    -0.074 C 
ATOM     24  H   UNL     1      -8.572  -4.499   7.804  0.00  0.00    -0.081 HD
BRANCH  22  25
ATOM     25  C   UNL     1     -10.424  -3.624   7.882  0.00  0.00    -0.069 C 
ATOM     26  C   UNL     1     -10.895  -4.691   8.872  0.00  0.00    -0.017 C 
ATOM     27  C   UNL     1     -11.326  -4.764   7.406  0.00  0.00    -0.017 C 
ENDBRANCH  22  25
ENDBRANCH  18  19
ENDBRANCH  16  18
ENDBRANCH   7  14
BRANCH   1  29
ATOM     28  C   UNL     1      -0.019   1.526   0.010  0.00  0.00    +0.006 C 
ATOM     29  C   UNL     1       0.002  -0.004   0.002  0.00  0.00    +0.028 C 
ENDBRANCH   1  29
TORSDOF 5
