REMARK  Name = ZINC29455139
REMARK  15 active torsions:
REMARK  status: ('A' for Active; 'I' for Inactive)
REMARK    1  A    between atoms: C_1  and  C_2
REMARK    2  A    between atoms: C_2  and  C_3
REMARK    3  A    between atoms: C_3  and  C_4
REMARK    4  A    between atoms: C_4  and  N_5
REMARK    5  A    between atoms: N_5  and  C_6
REMARK    6  A    between atoms: C_7  and  N_19
REMARK    7  A    between atoms: N_8  and  C_15
REMARK    8  A    between atoms: C_15  and  C_16
REMARK    9  A    between atoms: C_16  and  C_17
REMARK   10  A    between atoms: C_16  and  C_18
REMARK   11  A    between atoms: C_20  and  C_22
REMARK   12  A    between atoms: C_22  and  N_23
REMARK   13  A    between atoms: N_23  and  C_24
REMARK   14  A    between atoms: N_23  and  C_25
REMARK   15  A    between atoms: C_25  and  C_26
REMARK                            x       y       z     vdW  Elec       q    Type
REMARK                         _______ _______ _______ _____ _____    ______ ____
ROOT
ATOM      1  N   UNL     1      -0.211   1.697   2.680  0.00  0.00    -0.266 N 
ATOM      2  C   UNL     1      -1.089   1.857   1.668  0.00  0.00    +0.203 C 
ATOM      3  O   UNL     1      -2.166   2.376   1.876  0.00  0.00    -0.277 OA
ENDROOT
BRANCH   1   4
ATOM      4  C   UNL     1      -0.502   2.223   3.957  0.00  0.00    +0.140 A 
ATOM      5  C   UNL     1      -0.585   3.587   4.151  0.00  0.00    +0.127 A 
ATOM      6  N   UNL     1      -0.870   4.070   5.407  0.00  0.00    -0.280 N 
ATOM      7  C   UNL     1      -1.067   3.222   6.434  0.00  0.00    +0.331 A 
ATOM      8  O   UNL     1      -1.317   3.669   7.537  0.00  0.00    -0.246 OA
ATOM      9  N   UNL     1      -0.990   1.891   6.263  0.00  0.00    -0.273 N 
ATOM     10  H   UNL     1      -1.149   1.216   7.117  0.00  0.00    +0.173 HD
ATOM     11  C   UNL     1      -0.719   1.366   5.052  0.00  0.00    +0.277 A 
ATOM     12  O   UNL     1      -0.657   0.157   4.907  0.00  0.00    -0.266 OA
BRANCH   5  13
ATOM     13  N   UNL     1      -0.384   4.452   3.103  0.00  0.00    -0.343 N 
ATOM     14  H   UNL     1      -0.452   5.538   3.266  0.00  0.00    +0.144 HD
ATOM     15  H   UNL     1      -0.156   4.059   2.101  0.00  0.00    +0.144 HD
ENDBRANCH   5  13
BRANCH   6  16
ATOM     16  C   UNL     1      -0.962   5.515   5.629  0.00  0.00    +0.131 C 
BRANCH  16  17
ATOM     17  C   UNL     1      -2.403   5.975   5.402  0.00  0.00    +0.003 C 
ATOM     18  C   UNL     1      -3.312   5.346   6.459  0.00  0.00    +0.009 C 
ATOM     19  C   UNL     1      -2.475   7.500   5.510  0.00  0.00    +0.009 C 
ENDBRANCH  16  17
ENDBRANCH   6  16
ENDBRANCH   1   4
BRANCH   1  20
ATOM     20  C   UNL     1       1.045   0.978   2.453  0.00  0.00    +0.114 C 
BRANCH  20  21
ATOM     21  C   UNL     1       2.126   1.967   2.013  0.00  0.00    +0.019 C 
BRANCH  21  23
ATOM     22  C   UNL     1       4.519   2.204   1.335  0.00  0.00    +0.004 C 
ATOM     23  C   UNL     1       3.438   1.216   1.776  0.00  0.00    -0.002 C 
ENDBRANCH  21  23
ENDBRANCH  20  21
ENDBRANCH   1  20
BRANCH   2  24
ATOM     24  C   UNL     1      -0.733   1.389   0.281  0.00  0.00    +0.019 C 
BRANCH  24  25
ATOM     25  N   UNL     1      -1.847   1.674  -0.633  0.00  0.00    +0.384 N 
ATOM     26  C   UNL     1      -3.030   0.873  -0.288  0.00  0.00    -0.096 C 
ATOM     27  H   UNL     1      -2.114   2.736  -0.521  0.00  0.00    -0.082 HD
BRANCH  25  28
ATOM     28  C   UNL     1      -1.452   1.453  -2.031  0.00  0.00    -0.075 C 
BRANCH  28  29
ATOM     29  C   UNL     1      -2.462   2.131  -2.959  0.00  0.00    -0.028 C 
ATOM     30  C   UNL     1      -2.130   1.784  -4.412  0.00  0.00    +0.002 C 
ATOM     31  C   UNL     1      -3.139   2.462  -5.341  0.00  0.00    +0.000 C 
ATOM     32  C   UNL     1      -3.071   3.978  -5.150  0.00  0.00    +0.000 C 
ATOM     33  C   UNL     1      -3.402   4.325  -3.697  0.00  0.00    +0.000 C 
ATOM     34  C   UNL     1      -2.393   3.647  -2.768  0.00  0.00    +0.002 C 
ENDBRANCH  28  29
ENDBRANCH  25  28
ENDBRANCH  24  25
ENDBRANCH   2  24
TORSDOF 11
