REMARK  Name = ZINC63493898
REMARK  3 active torsions:
REMARK  status: ('A' for Active; 'I' for Inactive)
REMARK    1  A    between atoms: C_6  and  C_10
REMARK    2  A    between atoms: C_16  and  C_18
REMARK    3  A    between atoms: C_19  and  C_20
REMARK                            x       y       z     vdW  Elec       q    Type
REMARK                         _______ _______ _______ _____ _____    ______ ____
ROOT
ATOM      1  C   UNL     1       3.545  -2.790  -1.290  0.00  0.00    +0.035 C 
ATOM      2  C   UNL     1       5.075  -2.805  -1.332  0.00  0.00    +0.026 C 
ATOM      3  C   UNL     1       5.539  -3.498  -2.617  0.00  0.00    +0.108 C 
ATOM      4  N   UNL     1       4.920  -4.829  -2.687  0.00  0.00    -0.298 N 
ATOM      5  C   UNL     1       3.460  -4.936  -2.566  0.00  0.00    +0.108 C 
ATOM      6  C   UNL     1       3.019  -4.227  -1.281  0.00  0.00    +0.026 C 
ATOM      7  C   UNL     1       5.678  -5.930  -2.860  0.00  0.00    +0.239 C 
ATOM      8  O   UNL     1       6.875  -5.821  -3.054  0.00  0.00    -0.271 OA
ENDROOT
BRANCH   1  14
ATOM      9  C   UNL     1      -0.009   1.338   0.038  0.00  0.00    +0.002 A 
ATOM     10  C   UNL     1       1.165   2.112   0.031  0.00  0.00    +0.002 A 
ATOM     11  C   UNL     1       2.397   1.564   0.012  0.00  0.00    +0.027 A 
ATOM     12  C   UNL     1       2.539   0.102  -0.001  0.00  0.00    +0.060 A 
ATOM     13  N   UNL     1       3.575  -0.687  -0.019  0.00  0.00    -0.363 N 
ATOM     14  C   UNL     1       3.077  -2.068  -0.025  0.00  0.00    +0.177 C 
ATOM     15  N   UNL     1       1.612  -1.980  -0.007  0.00  0.00    -0.363 N 
ATOM     16  C   UNL     1       1.296  -0.718   0.007  0.00  0.00    +0.060 A 
ATOM     17  C   UNL     1       0.009  -0.010   0.027  0.00  0.00    +0.027 A 
ATOM     18  H   UNL     1       4.505  -0.412  -0.028  0.00  0.00    +0.162 HD
ATOM     19  H   UNL     1       0.992  -2.727  -0.006  0.00  0.00    +0.162 HD
ENDBRANCH   1  14
BRANCH   7  20
ATOM     20  C   UNL     1       5.061  -7.257  -2.816  0.00  0.00    +0.068 C 
ATOM     21  C   UNL     1       5.832  -8.361  -2.884  0.00  0.00    +0.013 C 
BRANCH  21  22
ATOM     22  C   UNL     1       5.212  -9.695  -2.840  0.00  0.00    -0.025 A 
ATOM     23  C   UNL     1       3.823  -9.821  -2.733  0.00  0.00    +0.009 A 
ATOM     24  C   UNL     1       3.249 -11.074  -2.692  0.00  0.00    +0.020 A 
ATOM     25  C   UNL     1       4.045 -12.206  -2.757  0.00  0.00    +0.041 A 
ATOM     26  C   UNL     1       5.421 -12.089  -2.863  0.00  0.00    +0.020 A 
ATOM     27  C   UNL     1       6.009 -10.842  -2.910  0.00  0.00    +0.009 A 
ATOM     28 CL   UNL     1       3.314 -13.780  -2.704  0.00  0.00    -0.084 Cl
ENDBRANCH  21  22
ENDBRANCH   7  20
TORSDOF 3
