REMARK  Name = ZINC36195064
REMARK  5 active torsions:
REMARK  status: ('A' for Active; 'I' for Inactive)
REMARK    1  A    between atoms: C_1  and  C_2
REMARK    2  A    between atoms: C_2  and  N_3
REMARK    3  A    between atoms: N_3  and  C_4
REMARK    4  A    between atoms: C_9  and  S_15
REMARK    5  A    between atoms: S_15  and  C_16
REMARK                            x       y       z     vdW  Elec       q    Type
REMARK                         _______ _______ _______ _____ _____    ______ ____
ROOT
ATOM      1  C   UNL     1       0.730  -1.947   1.192  0.00  0.00    +0.049 C 
ATOM      2  C   UNL     1       1.522  -2.473   2.367  0.00  0.00    -0.031 A 
ATOM      3  C   UNL     1       2.836  -2.322   2.752  0.00  0.00    +0.005 A 
ATOM      4  C   UNL     1       3.294  -2.936   3.903  0.00  0.00    +0.015 A 
ATOM      5  C   UNL     1       2.424  -3.704   4.669  0.00  0.00    +0.014 A 
ATOM      6  C   UNL     1       1.101  -3.855   4.280  0.00  0.00    +0.038 A 
ATOM      7  C   UNL     1       0.639  -3.237   3.121  0.00  0.00    +0.036 A 
ATOM      8  N   UNL     1      -0.625  -3.239   2.530  0.00  0.00    -0.286 N 
ATOM      9  C   UNL     1      -0.659  -2.510   1.398  0.00  0.00    +0.208 C 
ATOM     10  O   UNL     1      -1.621  -2.337   0.679  0.00  0.00    -0.277 OA
ATOM     11  H   UNL     1      -1.391  -3.711   2.892  0.00  0.00    +0.155 HD
ENDROOT
BRANCH   1  12
ATOM     12  N   UNL     1       0.698  -0.478   1.209  0.00  0.00    +0.389 N 
ATOM     13  H   UNL     1       1.642  -0.121   1.208  0.00  0.00    -0.084 HD
ATOM     14  H   UNL     1       0.220  -0.162   2.039  0.00  0.00    -0.084 HD
BRANCH  12  16
ATOM     15  C   UNL     1      -0.046   1.540   0.038  0.00  0.00    -0.017 C 
ATOM     16  C   UNL     1      -0.012   0.010   0.019  0.00  0.00    -0.085 C 
ENDBRANCH  12  16
ENDBRANCH   1  12
BRANCH   5  17
ATOM     17  S   UNL     1       3.003  -4.487   6.137  0.00  0.00    -0.089 S 
BRANCH  17  18
ATOM     18  C   UNL     1       4.735  -4.162   6.138  0.00  0.00    +0.013 A 
ATOM     19  C   UNL     1       5.239  -3.077   6.845  0.00  0.00    +0.016 A 
ATOM     20  C   UNL     1       6.596  -2.825   6.844  0.00  0.00    +0.021 A 
ATOM     21  C   UNL     1       7.455  -3.652   6.141  0.00  0.00    +0.041 A 
ATOM     22  C   UNL     1       6.956  -4.733   5.436  0.00  0.00    +0.021 A 
ATOM     23  C   UNL     1       5.600  -4.994   5.438  0.00  0.00    +0.016 A 
ATOM     24 CL   UNL     1       9.161  -3.332   6.142  0.00  0.00    -0.084 Cl
ENDBRANCH  17  18
ENDBRANCH   5  17
TORSDOF 4
