REMARK  Name = ZINC54368717
REMARK  9 active torsions:
REMARK  status: ('A' for Active; 'I' for Inactive)
REMARK    1  A    between atoms: C_1  and  C_2
REMARK    2  A    between atoms: C_2  and  C_4
REMARK    3  A    between atoms: C_2  and  N_17
REMARK    4  A    between atoms: N_6  and  C_7
REMARK    5  A    between atoms: C_9  and  C_15
REMARK    6  A    between atoms: C_9  and  C_16
REMARK    7  A    between atoms: C_11  and  C_13
REMARK    8  A    between atoms: C_11  and  C_14
REMARK    9  A    between atoms: C_18  and  C_20
REMARK                            x       y       z     vdW  Elec       q    Type
REMARK                         _______ _______ _______ _____ _____    ______ ____
ROOT
ATOM      1  C   UNL     1       1.120  -0.760  -1.639  0.00  0.00    +0.233 C 
ATOM      2  O   UNL     1       2.091  -1.487  -1.632  0.00  0.00    -0.274 OA
ATOM      3  N   UNL     1       0.563  -0.390  -2.809  0.00  0.00    -0.311 N 
ATOM      4  H   UNL     1      -0.213   0.191  -2.815  0.00  0.00    +0.149 HD
ENDROOT
BRANCH   3   5
ATOM      5  C   UNL     1       1.132  -0.868  -4.076  0.00  0.00    +0.070 C 
ATOM      6  C   UNL     1       0.519  -2.226  -4.421  0.00  0.00    +0.009 C 
ATOM      7  C   UNL     1       1.093  -2.732  -5.745  0.00  0.00    -0.072 C 
ATOM      8  N   UNL     1       0.936  -1.760  -6.817  0.00  0.00    +0.386 N 
ATOM      9  C   UNL     1       1.297  -0.380  -6.536  0.00  0.00    -0.072 C 
ATOM     10  C   UNL     1       0.777   0.116  -5.191  0.00  0.00    +0.009 C 
ATOM     11  C   UNL     1       0.649   0.501  -7.631  0.00  0.00    -0.010 C 
ATOM     12  C   UNL     1       2.810  -0.161  -6.624  0.00  0.00    -0.010 C 
ATOM     13  C   UNL     1       2.550  -3.157  -5.562  0.00  0.00    -0.010 C 
ATOM     14  C   UNL     1       0.293  -3.995  -6.138  0.00  0.00    -0.010 C 
ATOM     15  H   UNL     1       1.482  -2.079  -7.622  0.00  0.00    -0.084 HD
ATOM     16  H   UNL     1      -0.038  -1.781  -7.128  0.00  0.00    -0.084 HD
ENDBRANCH   3   5
BRANCH   1  18
ATOM     17  C   UNL     1       0.582   1.259  -0.303  0.00  0.00    +0.038 C 
ATOM     18  C   UNL     1       0.536  -0.270  -0.339  0.00  0.00    +0.156 C 
BRANCH  18  19
ATOM     19  N   UNL     1       1.314  -0.808   0.780  0.00  0.00    -0.300 N 
ATOM     20  C   UNL     1       0.743  -0.948   1.992  0.00  0.00    +0.251 C 
ATOM     21  O   UNL     1      -0.419  -0.627   2.158  0.00  0.00    -0.270 OA
ATOM     22  H   UNL     1       2.240  -1.063   0.647  0.00  0.00    +0.150 HD
BRANCH  20  23
ATOM     23  C   UNL     1       1.522  -1.486   3.111  0.00  0.00    +0.074 A 
ATOM     24  C   UNL     1       1.128  -1.713   4.421  0.00  0.00    +0.021 A 
ATOM     25  C   UNL     1       2.091  -2.232   5.253  0.00  0.00    +0.008 A 
ATOM     26  C   UNL     1       3.327  -2.481   4.755  0.00  0.00    +0.046 A 
ATOM     27  S   UNL     1       3.220  -2.027   3.141  0.00  0.00    -0.092 S 
ENDBRANCH  20  23
ENDBRANCH  18  19
ENDBRANCH   1  18
TORSDOF 4
