REMARK  Name = ZINC54726836
REMARK  11 active torsions:
REMARK  status: ('A' for Active; 'I' for Inactive)
REMARK    1  A    between atoms: C_1  and  C_2
REMARK    2  A    between atoms: C_4  and  C_8
REMARK    3  A    between atoms: C_5  and  C_7
REMARK    4  A    between atoms: N_10  and  N_11
REMARK    5  A    between atoms: N_14  and  C_15
REMARK    6  A    between atoms: C_15  and  C_16
REMARK    7  A    between atoms: C_16  and  C_17
REMARK    8  A    between atoms: C_16  and  C_18
REMARK    9  A    between atoms: C_16  and  N_19
REMARK   10  A    between atoms: C_21  and  C_28
REMARK   11  A    between atoms: C_24  and  C_27
REMARK                            x       y       z     vdW  Elec       q    Type
REMARK                         _______ _______ _______ _____ _____    ______ ____
ROOT
ATOM      1  N   UNL     1      -7.899  -5.687  -2.603  0.00  0.00    -0.218 N 
ATOM      2  C   UNL     1      -7.363  -5.138  -1.495  0.00  0.00    +0.316 C 
ATOM      3  O   UNL     1      -6.706  -5.822  -0.734  0.00  0.00    -0.251 OA
ATOM      4  N   UNL     1      -7.556  -3.831  -1.229  0.00  0.00    -0.300 N 
ATOM      5  H   UNL     1      -7.760  -6.628  -2.794  0.00  0.00    +0.174 HD
ATOM      6  H   UNL     1      -8.081  -3.285  -1.836  0.00  0.00    +0.150 HD
ENDROOT
BRANCH   1   9
ATOM      7  C   UNL     1      -9.191  -5.447  -4.588  0.00  0.00    +0.263 C 
ATOM      8  O   UNL     1      -9.017  -6.627  -4.828  0.00  0.00    -0.269 OA
ATOM      9  N   UNL     1      -8.656  -4.899  -3.480  0.00  0.00    -0.229 N 
ATOM     10  H   UNL     1      -8.795  -3.958  -3.288  0.00  0.00    +0.173 HD
BRANCH   7  14
ATOM     11  C   UNL     1     -11.602  -1.503  -6.745  0.00  0.00    +0.086 C 
ATOM     12  C   UNL     1     -11.043  -2.870  -6.445  0.00  0.00    +0.103 A 
ATOM     13  C   UNL     1     -10.296  -3.187  -5.377  0.00  0.00    +0.057 A 
ATOM     14  C   UNL     1      -9.988  -4.618  -5.510  0.00  0.00    +0.079 A 
ATOM     15  C   UNL     1     -10.593  -5.018  -6.665  0.00  0.00    +0.114 A 
ATOM     16  O   UNL     1     -11.219  -3.965  -7.200  0.00  0.00    -0.464 OA
ATOM     17  C   UNL     1     -10.567  -6.412  -7.237  0.00  0.00    +0.087 C 
ENDBRANCH   7  14
ENDBRANCH   1   9
BRANCH   4  18
ATOM     18  C   UNL     1      -6.974  -3.235  -0.025  0.00  0.00    +0.093 C 
BRANCH  18  19
ATOM     19  C   UNL     1      -7.230  -1.726  -0.028  0.00  0.00    -0.055 C 
ATOM     20  C   UNL     1      -8.733  -1.463   0.086  0.00  0.00    -0.008 C 
ATOM     21  C   UNL     1      -6.509  -1.084   1.159  0.00  0.00    -0.008 C 
BRANCH  19  22
ATOM     22  N   UNL     1      -6.725  -1.147  -1.280  0.00  0.00    +0.384 N 
ATOM     23  C   UNL     1      -5.292  -1.437  -1.409  0.00  0.00    -0.075 C 
ATOM     24  C   UNL     1      -4.779  -0.906  -2.749  0.00  0.00    -0.031 C 
ATOM     25  C   UNL     1      -5.002   0.608  -2.811  0.00  0.00    +0.003 C 
ATOM     26  C   UNL     1      -6.490   0.904  -2.601  0.00  0.00    -0.031 C 
ATOM     27  C   UNL     1      -6.940   0.305  -1.266  0.00  0.00    -0.075 C 
ATOM     28  C   UNL     1      -7.300   0.281  -3.740  0.00  0.00    +0.005 C 
ATOM     29  C   UNL     1      -3.285  -1.209  -2.880  0.00  0.00    +0.005 C 
ATOM     30  H   UNL     1      -7.220  -1.551  -2.060  0.00  0.00    -0.081 HD
ENDBRANCH  19  22
ENDBRANCH  18  19
ENDBRANCH   4  18
TORSDOF 5
