REMARK  Name = ZINC01199981
REMARK  8 active torsions:
REMARK  status: ('A' for Active; 'I' for Inactive)
REMARK    1  A    between atoms: C_1  and  C_2
REMARK    2  A    between atoms: C_2  and  C_3
REMARK    3  A    between atoms: C_2  and  C_4
REMARK    4  A    between atoms: C_2  and  C_5
REMARK    5  A    between atoms: C_12  and  N_17
REMARK    6  A    between atoms: C_13  and  C_14
REMARK    7  A    between atoms: C_18  and  C_20
REMARK    8  A    between atoms: C_21  and  C_22
REMARK                            x       y       z     vdW  Elec       q    Type
REMARK                         _______ _______ _______ _____ _____    ______ ____
ROOT
ATOM      1  C   UNL     1     -11.908   0.892   0.436  0.00  0.00    -0.000 C 
ATOM      2  C   UNL     1     -12.001   2.176  -0.393  0.00  0.00    +0.009 C 
ATOM      3  C   UNL     1     -10.929   3.168   0.063  0.00  0.00    +0.037 C 
ATOM      4  C   UNL     1      -9.576   2.468   0.053  0.00  0.00    -0.023 A 
ATOM      5  C   UNL     1      -9.490   1.120   0.045  0.00  0.00    -0.004 A 
ATOM      6  S   UNL     1      -7.754   0.776   0.035  0.00  0.00    -0.077 S 
ATOM      7  C   UNL     1      -7.147   2.400   0.042  0.00  0.00    +0.085 A 
ATOM      8  C   UNL     1      -8.303   3.169   0.057  0.00  0.00    +0.068 A 
ATOM      9  C   UNL     1     -10.625   0.143   0.046  0.00  0.00    +0.046 C 
ENDROOT
BRANCH   8  10
ATOM     10  C   UNL     1      -8.242   4.633   0.072  0.00  0.00    +0.244 C 
ATOM     11  O   UNL     1      -8.223   5.252  -0.976  0.00  0.00    -0.270 OA
ATOM     12  N   UNL     1      -8.206   5.294   1.246  0.00  0.00    -0.325 N 
ATOM     13  H   UNL     1      -8.222   4.801   2.081  0.00  0.00    +0.145 HD
ATOM     14  H   UNL     1      -8.166   6.263   1.256  0.00  0.00    +0.145 HD
ENDBRANCH   8  10
BRANCH   1  16
ATOM     15  C   UNL     1     -13.159  -0.348  -1.336  0.00  0.00    +0.011 C 
ATOM     16  C   UNL     1     -13.124   0.009   0.152  0.00  0.00    -0.035 C 
ATOM     17  C   UNL     1     -13.029  -1.273   0.982  0.00  0.00    +0.011 C 
ATOM     18  C   UNL     1     -14.402   0.764   0.525  0.00  0.00    +0.011 C 
ENDBRANCH   1  16
BRANCH   7  19
ATOM     19  N   UNL     1      -5.830   2.826   0.040  0.00  0.00    -0.276 N 
ATOM     20  C   UNL     1      -4.829   1.923   0.031  0.00  0.00    +0.242 C 
ATOM     21  O   UNL     1      -5.084   0.732   0.025  0.00  0.00    -0.270 OA
ATOM     22  H   UNL     1      -5.627   3.775   0.045  0.00  0.00    +0.156 HD
BRANCH  20  23
ATOM     23  C   UNL     1      -3.484   2.359   0.029  0.00  0.00    +0.071 C 
ATOM     24  C   UNL     1      -2.476   1.450   0.019  0.00  0.00    +0.051 C 
BRANCH  24  25
ATOM     25  C   UNL     1      -1.129   1.886   0.017  0.00  0.00    +0.128 A 
ATOM     26  C   UNL     1      -0.013   1.076   0.008  0.00  0.00    +0.049 A 
ATOM     27  C   UNL     1       1.100   1.930   0.002  0.00  0.00    +0.042 A 
ATOM     28  C   UNL     1       0.631   3.198   0.013  0.00  0.00    +0.195 A 
ATOM     29  O   UNL     1      -0.709   3.168   0.026  0.00  0.00    -0.464 OA
ENDBRANCH  24  25
ENDBRANCH  20  23
ENDBRANCH   7  19
TORSDOF 5
