REMARK  Name = ZINC62213665
REMARK  7 active torsions:
REMARK  status: ('A' for Active; 'I' for Inactive)
REMARK    1  A    between atoms: C_1  and  O_2
REMARK    2  A    between atoms: O_2  and  C_3
REMARK    3  A    between atoms: C_3  and  C_4
REMARK    4  A    between atoms: C_4  and  N_5
REMARK    5  A    between atoms: C_6  and  C_15
REMARK    6  A    between atoms: C_8  and  N_14
REMARK    7  A    between atoms: C_19  and  N_21
REMARK                            x       y       z     vdW  Elec       q    Type
REMARK                         _______ _______ _______ _____ _____    ______ ____
ROOT
ATOM      1  N   UNL     1      -0.776  -2.556  -1.119  0.00  0.00    -0.294 N 
ATOM      2  C   UNL     1      -1.525  -2.681   0.125  0.00  0.00    +0.092 C 
ATOM      3  C   UNL     1      -2.740  -3.588  -0.070  0.00  0.00    -0.049 C 
ATOM      4  C   UNL     1      -3.521  -3.106  -1.299  0.00  0.00    -0.005 C 
ATOM      5  C   UNL     1      -2.666  -3.357  -2.544  0.00  0.00    +0.094 C 
ATOM      6  C   UNL     1      -1.278  -2.828  -2.324  0.00  0.00    +0.216 C 
ATOM      7  O   UNL     1      -0.573  -2.644  -3.294  0.00  0.00    -0.276 OA
ENDROOT
BRANCH   2   8
ATOM      8  C   UNL     1      -0.633  -3.271   1.187  0.00  0.00    -0.026 A 
ATOM      9  C   UNL     1       0.246  -4.288   0.863  0.00  0.00    +0.005 A 
ATOM     10  C   UNL     1       1.065  -4.830   1.837  0.00  0.00    +0.003 A 
ATOM     11  C   UNL     1       1.004  -4.354   3.134  0.00  0.00    +0.033 A 
ATOM     12  C   UNL     1       0.126  -3.337   3.457  0.00  0.00    +0.127 A 
ATOM     13  C   UNL     1      -0.689  -2.792   2.482  0.00  0.00    +0.038 A 
BRANCH  12  14
ATOM     14  N   UNL     1       0.061  -2.829   4.845  0.00  0.00    +0.056 N 
ATOM     15  O   UNL     1       0.776  -3.303   5.697  0.00  0.00    -0.126 OA
ATOM     16  O   UNL     1      -0.707  -1.939   5.128  0.00  0.00    -0.126 OA
ENDBRANCH  12  14
ENDBRANCH   2   8
BRANCH   3  17
ATOM     17  N   UNL     1      -3.599  -3.525   1.120  0.00  0.00    +0.381 N 
ATOM     18  H   UNL     1      -3.909  -2.575   1.260  0.00  0.00    -0.090 HD
ATOM     19  H   UNL     1      -4.400  -4.124   0.989  0.00  0.00    -0.090 HD
ATOM     20  H   UNL     1      -3.078  -3.831   1.928  0.00  0.00    -0.090 HD
ENDBRANCH   3  17
BRANCH   1  21
ATOM     21  C   UNL     1       0.613  -2.097  -1.041  0.00  0.00    +0.136 C 
BRANCH  21  22
ATOM     22  C   UNL     1       0.652  -0.570  -1.138  0.00  0.00    +0.178 C 
BRANCH  22  24
ATOM     23  C   UNL     1      -0.017   1.425   0.010  0.00  0.00    +0.194 C 
ATOM     24  O   UNL     1       0.002  -0.004   0.002  0.00  0.00    -0.381 OA
ENDBRANCH  22  24
ENDBRANCH  21  22
ENDBRANCH   1  21
TORSDOF 6
