REMARK  Name = ZINC14198663
REMARK  15 active torsions:
REMARK  status: ('A' for Active; 'I' for Inactive)
REMARK    1  A    between atoms: C_1  and  C_2
REMARK    2  A    between atoms: C_5  and  O_30
REMARK    3  A    between atoms: C_6  and  C_8
REMARK    4  A    between atoms: C_8  and  C_10
REMARK    5  A    between atoms: C_8  and  N_60
REMARK    6  A    between atoms: C_11  and  C_13
REMARK    7  A    between atoms: C_11  and  C_14
REMARK    8  A    between atoms: C_11  and  N_60
REMARK    9  A    between atoms: N_16  and  C_17
REMARK   10  A    between atoms: C_19  and  S_24
REMARK   11  A    between atoms: C_22  and  C_23
REMARK   12  A    between atoms: S_24  and  N_27
REMARK   13  A    between atoms: N_27  and  C_28
REMARK   14  A    between atoms: N_27  and  C_29
REMARK   15  A    between atoms: O_30  and  C_31
REMARK                            x       y       z     vdW  Elec       q    Type
REMARK                         _______ _______ _______ _____ _____    ______ ____
ROOT
ATOM      1  C   UNL     1      -3.606   2.123   0.132  0.00  0.00    +0.203 C 
ATOM      2  O   UNL     1      -3.624   3.336   0.139  0.00  0.00    -0.277 OA
ATOM      3  N   UNL     1      -2.433   1.468   0.021  0.00  0.00    -0.287 N 
ATOM      4  H   UNL     1      -2.424   0.501  -0.065  0.00  0.00    +0.155 HD
ENDROOT
BRANCH   3   5
ATOM      5  C   UNL     1      -1.229   2.180   0.031  0.00  0.00    +0.038 A 
ATOM      6  C   UNL     1      -1.161   3.424   0.645  0.00  0.00    +0.052 A 
ATOM      7  C   UNL     1       0.027   4.128   0.647  0.00  0.00    +0.107 A 
ATOM      8  C   UNL     1       1.150   3.593   0.043  0.00  0.00    +0.029 A 
ATOM      9  C   UNL     1       1.087   2.353  -0.565  0.00  0.00    +0.007 A 
ATOM     10  C   UNL     1      -0.098   1.644  -0.571  0.00  0.00    -0.029 A 
ATOM     11  C   UNL     1      -0.166   0.293  -1.234  0.00  0.00    +0.045 C 
BRANCH   7  12
ATOM     12  S   UNL     1       0.112   5.709   1.420  0.00  0.00    +0.060 S 
ATOM     13  O   UNL     1      -0.930   5.745   2.386  0.00  0.00    -0.153 OA
ATOM     14  O   UNL     1       1.475   5.922   1.760  0.00  0.00    -0.153 OA
BRANCH  12  15
ATOM     15  N   UNL     1      -0.271   6.838   0.270  0.00  0.00    -0.183 NA
ATOM     16  C   UNL     1      -1.664   7.247   0.080  0.00  0.00    +0.131 C 
ATOM     17  C   UNL     1       0.785   7.426  -0.558  0.00  0.00    +0.131 C 
ENDBRANCH  12  15
ENDBRANCH   7  12
ENDBRANCH   3   5
BRANCH   1  18
ATOM     18  C   UNL     1      -4.894   1.350   0.248  0.00  0.00    +0.014 C 
ATOM     19  C   UNL     1      -4.846   0.464   1.494  0.00  0.00    -0.004 C 
BRANCH  18  20
ATOM     20  N   UNL     1      -6.019   2.297   0.359  0.00  0.00    +0.391 N 
ATOM     21  H   UNL     1      -6.131   2.575   1.341  0.00  0.00    -0.084 HD
ATOM     22  H   UNL     1      -5.821   3.127  -0.211  0.00  0.00    -0.084 HD
BRANCH  20  23
ATOM     23  C   UNL     1      -7.266   1.668  -0.114  0.00  0.00    -0.039 C 
ATOM     24  C   UNL     1      -7.370   1.820  -1.633  0.00  0.00    -0.009 C 
BRANCH  23  30
ATOM     25  C   UNL     1      -9.273   5.688   2.088  0.00  0.00    +0.044 C 
ATOM     26  C   UNL     1      -9.403   4.270   1.594  0.00  0.00    -0.050 A 
ATOM     27  C   UNL     1     -10.601   3.595   1.742  0.00  0.00    +0.007 A 
ATOM     28  C   UNL     1     -10.723   2.296   1.290  0.00  0.00    +0.046 A 
ATOM     29  C   UNL     1      -9.644   1.669   0.683  0.00  0.00    +0.122 A 
ATOM     30  C   UNL     1      -8.442   2.347   0.540  0.00  0.00    -0.020 A 
ATOM     31  C   UNL     1      -8.325   3.647   0.994  0.00  0.00    +0.009 A 
BRANCH  29  32
ATOM     32  O   UNL     1      -9.763   0.393   0.233  0.00  0.00    -0.495 OA
ATOM     33  C   UNL     1     -11.030  -0.243   0.413  0.00  0.00    +0.277 C 
ENDBRANCH  29  32
ENDBRANCH  23  30
ENDBRANCH  20  23
ENDBRANCH  18  20
ENDBRANCH   1  18
TORSDOF 8
