REMARK  Name = ZINC53561377
REMARK  7 active torsions:
REMARK  status: ('A' for Active; 'I' for Inactive)
REMARK    1  A    between atoms: C_1  and  N_2
REMARK    2  A    between atoms: N_10  and  C_25
REMARK    3  A    between atoms: N_14  and  C_15
REMARK    4  A    between atoms: C_15  and  C_16
REMARK    5  A    between atoms: C_21  and  N_22
REMARK    6  A    between atoms: N_22  and  C_23
REMARK    7  A    between atoms: N_22  and  C_24
REMARK                            x       y       z     vdW  Elec       q    Type
REMARK                         _______ _______ _______ _____ _____    ______ ____
ROOT
ATOM      1  C   UNL     1       0.266   0.860  -0.100  0.00  0.00    +0.152 C 
ATOM      2  N   UNL     1       0.143  -0.594   0.034  0.00  0.00    -0.309 N 
ATOM      3  C   UNL     1       0.096  -1.520  -1.000  0.00  0.00    +0.152 A 
ATOM      4  C   UNL     1       0.140  -1.432  -2.402  0.00  0.00    +0.280 A 
ATOM      5  O   UNL     1       0.244  -0.348  -2.949  0.00  0.00    -0.265 OA
ATOM      6  N   UNL     1       0.067  -2.561  -3.137  0.00  0.00    -0.273 N 
ATOM      7  H   UNL     1       0.098  -2.505  -4.105  0.00  0.00    +0.173 HD
ATOM      8  C   UNL     1      -0.047  -3.764  -2.548  0.00  0.00    +0.331 A 
ATOM      9  O   UNL     1      -0.109  -4.761  -3.242  0.00  0.00    -0.246 OA
ATOM     10  N   UNL     1      -0.093  -3.893  -1.209  0.00  0.00    -0.280 N 
ATOM     11  C   UNL     1      -0.023  -2.769  -0.401  0.00  0.00    +0.170 A 
ATOM     12  N   UNL     1      -0.044  -2.582   0.920  0.00  0.00    -0.196 NA
ATOM     13  C   UNL     1       0.060  -1.297   1.194  0.00  0.00    +0.198 A 
ATOM     14  N   UNL     1       0.077  -0.752   2.457  0.00  0.00    -0.311 N 
ATOM     15  C   UNL     1      -0.219  -5.222  -0.605  0.00  0.00    +0.155 C 
ATOM     16  H   UNL     1       0.154   0.208   2.570  0.00  0.00    +0.149 HD
ENDROOT
BRANCH  14  17
ATOM     17  C   UNL     1      -0.020  -1.623   3.631  0.00  0.00    +0.143 C 
BRANCH  17  18
ATOM     18  C   UNL     1       0.021  -0.784   4.883  0.00  0.00    +0.008 A 
ATOM     19  C   UNL     1       1.181  -0.701   5.633  0.00  0.00    +0.010 A 
ATOM     20  C   UNL     1       1.174   0.083   6.779  0.00  0.00    +0.018 A 
ATOM     21  C   UNL     1       0.020   0.752   7.134  0.00  0.00    +0.084 A 
ATOM     22  N   UNL     1      -1.072   0.653   6.399  0.00  0.00    -0.349 N 
ATOM     23  C   UNL     1      -1.104  -0.079   5.297  0.00  0.00    +0.103 A 
ATOM     24  H   UNL     1      -1.870   1.133   6.672  0.00  0.00    +0.167 HD
BRANCH  23  25
ATOM     25  N   UNL     1      -2.274  -0.149   4.550  0.00  0.00    -0.323 N 
ATOM     26  C   UNL     1      -3.250  -1.210   4.815  0.00  0.00    +0.130 C 
ATOM     27  C   UNL     1      -2.532   0.837   3.498  0.00  0.00    +0.130 C 
ENDBRANCH  23  25
ENDBRANCH  17  18
ENDBRANCH  14  17
TORSDOF 3
