REMARK  Name = ZINC09016122
REMARK  8 active torsions:
REMARK  status: ('A' for Active; 'I' for Inactive)
REMARK    1  A    between atoms: C_1  and  O_2
REMARK    2  A    between atoms: O_2  and  C_3
REMARK    3  A    between atoms: C_7  and  N_9
REMARK    4  A    between atoms: C_14  and  C_15
REMARK    5  A    between atoms: C_14  and  N_58
REMARK    6  A    between atoms: N_19  and  C_20
REMARK    7  A    between atoms: C_25  and  O_26
REMARK    8  A    between atoms: O_26  and  C_27
REMARK                            x       y       z     vdW  Elec       q    Type
REMARK                         _______ _______ _______ _____ _____    ______ ____
ROOT
ATOM      1  C   UNL     1      -6.350   1.032   8.606  0.00  0.00    +0.097 A 
ATOM      2  N   UNL     1      -6.790  -0.174   9.032  0.00  0.00    -0.314 N 
ATOM      3  H   UNL     1      -7.484  -0.644   8.545  0.00  0.00    +0.170 HD
ATOM      4  C   UNL     1      -6.234  -0.730  10.167  0.00  0.00    +0.233 A 
ATOM      5  N   UNL     1      -6.641  -1.910  10.604  0.00  0.00    -0.209 NA
ATOM      6  N   UNL     1      -5.279  -0.055  10.824  0.00  0.00    -0.179 NA
ATOM      7  C   UNL     1      -4.879   1.125  10.379  0.00  0.00    +0.217 A 
ATOM      8  N   UNL     1      -5.416   1.661   9.273  0.00  0.00    -0.204 NA
ATOM      9  N   UNL     1      -3.900   1.810  11.057  0.00  0.00    -0.327 N 
ATOM     10  H   UNL     1      -3.602   2.675  10.736  0.00  0.00    +0.145 HD
ATOM     11  H   UNL     1      -3.507   1.428  11.858  0.00  0.00    +0.145 HD
ENDROOT
BRANCH   5  12
ATOM     12  C   UNL     1      -6.012  -2.502  11.665  0.00  0.00    +0.109 A 
ATOM     13  C   UNL     1      -6.508  -2.329  12.959  0.00  0.00    +0.031 A 
ATOM     14  C   UNL     1      -5.868  -2.929  14.026  0.00  0.00    +0.002 A 
ATOM     15  C   UNL     1      -4.738  -3.699  13.818  0.00  0.00    +0.004 A 
ATOM     16  C   UNL     1      -4.238  -3.876  12.539  0.00  0.00    +0.048 A 
ATOM     17  C   UNL     1      -4.871  -3.287  11.459  0.00  0.00    +0.145 A 
BRANCH  17  18
ATOM     18  O   UNL     1      -4.383  -3.466  10.202  0.00  0.00    -0.493 OA
ATOM     19  C   UNL     1      -3.216  -4.280  10.068  0.00  0.00    +0.277 C 
ENDBRANCH  17  18
ENDBRANCH   5  12
BRANCH   1  20
ATOM     20  C   UNL     1      -6.939   1.653   7.366  0.00  0.00    -0.003 C 
BRANCH  20  26
ATOM     21  N   UNL     1      -4.676   1.651   3.799  0.00  0.00    -0.333 N 
ATOM     22  C   UNL     1      -3.999   1.262   5.044  0.00  0.00    +0.086 C 
ATOM     23  C   UNL     1      -4.799   1.784   6.240  0.00  0.00    -0.059 C 
ATOM     24  C   UNL     1      -6.838   1.624   4.947  0.00  0.00    -0.059 C 
ATOM     25  C   UNL     1      -6.039   1.102   3.751  0.00  0.00    +0.086 C 
ATOM     26  N   UNL     1      -6.159   1.208   6.192  0.00  0.00    +0.386 N 
ATOM     27  H   UNL     1      -6.088   0.184   6.207  0.00  0.00    -0.081 HD
BRANCH  21  32
ATOM     28  C   UNL     1      -1.889   1.271   1.429  0.00  0.00    +0.122 A 
ATOM     29  C   UNL     1      -2.478   0.467   0.462  0.00  0.00    +0.046 A 
ATOM     30  C   UNL     1      -3.788   0.051   0.610  0.00  0.00    +0.005 A 
ATOM     31  C   UNL     1      -4.519   0.444   1.715  0.00  0.00    +0.023 A 
ATOM     32  C   UNL     1      -3.937   1.253   2.682  0.00  0.00    +0.033 A 
ATOM     33  C   UNL     1      -2.619   1.667   2.538  0.00  0.00    +0.068 A 
BRANCH  28  35
ATOM     34  C   UNL     1       0.092   1.228   0.116  0.00  0.00    +0.277 C 
ATOM     35  O   UNL     1      -0.600   1.674   1.284  0.00  0.00    -0.495 OA
ENDBRANCH  28  35
ENDBRANCH  21  32
ENDBRANCH  20  26
ENDBRANCH   1  20
TORSDOF 6
