REMARK  Name = ZINC50200179
REMARK  3 active torsions:
REMARK  status: ('A' for Active; 'I' for Inactive)
REMARK    1  A    between atoms: C_6  and  N_7
REMARK    2  A    between atoms: N_7  and  S_8
REMARK    3  A    between atoms: S_8  and  C_11
REMARK                            x       y       z     vdW  Elec       q    Type
REMARK                         _______ _______ _______ _____ _____    ______ ____
ROOT
ATOM      1  N   UNL     1      -1.199  -0.724   0.010  0.00  0.00    -0.220 N 
ATOM      2  H   UNL     1      -1.304  -1.486   0.601  0.00  0.00    +0.173 HD
ENDROOT
BRANCH   1   8
ATOM      3  C   UNL     1      -0.017   1.384   0.010  0.00  0.00    +0.026 A 
ATOM      4  C   UNL     1       1.166   2.093   0.002  0.00  0.00    +0.025 A 
ATOM      5  C   UNL     1       2.390   1.422  -0.013  0.00  0.00    +0.031 A 
ATOM      6  C   UNL     1       2.401   0.036  -0.021  0.00  0.00    -0.023 A 
ATOM      7  C   UNL     1       1.218  -0.675  -0.013  0.00  0.00    +0.030 A 
ATOM      8  C   UNL     1       0.002  -0.004   0.002  0.00  0.00    +0.048 A 
ATOM      9  C   UNL     1       3.839  -0.433  -0.038  0.00  0.00    +0.055 C 
ATOM     10  C   UNL     1       4.669   0.861  -0.039  0.00  0.00    +0.106 C 
ATOM     11  N   UNL     1       3.687   1.948  -0.024  0.00  0.00    -0.343 N 
ATOM     12  H   UNL     1       3.904   2.893  -0.021  0.00  0.00    +0.146 HD
ENDBRANCH   1   8
BRANCH   1  13
ATOM     13  S   UNL     1      -2.440  -0.274  -0.990  0.00  0.00    +0.046 S 
ATOM     14  O   UNL     1      -3.486  -1.192  -0.704  0.00  0.00    -0.155 OA
ATOM     15  O   UNL     1      -2.611   1.116  -0.753  0.00  0.00    -0.155 OA
BRANCH  13  16
ATOM     16  C   UNL     1      -1.809  -0.549  -2.669  0.00  0.00    +0.156 C 
ATOM     17  C   UNL     1      -0.499   0.221  -2.857  0.00  0.00    +0.056 C 
ATOM     18  C   UNL     1      -0.016   0.047  -4.299  0.00  0.00    +0.162 C 
ATOM     19  O   UNL     1      -1.028   0.504  -5.197  0.00  0.00    -0.380 OA
ATOM     20  C   UNL     1      -2.261  -0.211  -5.100  0.00  0.00    +0.162 C 
ATOM     21  C   UNL     1      -2.835  -0.048  -3.690  0.00  0.00    +0.056 C 
ENDBRANCH  13  16
ENDBRANCH   1  13
TORSDOF 3
