REMARK  Name = ZINC09254967
REMARK  5 active torsions:
REMARK  status: ('A' for Active; 'I' for Inactive)
REMARK    1  A    between atoms: N_13  and  C_17
REMARK    2  A    between atoms: C_17  and  C_18
REMARK    3  A    between atoms: C_23  and  S_27
REMARK    4  A    between atoms: S_27  and  C_28
REMARK    5  A    between atoms: C_28  and  C_29
REMARK                            x       y       z     vdW  Elec       q    Type
REMARK                         _______ _______ _______ _____ _____    ______ ____
ROOT
ATOM      1  C   UNL     1      -1.590  -5.514  -0.949  0.00  0.00    +0.237 C 
ATOM      2  O   UNL     1      -0.445  -5.906  -0.865  0.00  0.00    -0.274 OA
ATOM      3  N   UNL     1      -2.553  -6.341  -1.401  0.00  0.00    -0.252 N 
ATOM      4  C   UNL     1      -2.233  -7.650  -1.773  0.00  0.00    +0.241 A 
ATOM      5  N   UNL     1      -3.098  -8.558  -2.239  0.00  0.00    -0.188 NA
ATOM      6  C   UNL     1      -2.463  -9.684  -2.491  0.00  0.00    +0.186 A 
ATOM      7  N   UNL     1      -1.161  -9.506  -2.184  0.00  0.00    -0.252 N 
ATOM      8  H   UNL     1      -0.450 -10.161  -2.265  0.00  0.00    +0.191 HD
ATOM      9  N   UNL     1      -1.037  -8.184  -1.727  0.00  0.00    -0.135 NA
ATOM     10  H   UNL     1      -3.469  -6.027  -1.468  0.00  0.00    +0.158 HD
ENDROOT
BRANCH   1  11
ATOM     11  C   UNL     1      -1.935  -4.103  -0.547  0.00  0.00    +0.214 C 
BRANCH  11  24
ATOM     12  C   UNL     1      -0.017   1.377   0.010  0.00  0.00    +0.001 A 
ATOM     13  C   UNL     1       1.171   2.085   0.002  0.00  0.00    +0.004 A 
ATOM     14  C   UNL     1       2.375   1.410  -0.017  0.00  0.00    +0.046 A 
ATOM     15  C   UNL     1       2.398   0.019  -0.027  0.00  0.00    +0.126 A 
ATOM     16  C   UNL     1       1.207  -0.687  -0.013  0.00  0.00    +0.027 A 
ATOM     17  C   UNL     1       0.002  -0.004   0.002  0.00  0.00    +0.010 A 
ATOM     18  C   UNL     1       1.196  -2.190  -0.008  0.00  0.00    +0.144 C 
ATOM     19  C   UNL     1       2.550  -2.740  -0.447  0.00  0.00    +0.081 C 
ATOM     20  C   UNL     1       3.647  -1.989   0.320  0.00  0.00    +0.232 C 
ATOM     21  O   UNL     1       3.600  -0.612  -0.055  0.00  0.00    -0.492 OA
ATOM     22  C   UNL     1       0.098  -2.714  -0.904  0.00  0.00    +0.252 C 
ATOM     23  O   UNL     1      -0.020  -2.541  -2.098  0.00  0.00    -0.272 OA
ATOM     24  N   UNL     1      -0.723  -3.414  -0.095  0.00  0.00    -0.215 N 
ATOM     25  C   UNL     1      -0.295  -3.402   1.173  0.00  0.00    +0.310 C 
ATOM     26  O   UNL     1      -0.867  -3.964   2.086  0.00  0.00    -0.252 OA
ATOM     27  N   UNL     1       0.843  -2.697   1.324  0.00  0.00    -0.281 N 
ATOM     28  H   UNL     1       1.333  -2.553   2.149  0.00  0.00    +0.152 HD
ENDBRANCH  11  24
ENDBRANCH   1  11
BRANCH   6  29
ATOM     29  S   UNL     1      -3.187 -11.163  -3.120  0.00  0.00    -0.082 S 
BRANCH  29  30
ATOM     30  C   UNL     1      -4.941 -10.744  -3.316  0.00  0.00    +0.112 C 
BRANCH  30  31
ATOM     31  C   UNL     1      -5.686 -11.938  -3.854  0.00  0.00    -0.037 A 
ATOM     32  C   UNL     1      -5.809 -12.119  -5.219  0.00  0.00    +0.006 A 
ATOM     33  C   UNL     1      -6.491 -13.214  -5.713  0.00  0.00    +0.020 A 
ATOM     34  C   UNL     1      -7.052 -14.130  -4.841  0.00  0.00    +0.041 A 
ATOM     35  C   UNL     1      -6.929 -13.949  -3.475  0.00  0.00    +0.020 A 
ATOM     36  C   UNL     1      -6.241 -12.856  -2.982  0.00  0.00    +0.006 A 
ATOM     37 CL   UNL     1      -7.910 -15.506  -5.461  0.00  0.00    -0.084 Cl
ENDBRANCH  30  31
ENDBRANCH  29  30
ENDBRANCH   6  29
TORSDOF 5
