REMARK  Name = ZINC52529600
REMARK  11 active torsions:
REMARK  status: ('A' for Active; 'I' for Inactive)
REMARK    1  A    between atoms: C_1  and  C_2
REMARK    2  A    between atoms: C_3  and  C_8
REMARK    3  A    between atoms: N_6  and  C_7
REMARK    4  A    between atoms: C_8  and  C_10
REMARK    5  A    between atoms: C_8  and  N_11
REMARK    6  A    between atoms: N_14  and  C_15
REMARK    7  A    between atoms: C_15  and  C_16
REMARK    8  A    between atoms: C_16  and  N_24
REMARK    9  A    between atoms: C_20  and  C_23
REMARK   10  A    between atoms: N_24  and  C_25
REMARK   11  A    between atoms: N_24  and  C_26
REMARK                            x       y       z     vdW  Elec       q    Type
REMARK                         _______ _______ _______ _____ _____    ______ ____
ROOT
ATOM      1  N   UNL     1       0.374   0.472  -8.074  0.00  0.00    -0.293 N 
ATOM      2  C   UNL     1      -0.614  -0.000  -7.288  0.00  0.00    +0.300 C 
ATOM      3  O   UNL     1      -0.960   0.625  -6.304  0.00  0.00    -0.253 OA
ATOM      4  N   UNL     1      -1.219  -1.165  -7.594  0.00  0.00    -0.301 N 
ATOM      5  H   UNL     1       0.650  -0.027  -8.859  0.00  0.00    +0.151 HD
ATOM      6  H   UNL     1      -0.944  -1.663  -8.379  0.00  0.00    +0.150 HD
ENDROOT
BRANCH   1   7
ATOM      7  C   UNL     1       1.032   1.738  -7.742  0.00  0.00    +0.105 C 
ATOM      8  C   UNL     1       0.220   2.901  -8.315  0.00  0.00    +0.033 C 
BRANCH   7  11
ATOM      9  C   UNL     1       3.459   3.414  -6.699  0.00  0.00    +0.065 C 
ATOM     10  C   UNL     1       3.468   2.479  -7.881  0.00  0.00    +0.041 A 
ATOM     11  C   UNL     1       2.419   1.754  -8.332  0.00  0.00    +0.013 A 
ATOM     12  C   UNL     1       2.848   1.021  -9.444  0.00  0.00    +0.140 A 
ATOM     13  N   UNL     1       4.110   1.296  -9.652  0.00  0.00    -0.179 NA
ATOM     14  N   UNL     1       4.523   2.218  -8.681  0.00  0.00    -0.271 N 
ATOM     15  C   UNL     1       5.864   2.795  -8.556  0.00  0.00    +0.172 C 
ENDBRANCH   7  11
ENDBRANCH   1   7
BRANCH   4  16
ATOM     16  C   UNL     1      -2.294  -1.678  -6.740  0.00  0.00    +0.094 C 
BRANCH  16  17
ATOM     17  C   UNL     1      -2.895  -2.933  -7.376  0.00  0.00    -0.050 C 
ATOM     18  C   UNL     1      -1.813  -4.008  -7.505  0.00  0.00    -0.010 C 
ATOM     19  C   UNL     1      -2.415  -5.263  -8.141  0.00  0.00    -0.001 C 
ATOM     20  C   UNL     1      -2.961  -4.920  -9.528  0.00  0.00    +0.003 C 
ATOM     21  C   UNL     1      -4.042  -3.845  -9.400  0.00  0.00    -0.015 C 
ATOM     22  C   UNL     1      -3.441  -2.590  -8.764  0.00  0.00    -0.007 C 
ATOM     23  C   UNL     1      -4.588  -3.502 -10.788  0.00  0.00    +0.007 C 
BRANCH  17  24
ATOM     24  N   UNL     1      -3.986  -3.435  -6.531  0.00  0.00    +0.381 N 
ATOM     25  C   UNL     1      -3.461  -3.771  -5.201  0.00  0.00    -0.096 C 
ATOM     26  C   UNL     1      -5.021  -2.401  -6.402  0.00  0.00    -0.096 C 
ATOM     27  H   UNL     1      -4.386  -4.260  -6.953  0.00  0.00    -0.082 HD
ENDBRANCH  17  24
ENDBRANCH  16  17
ENDBRANCH   4  16
TORSDOF 5
