REMARK  Name = ZINC13567675
REMARK  5 active torsions:
REMARK  status: ('A' for Active; 'I' for Inactive)
REMARK    1  A    between atoms: C_2  and  C_3
REMARK    2  A    between atoms: C_3  and  N_4
REMARK    3  A    between atoms: C_14  and  C_32
REMARK    4  A    between atoms: C_15  and  N_31
REMARK    5  A    between atoms: N_16  and  C_24
REMARK                            x       y       z     vdW  Elec       q    Type
REMARK                         _______ _______ _______ _____ _____    ______ ____
ROOT
ATOM      1  N   UNL     1      -0.954   4.838  -0.090  0.00  0.00    -0.258 N 
ATOM      2  C   UNL     1      -0.563   4.869   1.236  0.00  0.00    +0.042 A 
ATOM      3  C   UNL     1      -1.209   5.430   2.338  0.00  0.00    +0.024 A 
ATOM      4  C   UNL     1      -0.581   5.314   3.569  0.00  0.00    +0.002 A 
ATOM      5  C   UNL     1       0.632   4.671   3.712  0.00  0.00    +0.000 A 
ATOM      6  C   UNL     1       1.286   4.108   2.622  0.00  0.00    +0.007 A 
ATOM      7  C   UNL     1       0.668   4.222   1.395  0.00  0.00    -0.001 A 
ATOM      8  C   UNL     1       1.075   3.748   0.033  0.00  0.00    +0.141 C 
ATOM      9  C   UNL     1      -0.057   4.200  -0.869  0.00  0.00    +0.241 C 
ATOM     10  O   UNL     1      -0.139   4.021  -2.066  0.00  0.00    -0.273 OA
ATOM     11  C   UNL     1       2.358   4.394  -0.396  0.00  0.00    +0.089 C 
ATOM     12  C   UNL     1       3.522   3.692  -0.410  0.00  0.00    +0.108 C 
ATOM     13  N   UNL     1       3.534   2.367  -0.036  0.00  0.00    -0.259 N 
ATOM     14  C   UNL     1       2.377   1.633  -0.029  0.00  0.00    +0.025 C 
ATOM     15  C   UNL     1       1.174   2.245   0.003  0.00  0.00    +0.037 C 
ATOM     16  C   UNL     1      -0.018   1.500   0.010  0.00  0.00    +0.162 C 
ATOM     17  O   UNL     1      -1.085   2.082   0.018  0.00  0.00    -0.292 OA
ATOM     18  C   UNL     1       0.002  -0.004   0.002  0.00  0.00    +0.080 C 
ATOM     19  C   UNL     1       1.291  -0.488   0.674  0.00  0.00    +0.014 C 
ATOM     20  C   UNL     1       2.483   0.128  -0.061  0.00  0.00    +0.052 C 
ENDROOT
BRANCH  13  21
ATOM     21  C   UNL     1       4.740   1.765   0.342  0.00  0.00    +0.058 A 
ATOM     22  C   UNL     1       5.536   1.144  -0.612  0.00  0.00    +0.025 A 
ATOM     23  C   UNL     1       6.725   0.551  -0.236  0.00  0.00    +0.002 A 
ATOM     24  C   UNL     1       7.124   0.574   1.088  0.00  0.00    +0.002 A 
ATOM     25  C   UNL     1       6.334   1.191   2.041  0.00  0.00    +0.022 A 
ATOM     26  C   UNL     1       5.145   1.792   1.671  0.00  0.00    +0.063 A 
ATOM     27 CL   UNL     1       4.157   2.573   2.865  0.00  0.00    -0.082 Cl
ENDBRANCH  13  21
BRANCH  12  28
ATOM     28  N   UNL     1       4.688   4.305  -0.799  0.00  0.00    -0.345 N 
ATOM     29  H   UNL     1       4.681   5.239  -1.064  0.00  0.00    +0.144 HD
ATOM     30  H   UNL     1       5.519   3.805  -0.810  0.00  0.00    +0.144 HD
ENDBRANCH  12  28
BRANCH  11  31
ATOM     31  C   UNL     1       2.358   5.769  -0.795  0.00  0.00    +0.100 C 
ATOM     32  N   UNL     1       2.357   6.860  -1.111  0.00  0.00    -0.191 NA
ENDBRANCH  11  31
BRANCH   1  33
ATOM     33  C   UNL     1      -2.197   5.430  -0.591  0.00  0.00    +0.202 C 
BRANCH  33  35
ATOM     34  C   UNL     1      -1.758   7.943  -1.293  0.00  0.00    +0.005 C 
ATOM     35  C   UNL     1      -1.953   6.828  -0.982  0.00  0.00    -0.086 C 
ENDBRANCH  33  35
ENDBRANCH   1  33
TORSDOF 5
