REMARK  Name = ZINC37149751
REMARK  5 active torsions:
REMARK  status: ('A' for Active; 'I' for Inactive)
REMARK    1  A    between atoms: C_1  and  C_2
REMARK    2  A    between atoms: C_2  and  C_4
REMARK    3  A    between atoms: C_2  and  N_12
REMARK    4  A    between atoms: N_12  and  C_13
REMARK    5  A    between atoms: N_22  and  C_23
REMARK                            x       y       z     vdW  Elec       q    Type
REMARK                         _______ _______ _______ _____ _____    ______ ____
ROOT
ATOM      1  N   UNL     1       0.582  -0.479  -1.261  0.00  0.00    +0.390 N 
ATOM      2  H   UNL     1       0.444  -1.467  -1.413  0.00  0.00    -0.084 HD
ATOM      3  H   UNL     1       0.117   0.042  -1.990  0.00  0.00    -0.084 HD
ENDROOT
BRANCH   1   4
ATOM      4  C   UNL     1       2.019  -0.176  -1.285  0.00  0.00    -0.037 C 
ATOM      5  C   UNL     1       2.755  -1.084  -0.292  0.00  0.00    -0.011 C 
ATOM      6  C   UNL     1       4.266  -0.951  -0.500  0.00  0.00    +0.005 C 
ATOM      7  C   UNL     1       4.658  -1.603  -1.832  0.00  0.00    +0.055 C 
ATOM      8  C   UNL     1       3.745  -1.071  -2.908  0.00  0.00    +0.040 A 
ATOM      9  C   UNL     1       2.570  -0.434  -2.665  0.00  0.00    -0.021 A 
ATOM     10  C   UNL     1       2.006  -0.087  -3.890  0.00  0.00    +0.136 A 
ATOM     11  N   UNL     1       2.810  -0.499  -4.840  0.00  0.00    -0.179 NA
ATOM     12  N   UNL     1       3.914  -1.127  -4.240  0.00  0.00    -0.271 N 
ATOM     13  C   UNL     1       5.050  -1.732  -4.940  0.00  0.00    +0.172 C 
ENDBRANCH   1   4
BRANCH   1  15
ATOM     14  C   UNL     1       0.096   1.417   0.210  0.00  0.00    -0.006 C 
ATOM     15  C   UNL     1       0.023  -0.102   0.044  0.00  0.00    -0.005 C 
BRANCH  15  16
ATOM     16  C   UNL     1      -1.414  -0.548   0.123  0.00  0.00    +0.119 A 
ATOM     17  N   UNL     1      -2.319  -0.410  -0.807  0.00  0.00    -0.136 NA
ATOM     18  N   UNL     1      -3.435  -0.902  -0.401  0.00  0.00    -0.134 NA
ATOM     19  C   UNL     1      -3.292  -1.376   0.809  0.00  0.00    +0.133 A 
ATOM     20  N   UNL     1      -2.006  -1.173   1.171  0.00  0.00    -0.316 N 
ATOM     21  C   UNL     1      -1.747  -1.689   2.521  0.00  0.00    +0.125 C 
ATOM     22  C   UNL     1      -3.138  -1.875   3.166  0.00  0.00    +0.029 C 
ATOM     23  C   UNL     1      -4.041  -2.064   1.930  0.00  0.00    +0.078 C 
ENDBRANCH  15  16
ENDBRANCH   1  15
TORSDOF 3
