REMARK  Name = ZINC13019167
REMARK  6 active torsions:
REMARK  status: ('A' for Active; 'I' for Inactive)
REMARK    1  A    between atoms: C_1  and  C_2
REMARK    2  A    between atoms: C_9  and  C_11
REMARK    3  A    between atoms: N_13  and  N_14
REMARK    4  A    between atoms: C_15  and  C_17
REMARK    5  A    between atoms: C_17  and  O_18
REMARK    6  A    between atoms: O_18  and  C_19
REMARK                            x       y       z     vdW  Elec       q    Type
REMARK                         _______ _______ _______ _____ _____    ______ ____
ROOT
ATOM      1  C   UNL     1      -1.187   1.624   0.017  0.00  0.00    +0.267 C 
ATOM      2  O   UNL     1      -1.204   2.841   0.023  0.00  0.00    -0.268 OA
ATOM      3  N   UNL     1      -0.011   0.966   0.007  0.00  0.00    -0.230 N 
ATOM      4  H   UNL     1       0.002  -0.004   0.002  0.00  0.00    +0.173 HD
ENDROOT
BRANCH   1  12
ATOM      5  C   UNL     1      -8.575  -0.018   0.346  0.00  0.00    +0.008 C 
ATOM      6  C   UNL     1      -7.090  -0.354   0.497  0.00  0.00    -0.009 C 
ATOM      7  C   UNL     1      -6.758  -1.585  -0.351  0.00  0.00    +0.009 C 
ATOM      8  C   UNL     1      -5.349  -2.072   0.015  0.00  0.00    +0.043 C 
ATOM      9  C   UNL     1      -4.427  -0.892   0.018  0.00  0.00    -0.006 A 
ATOM     10  C   UNL     1      -4.779   0.428   0.027  0.00  0.00    -0.036 A 
ATOM     11  C   UNL     1      -3.745   1.349   0.027  0.00  0.00    +0.024 A 
ATOM     12  C   UNL     1      -2.447   0.874   0.018  0.00  0.00    +0.076 A 
ATOM     13  S   UNL     1      -2.705  -0.892   0.002  0.00  0.00    -0.088 S 
ATOM     14  C   UNL     1      -6.250   0.838   0.038  0.00  0.00    +0.039 C 
ENDBRANCH   1  12
BRANCH   3  15
ATOM     15  N   UNL     1       1.193   1.683  -0.000  0.00  0.00    -0.232 N 
ATOM     16  C   UNL     1       2.369   1.025  -0.015  0.00  0.00    +0.255 C 
ATOM     17  O   UNL     1       2.385  -0.188  -0.022  0.00  0.00    -0.272 OA
ATOM     18  H   UNL     1       1.179   2.653   0.005  0.00  0.00    +0.173 HD
BRANCH  16  19
ATOM     19  C   UNL     1       3.663   1.796  -0.023  0.00  0.00    +0.256 C 
BRANCH  19  20
ATOM     20  O   UNL     1       4.762   0.882  -0.039  0.00  0.00    -0.374 OA
ATOM     21  C   UNL     1       6.044   1.514  -0.048  0.00  0.00    +0.194 C 
ENDBRANCH  19  20
ENDBRANCH  16  19
ENDBRANCH   3  15
TORSDOF 4
