REMARK  Name = ZINC40701785
REMARK  4 active torsions:
REMARK  status: ('A' for Active; 'I' for Inactive)
REMARK    1  A    between atoms: C_12  and  N_28
REMARK    2  A    between atoms: C_13  and  N_17
REMARK    3  A    between atoms: N_17  and  C_18
REMARK    4  A    between atoms: C_23  and  C_24
REMARK                            x       y       z     vdW  Elec       q    Type
REMARK                         _______ _______ _______ _____ _____    ______ ____
ROOT
ATOM      1  C   UNL     1      -1.709  -1.804  -0.429  0.00  0.00    +0.000 A 
ATOM      2  C   UNL     1      -1.685  -1.307   0.861  0.00  0.00    +0.000 A 
ATOM      3  C   UNL     1      -0.476  -1.129   1.503  0.00  0.00    +0.005 A 
ATOM      4  C   UNL     1       0.714  -1.449   0.865  0.00  0.00    -0.027 A 
ATOM      5  C   UNL     1       0.692  -1.953  -0.416  0.00  0.00    -0.041 A 
ATOM      6  C   UNL     1      -0.527  -2.124  -1.063  0.00  0.00    +0.004 A 
ATOM      7  C   UNL     1       1.939  -2.351  -1.160  0.00  0.00    +0.054 C 
ATOM      8  C   UNL     1       3.171  -1.680  -0.555  0.00  0.00    +0.111 C 
ATOM      9  N   UNL     1       3.112  -1.857   0.906  0.00  0.00    -0.309 N 
ATOM     10  C   UNL     1       2.000  -1.217   1.618  0.00  0.00    +0.142 C 
ATOM     11  C   UNL     1       4.071  -2.601   1.583  0.00  0.00    +0.148 A 
ATOM     12  C   UNL     1       5.265  -2.008   1.998  0.00  0.00    +0.106 A 
ATOM     13  C   UNL     1       6.194  -2.801   2.674  0.00  0.00    +0.149 A 
ATOM     14  N   UNL     1       5.908  -4.082   2.896  0.00  0.00    -0.219 NA
ATOM     15  C   UNL     1       4.769  -4.602   2.487  0.00  0.00    +0.225 A 
ATOM     16  N   UNL     1       3.863  -3.888   1.850  0.00  0.00    -0.219 NA
ENDROOT
BRANCH  12  17
ATOM     17  N   UNL     1       5.525  -0.652   1.742  0.00  0.00    -0.353 N 
ATOM     18  H   UNL     1       4.838  -0.093   1.346  0.00  0.00    +0.143 HD
ATOM     19  H   UNL     1       6.391  -0.274   1.960  0.00  0.00    +0.143 HD
ENDBRANCH  12  17
BRANCH  13  20
ATOM     20  N   UNL     1       7.399  -2.261   3.108  0.00  0.00    -0.297 N 
ATOM     21  H   UNL     1       7.642  -1.355   2.861  0.00  0.00    +0.154 HD
BRANCH  20  22
ATOM     22  C   UNL     1       8.261  -3.023   3.901  0.00  0.00    +0.044 A 
ATOM     23  C   UNL     1       7.759  -4.060   4.677  0.00  0.00    +0.024 A 
ATOM     24  C   UNL     1       8.613  -4.812   5.459  0.00  0.00    +0.002 A 
ATOM     25  C   UNL     1       9.968  -4.533   5.471  0.00  0.00    +0.001 A 
ATOM     26  C   UNL     1      10.471  -3.502   4.700  0.00  0.00    +0.014 A 
ATOM     27  C   UNL     1       9.623  -2.750   3.910  0.00  0.00    +0.076 A 
BRANCH  27  28
ATOM     28  C   UNL     1      10.174  -1.630   3.065  0.00  0.00    +0.419 C 
ATOM     29  F   UNL     1      11.559  -1.551   3.242  0.00  0.00    -0.166 F 
ATOM     30  F   UNL     1       9.888  -1.879   1.718  0.00  0.00    -0.166 F 
ATOM     31  F   UNL     1       9.584  -0.422   3.451  0.00  0.00    -0.166 F 
ENDBRANCH  27  28
ENDBRANCH  20  22
ENDBRANCH  13  20
TORSDOF 4
