REMARK  Name = ZINC39638638
REMARK  8 active torsions:
REMARK  status: ('A' for Active; 'I' for Inactive)
REMARK    1  A    between atoms: C_1  and  C_2
REMARK    2  A    between atoms: C_2  and  O_3
REMARK    3  A    between atoms: O_3  and  C_4
REMARK    4  A    between atoms: C_9  and  C_10
REMARK    5  A    between atoms: C_10  and  N_11
REMARK    6  A    between atoms: C_12  and  C_14
REMARK    7  A    between atoms: C_25  and  C_27
REMARK    8  A    between atoms: C_31  and  C_34
REMARK                            x       y       z     vdW  Elec       q    Type
REMARK                         _______ _______ _______ _____ _____    ______ ____
ROOT
ATOM      1  C   UNL     1       5.325   0.475  -3.325  0.00  0.00    +0.100 C 
ATOM      2  C   UNL     1       6.290  -0.700  -3.050  0.00  0.00    +0.121 C 
ATOM      3  N   UNL     1       7.071  -0.844  -4.301  0.00  0.00    -0.296 N 
ATOM      4  C   UNL     1       7.321   0.550  -4.742  0.00  0.00    +0.115 C 
ATOM      5  C   UNL     1       6.007   1.295  -4.433  0.00  0.00    -0.004 C 
ATOM      6  C   UNL     1       6.304   2.707  -3.938  0.00  0.00    -0.010 C 
ATOM      7  C   UNL     1       6.929   3.521  -5.076  0.00  0.00    -0.082 C 
ATOM      8  N   UNL     1       6.003   3.564  -6.214  0.00  0.00    +0.379 N 
ATOM      9  C   UNL     1       5.795   2.210  -6.742  0.00  0.00    -0.082 C 
ATOM     10  C   UNL     1       5.123   1.341  -5.676  0.00  0.00    -0.010 C 
ATOM     11  C   UNL     1       7.466  -1.984  -4.902  0.00  0.00    +0.252 C 
ATOM     12  O   UNL     1       8.108  -1.936  -5.934  0.00  0.00    -0.270 OA
ATOM     13  H   UNL     1       5.119   3.945  -5.912  0.00  0.00    -0.086 HD
ATOM     14  H   UNL     1       6.390   4.151  -6.938  0.00  0.00    -0.086 HD
ENDROOT
BRANCH  11  15
ATOM     15  C   UNL     1       7.120  -3.289  -4.308  0.00  0.00    +0.107 A 
ATOM     16  C   UNL     1       5.931  -3.933  -4.669  0.00  0.00    +0.138 A 
ATOM     17  C   UNL     1       5.614  -5.156  -4.108  0.00  0.00    +0.039 A 
ATOM     18  C   UNL     1       6.469  -5.743  -3.193  0.00  0.00    +0.009 A 
ATOM     19  C   UNL     1       7.646  -5.114  -2.831  0.00  0.00    -0.014 A 
ATOM     20  C   UNL     1       7.981  -3.893  -3.386  0.00  0.00    +0.141 A 
ATOM     21  F   UNL     1       9.134  -3.283  -3.036  0.00  0.00    -0.204 F 
ATOM     22  C   UNL     1       8.569  -5.763  -1.832  0.00  0.00    +0.047 C 
ATOM     23  F   UNL     1       5.095  -3.360  -5.562  0.00  0.00    -0.205 F 
ENDBRANCH  11  15
BRANCH   1  25
ATOM     24  N   UNL     1       2.870   0.666  -3.558  0.00  0.00    -0.311 N 
ATOM     25  C   UNL     1       3.991  -0.042  -3.799  0.00  0.00    +0.218 C 
ATOM     26  O   UNL     1       3.927  -1.094  -4.398  0.00  0.00    -0.275 OA
ATOM     27  H   UNL     1       2.922   1.508  -3.079  0.00  0.00    +0.149 HD
BRANCH  24  28
ATOM     28  C   UNL     1       1.574   0.165  -4.019  0.00  0.00    +0.143 C 
BRANCH  28  34
ATOM     29  C   UNL     1       0.276   2.280  -4.380  0.00  0.00    +0.125 A 
ATOM     30  C   UNL     1      -0.726   3.169  -4.018  0.00  0.00    +0.046 A 
ATOM     31  C   UNL     1      -1.503   2.916  -2.905  0.00  0.00    +0.004 A 
ATOM     32  C   UNL     1      -1.285   1.776  -2.152  0.00  0.00    +0.001 A 
ATOM     33  C   UNL     1      -0.287   0.889  -2.510  0.00  0.00    +0.009 A 
ATOM     34  C   UNL     1       0.490   1.135  -3.626  0.00  0.00    +0.011 A 
BRANCH  29  35
ATOM     35  O   UNL     1       1.043   2.527  -5.474  0.00  0.00    -0.492 OA
BRANCH  35  37
ATOM     36  C   UNL     1       1.723   3.830  -7.393  0.00  0.00    +0.048 C 
ATOM     37  C   UNL     1       0.766   3.724  -6.203  0.00  0.00    +0.225 C 
ENDBRANCH  35  37
ENDBRANCH  29  35
ENDBRANCH  28  34
ENDBRANCH  24  28
ENDBRANCH   1  25
TORSDOF 6
