REMARK  Name = ZINC13556279
REMARK  2 active torsions:
REMARK  status: ('A' for Active; 'I' for Inactive)
REMARK    1  A    between atoms: N_5  and  N_6
REMARK    2  A    between atoms: C_7  and  C_9
REMARK                            x       y       z     vdW  Elec       q    Type
REMARK                         _______ _______ _______ _____ _____    ______ ____
ROOT
ATOM      1  N   UNL     1       0.937  -2.704   0.345  0.00  0.00    -0.202 N 
ATOM      2  C   UNL     1       1.371  -3.970   0.505  0.00  0.00    +0.284 C 
ATOM      3  O   UNL     1       2.478  -4.179   0.964  0.00  0.00    -0.267 OA
ATOM      4  H   UNL     1       0.054  -2.538  -0.021  0.00  0.00    +0.178 HD
ENDROOT
BRANCH   2   5
ATOM      5  C   UNL     1       0.504  -5.103   0.123  0.00  0.00    +0.152 A 
ATOM      6  C   UNL     1       0.816  -6.477   0.235  0.00  0.00    +0.005 A 
ATOM      7  C   UNL     1      -0.267  -7.138  -0.230  0.00  0.00    +0.040 A 
ATOM      8  N   UNL     1      -1.173  -6.205  -0.600  0.00  0.00    -0.281 N 
ATOM      9  H   UNL     1      -2.048  -6.398  -0.972  0.00  0.00    +0.189 HD
ATOM     10  N   UNL     1      -0.711  -5.026  -0.384  0.00  0.00    -0.169 NA
ATOM     11  C   UNL     1      -0.038  -8.631  -0.153  0.00  0.00    +0.055 C 
ATOM     12  C   UNL     1       1.488  -8.795   0.020  0.00  0.00    +0.011 C 
ATOM     13  C   UNL     1       1.883  -7.451   0.671  0.00  0.00    +0.039 C 
ENDBRANCH   2   5
BRANCH   1  18
ATOM     14  C   UNL     1      -0.019   1.539   0.011  0.00  0.00    +0.006 C 
ATOM     15  C   UNL     1       1.481   1.927  -0.002  0.00  0.00    +0.006 C 
ATOM     16  C   UNL     1       2.113   0.837   0.899  0.00  0.00    +0.052 C 
ATOM     17  C   UNL     1       1.346  -0.428   0.556  0.00  0.00    +0.037 C 
ATOM     18  N   UNL     1       1.759  -1.630   0.708  0.00  0.00    -0.189 NA
ATOM     19  C   UNL     1       0.002  -0.004   0.002  0.00  0.00    +0.052 C 
ENDBRANCH   1  18
TORSDOF 2
