REMARK  Name = ZINC54555338
REMARK  10 active torsions:
REMARK  status: ('A' for Active; 'I' for Inactive)
REMARK    1  A    between atoms: C_1  and  C_2
REMARK    2  A    between atoms: C_2  and  C_3
REMARK    3  A    between atoms: C_7  and  C_26
REMARK    4  A    between atoms: N_10  and  C_11
REMARK    5  A    between atoms: C_14  and  C_23
REMARK    6  A    between atoms: C_18  and  N_20
REMARK    7  A    between atoms: N_20  and  C_21
REMARK    8  A    between atoms: C_21  and  C_22
REMARK    9  A    between atoms: C_23  and  C_24
REMARK   10  A    between atoms: C_23  and  C_25
REMARK                            x       y       z     vdW  Elec       q    Type
REMARK                         _______ _______ _______ _____ _____    ______ ____
ROOT
ATOM      1  C   UNL     1      -2.233   0.992  -1.456  0.00  0.00    +0.043 C 
ATOM      2  C   UNL     1      -3.011   1.419  -0.210  0.00  0.00    +0.021 C 
ATOM      3  C   UNL     1      -3.084   2.946  -0.153  0.00  0.00    -0.007 C 
ATOM      4  C   UNL     1      -3.795   3.470  -1.403  0.00  0.00    +0.002 C 
ATOM      5  C   UNL     1      -3.016   3.043  -2.649  0.00  0.00    -0.014 C 
ATOM      6  C   UNL     1      -2.943   1.516  -2.706  0.00  0.00    -0.054 C 
ENDROOT
BRANCH   1  12
ATOM      7  C   UNL     1      -0.931  -0.918  -2.181  0.00  0.00    +0.082 C 
ATOM      8  C   UNL     1      -0.926  -2.446  -2.269  0.00  0.00    +0.179 C 
ATOM      9  O   UNL     1      -1.056  -2.995  -0.955  0.00  0.00    -0.374 OA
ATOM     10  C   UNL     1      -2.245  -2.585  -0.275  0.00  0.00    +0.129 C 
ATOM     11  C   UNL     1      -2.264  -1.058  -0.166  0.00  0.00    +0.116 C 
ATOM     12  N   UNL     1      -2.163  -0.474  -1.511  0.00  0.00    -0.293 NA
ATOM     13  C   UNL     1      -2.269  -3.199   1.127  0.00  0.00    +0.039 C 
BRANCH   7  15
ATOM     14  C   UNL     1       0.399  -0.802  -4.293  0.00  0.00    +0.005 C 
ATOM     15  C   UNL     1      -0.874  -0.325  -3.590  0.00  0.00    +0.018 C 
ENDBRANCH   7  15
ENDBRANCH   1  12
BRANCH   6  16
ATOM     16  N   UNL     1      -4.303   0.962  -2.765  0.00  0.00    +0.382 N 
ATOM     17  H   UNL     1      -4.259  -0.044  -2.708  0.00  0.00    -0.085 HD
ATOM     18  H   UNL     1      -4.845   1.319  -1.992  0.00  0.00    -0.085 HD
BRANCH  16  19
ATOM     19  C   UNL     1      -4.937   1.355  -4.030  0.00  0.00    -0.086 C 
ATOM     20  C   UNL     1      -6.353   0.778  -4.091  0.00  0.00    -0.017 C 
ENDBRANCH  16  19
ENDBRANCH   6  16
BRANCH   3  21
ATOM     21  C   UNL     1      -3.863   3.373   1.093  0.00  0.00    -0.014 C 
ATOM     22  C   UNL     1      -3.153   2.849   2.343  0.00  0.00    +0.007 C 
ATOM     23  C   UNL     1      -3.936   4.900   1.150  0.00  0.00    +0.007 C 
ENDBRANCH   3  21
TORSDOF 5
