REMARK  Name = ZINC20911755
REMARK  16 active torsions:
REMARK  status: ('A' for Active; 'I' for Inactive)
REMARK    1  A    between atoms: C_1  and  C_2
REMARK    2  A    between atoms: C_2  and  C_3
REMARK    3  A    between atoms: C_3  and  C_5
REMARK    4  A    between atoms: C_3  and  S_6
REMARK    5  A    between atoms: S_6  and  C_7
REMARK    6  A    between atoms: C_13  and  C_15
REMARK    7  A    between atoms: C_15  and  S_16
REMARK    8  A    between atoms: S_16  and  C_17
REMARK    9  A    between atoms: N_21  and  N_22
REMARK   10  A    between atoms: N_23  and  N_24
REMARK   11  A    between atoms: C_25  and  C_26
REMARK   12  A    between atoms: C_27  and  C_35
REMARK   13  A    between atoms: N_29  and  C_32
REMARK   14  A    between atoms: C_30  and  C_31
REMARK   15  A    between atoms: C_32  and  C_33
REMARK   16  A    between atoms: C_32  and  C_34
REMARK                            x       y       z     vdW  Elec       q    Type
REMARK                         _______ _______ _______ _____ _____    ______ ____
ROOT
ATOM      1  C   UNL     1       0.045   1.043  -2.809  0.00  0.00    +0.210 A 
ATOM      2  N   UNL     1       1.126   0.307  -2.715  0.00  0.00    -0.119 NA
ATOM      3  N   UNL     1       1.558   0.003  -4.013  0.00  0.00    -0.109 NA
ATOM      4  C   UNL     1       0.731   0.570  -4.858  0.00  0.00    +0.254 A 
ATOM      5  N   UNL     1      -0.226   1.228  -4.135  0.00  0.00    -0.211 N 
ATOM      6  N   UNL     1       0.812   0.513  -6.241  0.00  0.00    -0.204 N 
ATOM      7  H   UNL     1       0.061   1.028  -6.858  0.00  0.00    +0.177 HD
ENDROOT
BRANCH   5   8
ATOM      8  N   UNL     1      -1.270   1.943  -4.649  0.00  0.00    -0.294 N 
ATOM      9  H   UNL     1      -1.395   2.028  -5.739  0.00  0.00    +0.163 HD
ATOM     10  H   UNL     1      -1.985   2.435  -3.974  0.00  0.00    +0.163 HD
ENDBRANCH   5   8
BRANCH   6  11
ATOM     11  N   UNL     1       1.851  -0.201  -6.853  0.00  0.00    -0.187 NA
ATOM     12  C   UNL     1       1.927  -0.254  -8.147  0.00  0.00    +0.141 C 
BRANCH  12  13
ATOM     13  C   UNL     1       3.022  -1.006  -8.792  0.00  0.00    +0.038 A 
ATOM     14  C   UNL     1       4.051  -1.713  -8.135  0.00  0.00    +0.069 A 
ATOM     15  N   UNL     1       4.824  -2.245  -9.044  0.00  0.00    -0.175 NA
ATOM     16  N   UNL     1       4.331  -1.907 -10.309  0.00  0.00    -0.265 N 
ATOM     17  C   UNL     1       3.225  -1.153 -10.147  0.00  0.00    +0.045 A 
ATOM     18  C   UNL     1       2.370  -0.575 -11.245  0.00  0.00    +0.066 C 
ATOM     19  C   UNL     1       4.229  -1.833  -6.643  0.00  0.00    +0.068 C 
BRANCH  16  20
ATOM     20  C   UNL     1       4.914  -2.308 -11.592  0.00  0.00    +0.101 C 
ATOM     21  C   UNL     1       6.345  -1.776 -11.690  0.00  0.00    +0.032 C 
ATOM     22  C   UNL     1       4.930  -3.835 -11.689  0.00  0.00    +0.032 C 
ENDBRANCH  16  20
ENDBRANCH  12  13
ENDBRANCH   6  11
BRANCH   1  23
ATOM     23  S   UNL     1      -0.890   1.687  -1.462  0.00  0.00    -0.075 S 
BRANCH  23  24
ATOM     24  C   UNL     1      -0.013   1.086   0.008  0.00  0.00    +0.173 C 
BRANCH  24  31
ATOM     25  C   UNL     1      -1.875   2.372   5.993  0.00  0.00    +0.160 A 
ATOM     26  N   UNL     1      -2.445   2.762   4.862  0.00  0.00    -0.133 NA
ATOM     27  N   UNL     1      -1.976   2.446   3.735  0.00  0.00    -0.125 NA
ATOM     28  C   UNL     1      -0.893   1.695   3.612  0.00  0.00    +0.189 A 
ATOM     29  S   UNL     1      -0.501   1.428   5.338  0.00  0.00    -0.024 S 
ATOM     30  N   UNL     1      -0.242   1.246   2.466  0.00  0.00    -0.263 N 
ATOM     31  C   UNL     1      -0.718   1.572   1.248  0.00  0.00    +0.229 C 
ATOM     32  O   UNL     1      -1.715   2.256   1.150  0.00  0.00    -0.275 OA
ATOM     33  H   UNL     1       0.662   0.625   2.555  0.00  0.00    +0.157 HD
BRANCH  25  34
ATOM     34  S   UNL     1      -2.336   2.691   7.663  0.00  0.00    -0.094 S 
BRANCH  34  35
ATOM     35  C   UNL     1      -3.827   3.715   7.519  0.00  0.00    +0.050 C 
ATOM     36  C   UNL     1      -3.466   5.052   6.870  0.00  0.00    +0.019 C 
BRANCH  35  38
ATOM     37  C   UNL     1      -4.886   2.639   9.510  0.00  0.00    +0.005 C 
ATOM     38  C   UNL     1      -4.410   3.965   8.911  0.00  0.00    +0.011 C 
ENDBRANCH  35  38
ENDBRANCH  34  35
ENDBRANCH  25  34
ENDBRANCH  24  31
ENDBRANCH  23  24
ENDBRANCH   1  23
TORSDOF 10
