REMARK  Name = ZINC49974402
REMARK  8 active torsions:
REMARK  status: ('A' for Active; 'I' for Inactive)
REMARK    1  A    between atoms: C_1  and  N_2
REMARK    2  A    between atoms: N_2  and  C_3
REMARK    3  A    between atoms: N_2  and  S_11
REMARK    4  A    between atoms: C_8  and  O_9
REMARK    5  A    between atoms: O_9  and  C_10
REMARK    6  A    between atoms: S_11  and  C_14
REMARK    7  A    between atoms: C_17  and  C_19
REMARK    8  A    between atoms: C_19  and  N_20
REMARK                            x       y       z     vdW  Elec       q    Type
REMARK                         _______ _______ _______ _____ _____    ______ ____
ROOT
ATOM      1  S   UNL     1      -0.000  -0.824  -1.437  0.00  0.00    +0.081 S 
ATOM      2  O   UNL     1      -0.531  -2.115  -1.167  0.00  0.00    -0.149 OA
ATOM      3  O   UNL     1      -0.572   0.049  -2.401  0.00  0.00    -0.149 OA
ENDROOT
BRANCH   1   4
ATOM      4  C   UNL     1       1.682  -1.059  -1.905  0.00  0.00    +0.146 A 
ATOM      5  C   UNL     1       2.513  -2.091  -1.615  0.00  0.00    +0.037 A 
ATOM      6  C   UNL     1       3.808  -2.063  -2.096  0.00  0.00    +0.011 A 
ATOM      7  C   UNL     1       4.210  -1.006  -2.843  0.00  0.00    -0.026 A 
ATOM      8  S   UNL     1       2.732  -0.005  -2.891  0.00  0.00    -0.075 S 
BRANCH   7   9
ATOM      9  C   UNL     1       5.553  -0.745  -3.474  0.00  0.00    -0.043 C 
BRANCH   9  10
ATOM     10  N   UNL     1       5.578  -1.315  -4.827  0.00  0.00    +0.381 N 
ATOM     11  H   UNL     1       5.418  -2.310  -4.776  0.00  0.00    -0.090 HD
ATOM     12  H   UNL     1       4.855  -0.886  -5.386  0.00  0.00    -0.090 HD
ATOM     13  H   UNL     1       6.478  -1.141  -5.250  0.00  0.00    -0.090 HD
ENDBRANCH   9  10
ENDBRANCH   7   9
ENDBRANCH   1   4
BRANCH   1  15
ATOM     14  C   UNL     1      -0.018   1.461   0.010  0.00  0.00    +0.158 C 
ATOM     15  N   UNL     1       0.002  -0.004   0.002  0.00  0.00    -0.202 N 
BRANCH  15  16
ATOM     16  C   UNL     1       0.023  -0.710   1.210  0.00  0.00    +0.092 A 
ATOM     17  C   UNL     1      -1.163  -0.992   1.872  0.00  0.00    +0.028 A 
ATOM     18  C   UNL     1      -1.140  -1.690   3.065  0.00  0.00    +0.002 A 
ATOM     19  C   UNL     1       0.064  -2.109   3.601  0.00  0.00    +0.004 A 
ATOM     20  C   UNL     1       1.250  -1.831   2.947  0.00  0.00    +0.047 A 
ATOM     21  C   UNL     1       1.235  -1.137   1.749  0.00  0.00    +0.143 A 
BRANCH  21  22
ATOM     22  O   UNL     1       2.401  -0.868   1.102  0.00  0.00    -0.493 OA
ATOM     23  C   UNL     1       3.605  -1.336   1.713  0.00  0.00    +0.277 C 
ENDBRANCH  21  22
ENDBRANCH  15  16
ENDBRANCH   1  15
TORSDOF 6
