REMARK  Name = ZINC62314411
REMARK  9 active torsions:
REMARK  status: ('A' for Active; 'I' for Inactive)
REMARK    1  A    between atoms: C_6  and  C_7
REMARK    2  A    between atoms: C_8  and  C_9
REMARK    3  A    between atoms: C_10  and  C_20
REMARK    4  A    between atoms: N_13  and  C_14
REMARK    5  A    between atoms: C_14  and  C_15
REMARK    6  A    between atoms: C_15  and  C_17
REMARK    7  A    between atoms: C_15  and  O_19
REMARK    8  A    between atoms: C_17  and  O_18
REMARK    9  A    between atoms: C_20  and  N_21
REMARK                            x       y       z     vdW  Elec       q    Type
REMARK                         _______ _______ _______ _____ _____    ______ ____
ROOT
ATOM      1  C   UNL     1      -2.438  -2.946  -0.021  0.00  0.00    +0.083 A 
ATOM      2  C   UNL     1      -3.560  -2.832   0.779  0.00  0.00    +0.073 A 
ATOM      3  N   UNL     1      -4.386  -3.809   0.401  0.00  0.00    -0.136 NA
ATOM      4  N   UNL     1      -3.845  -4.484  -0.549  0.00  0.00    -0.065 NA
ATOM      5  N   UNL     1      -2.686  -4.012  -0.845  0.00  0.00    -0.242 N 
ENDROOT
BRANCH   1   7
ATOM      6  C   UNL     1      -0.535  -1.964   1.144  0.00  0.00    +0.010 C 
ATOM      7  C   UNL     1      -1.238  -2.101   0.005  0.00  0.00    +0.030 C 
BRANCH   6  13
ATOM      8  C   UNL     1       1.463  -1.067   2.324  0.00  0.00    +0.009 A 
ATOM      9  C   UNL     1       2.648  -0.361   2.315  0.00  0.00    +0.020 A 
ATOM     10  C   UNL     1       3.112   0.204   1.139  0.00  0.00    +0.041 A 
ATOM     11  C   UNL     1       2.392   0.065  -0.036  0.00  0.00    +0.020 A 
ATOM     12  C   UNL     1       1.205  -0.638  -0.041  0.00  0.00    +0.009 A 
ATOM     13  C   UNL     1       0.731  -1.211   1.142  0.00  0.00    -0.025 A 
ATOM     14 CL   UNL     1       4.604   1.091   1.137  0.00  0.00    -0.084 Cl
ENDBRANCH   6  13
ENDBRANCH   1   7
BRANCH   5  15
ATOM     15  C   UNL     1      -1.786  -4.525  -1.881  0.00  0.00    +0.179 C 
BRANCH  15  16
ATOM     16  C   UNL     1      -0.869  -5.591  -1.277  0.00  0.00    +0.161 C 
BRANCH  16  17
ATOM     17  O   UNL     1      -1.650  -6.714  -0.865  0.00  0.00    -0.388 OA
ATOM     18  H   UNL     1      -2.143  -7.135  -1.582  0.00  0.00    +0.210 HD
ENDBRANCH  16  17
BRANCH  16  19
ATOM     19  C   UNL     1       0.152  -6.038  -2.325  0.00  0.00    +0.189 C 
BRANCH  19  20
ATOM     20  O   UNL     1       1.081  -6.946  -1.729  0.00  0.00    -0.392 OA
ATOM     21  H   UNL     1       1.759  -7.271  -2.337  0.00  0.00    +0.210 HD
ENDBRANCH  19  20
ENDBRANCH  16  19
ENDBRANCH  15  16
ENDBRANCH   5  15
BRANCH   2  22
ATOM     22  C   UNL     1      -3.801  -1.809   1.859  0.00  0.00    -0.026 C 
BRANCH  22  23
ATOM     23  N   UNL     1      -4.560  -0.680   1.305  0.00  0.00    +0.382 N 
ATOM     24  H   UNL     1      -4.002  -0.209   0.609  0.00  0.00    -0.090 HD
ATOM     25  H   UNL     1      -5.409  -1.022   0.881  0.00  0.00    -0.090 HD
ATOM     26  H   UNL     1      -4.791  -0.035   2.046  0.00  0.00    -0.090 HD
ENDBRANCH  22  23
ENDBRANCH   2  22
TORSDOF 9
