REMARK  Name = ZINC40740379
REMARK  9 active torsions:
REMARK  status: ('A' for Active; 'I' for Inactive)
REMARK    1  A    between atoms: C_1  and  C_2
REMARK    2  A    between atoms: C_2  and  C_4
REMARK    3  A    between atoms: C_2  and  N_7
REMARK    4  A    between atoms: N_7  and  C_8
REMARK    5  A    between atoms: C_18  and  O_20
REMARK    6  A    between atoms: O_20  and  C_21
REMARK    7  A    between atoms: C_21  and  C_22
REMARK    8  A    between atoms: C_21  and  C_23
REMARK    9  A    between atoms: C_21  and  C_24
REMARK                            x       y       z     vdW  Elec       q    Type
REMARK                         _______ _______ _______ _____ _____    ______ ____
ROOT
ATOM      1  C   UNL     1      -2.050  -0.126  -1.234  0.00  0.00    -0.068 C 
ATOM      2  C   UNL     1      -1.292  -0.716  -2.427  0.00  0.00    +0.007 C 
ATOM      3  C   UNL     1      -1.407  -2.248  -2.382  0.00  0.00    +0.078 C 
ATOM      4  C   UNL     1      -1.063  -2.706  -0.946  0.00  0.00    +0.024 C 
ATOM      5  C   UNL     1      -2.407  -2.670  -0.189  0.00  0.00    +0.024 C 
ATOM      6  C   UNL     1      -3.437  -2.193  -1.238  0.00  0.00    +0.078 C 
ATOM      7  C   UNL     1      -3.487  -0.657  -1.223  0.00  0.00    +0.007 C 
ATOM      8  N   UNL     1      -2.841  -2.587  -2.554  0.00  0.00    -0.261 N 
ATOM      9  C   UNL     1      -3.447  -3.125  -3.631  0.00  0.00    +0.404 C 
ATOM     10  O   UNL     1      -2.797  -3.393  -4.623  0.00  0.00    -0.226 OA
ENDROOT
BRANCH   1  11
ATOM     11  N   UNL     1      -1.376  -0.512   0.012  0.00  0.00    +0.383 N 
ATOM     12  H   UNL     1      -1.330  -1.519   0.072  0.00  0.00    -0.085 HD
ATOM     13  H   UNL     1      -1.893  -0.152   0.800  0.00  0.00    -0.085 HD
BRANCH  11  15
ATOM     14  C   UNL     1      -0.087   1.569   0.061  0.00  0.00    -0.013 C 
ATOM     15  C   UNL     1      -0.015   0.041   0.026  0.00  0.00    -0.071 C 
BRANCH  15  16
ATOM     16  C   UNL     1       0.729  -0.463   1.264  0.00  0.00    -0.025 C 
ATOM     17  C   UNL     1       1.886  -1.440   1.043  0.00  0.00    +0.002 C 
ATOM     18  C   UNL     1       2.172   0.005   1.460  0.00  0.00    +0.002 C 
ENDBRANCH  15  16
ENDBRANCH  11  15
ENDBRANCH   1  11
BRANCH   9  19
ATOM     19  O   UNL     1      -4.771  -3.366  -3.608  0.00  0.00    -0.445 OA
BRANCH  19  20
ATOM     20  C   UNL     1      -5.347  -3.938  -4.784  0.00  0.00    +0.107 C 
ATOM     21  C   UNL     1      -4.688  -5.289  -5.070  0.00  0.00    +0.055 C 
ATOM     22  C   UNL     1      -6.849  -4.138  -4.571  0.00  0.00    +0.055 C 
ATOM     23  C   UNL     1      -5.121  -2.999  -5.971  0.00  0.00    +0.055 C 
ENDBRANCH  19  20
ENDBRANCH   9  19
TORSDOF 5
