REMARK  Name = ZINC07340604
REMARK  11 active torsions:
REMARK  status: ('A' for Active; 'I' for Inactive)
REMARK    1  A    between atoms: C_1  and  C_2
REMARK    2  A    between atoms: C_2  and  C_3
REMARK    3  A    between atoms: C_3  and  C_4
REMARK    4  A    between atoms: C_4  and  N_5
REMARK    5  A    between atoms: C_6  and  N_27
REMARK    6  A    between atoms: C_7  and  N_14
REMARK    7  A    between atoms: N_14  and  C_15
REMARK    8  A    between atoms: C_15  and  C_16
REMARK    9  A    between atoms: C_17  and  C_19
REMARK   10  A    between atoms: C_19  and  N_57
REMARK   11  A    between atoms: C_23  and  C_26
REMARK                            x       y       z     vdW  Elec       q    Type
REMARK                         _______ _______ _______ _____ _____    ______ ____
ROOT
ATOM      1  N   UNL     1       1.389   4.118   4.178  0.00  0.00    -0.280 N 
ATOM      2  C   UNL     1       0.460   3.331   3.537  0.00  0.00    +0.127 A 
ATOM      3  C   UNL     1       0.782   2.026   3.224  0.00  0.00    +0.140 A 
ATOM      4  C   UNL     1       2.060   1.543   3.563  0.00  0.00    +0.277 A 
ATOM      5  O   UNL     1       2.374   0.396   3.294  0.00  0.00    -0.266 OA
ATOM      6  N   UNL     1       2.936   2.357   4.185  0.00  0.00    -0.273 N 
ATOM      7  H   UNL     1       3.844   2.014   4.426  0.00  0.00    +0.173 HD
ATOM      8  C   UNL     1       2.602   3.624   4.486  0.00  0.00    +0.331 A 
ATOM      9  O   UNL     1       3.411   4.337   5.048  0.00  0.00    -0.246 OA
ENDROOT
BRANCH   3  10
ATOM     10  N   UNL     1      -0.151   1.193   2.572  0.00  0.00    -0.266 N 
ATOM     11  C   UNL     1      -0.672   0.129   3.219  0.00  0.00    +0.203 C 
ATOM     12  O   UNL     1      -0.401  -0.065   4.385  0.00  0.00    -0.277 OA
BRANCH  10  13
ATOM     13  C   UNL     1      -0.553   1.482   1.194  0.00  0.00    +0.110 C 
ATOM     14  C   UNL     1       0.443   0.842   0.226  0.00  0.00    +0.025 C 
ENDBRANCH  10  13
BRANCH  11  15
ATOM     15  C   UNL     1      -1.591  -0.818   2.491  0.00  0.00    +0.019 C 
BRANCH  15  22
ATOM     16  C   UNL     1      -3.032  -2.739   2.798  0.00  0.00    -0.078 C 
ATOM     17  C   UNL     1      -3.488  -3.791   3.812  0.00  0.00    -0.018 C 
ATOM     18  C   UNL     1      -2.298  -4.678   4.189  0.00  0.00    -0.001 C 
ATOM     19  C   UNL     1      -1.176  -3.801   4.751  0.00  0.00    -0.031 C 
ATOM     20  C   UNL     1      -0.787  -2.749   3.710  0.00  0.00    -0.075 C 
ATOM     21  C   UNL     1       0.040  -4.673   5.074  0.00  0.00    +0.005 C 
ATOM     22  N   UNL     1      -1.969  -1.913   3.408  0.00  0.00    +0.386 N 
ATOM     23  H   UNL     1      -2.322  -1.508   4.283  0.00  0.00    -0.081 HD
ENDBRANCH  15  22
ENDBRANCH  11  15
ENDBRANCH   3  10
BRANCH   2  24
ATOM     24  N   UNL     1      -0.777   3.838   3.216  0.00  0.00    -0.343 N 
ATOM     25  H   UNL     1      -1.407   3.297   2.714  0.00  0.00    +0.144 HD
ATOM     26  H   UNL     1      -1.020   4.736   3.491  0.00  0.00    +0.144 HD
ENDBRANCH   2  24
BRANCH   1  27
ATOM     27  C   UNL     1       1.058   5.503   4.521  0.00  0.00    +0.128 C 
BRANCH  27  28
ATOM     28  C   UNL     1       1.446   6.422   3.361  0.00  0.00    +0.021 C 
BRANCH  28  30
ATOM     29  C   UNL     1       1.488   8.788   2.558  0.00  0.00    +0.004 C 
ATOM     30  C   UNL     1       1.100   7.869   3.718  0.00  0.00    -0.002 C 
ENDBRANCH  28  30
ENDBRANCH  27  28
ENDBRANCH   1  27
TORSDOF 8
