REMARK  Name = ZINC13566986
REMARK  9 active torsions:
REMARK  status: ('A' for Active; 'I' for Inactive)
REMARK    1  A    between atoms: C_1  and  C_2
REMARK    2  A    between atoms: C_2  and  C_4
REMARK    3  A    between atoms: C_2  and  S_16
REMARK    4  A    between atoms: C_4  and  C_6
REMARK    5  A    between atoms: S_16  and  C_17
REMARK    6  A    between atoms: C_19  and  C_30
REMARK    7  A    between atoms: C_20  and  C_23
REMARK    8  A    between atoms: C_26  and  O_29
REMARK    9  A    between atoms: C_33  and  O_36
REMARK                            x       y       z     vdW  Elec       q    Type
REMARK                         _______ _______ _______ _____ _____    ______ ____
ROOT
ATOM      1  C   UNL     1       2.533  -0.074   1.148  0.00  0.00    +0.211 A 
ATOM      2  N   UNL     1       3.480  -0.636   1.889  0.00  0.00    -0.218 NA
ATOM      3  C   UNL     1       4.730  -0.186   1.804  0.00  0.00    +0.102 A 
ATOM      4  C   UNL     1       5.003   0.880   0.921  0.00  0.00    +0.119 A 
ATOM      5  N   UNL     1       4.007   1.395   0.209  0.00  0.00    -0.145 NA
ATOM      6  N   UNL     1       2.814   0.925   0.320  0.00  0.00    -0.122 NA
ENDROOT
BRANCH   4   7
ATOM      7  C   UNL     1       6.377   1.416   0.791  0.00  0.00    +0.004 A 
ATOM      8  C   UNL     1       6.906   1.684  -0.471  0.00  0.00    +0.014 A 
ATOM      9  C   UNL     1       8.186   2.183  -0.589  0.00  0.00    +0.046 A 
ATOM     10  C   UNL     1       8.948   2.419   0.548  0.00  0.00    +0.117 A 
ATOM     11  C   UNL     1       8.425   2.153   1.806  0.00  0.00    +0.046 A 
ATOM     12  C   UNL     1       7.143   1.659   1.931  0.00  0.00    +0.014 A 
BRANCH  10  13
ATOM     13  O   UNL     1      10.209   2.911   0.428  0.00  0.00    -0.507 OA
ATOM     14  H   UNL     1      10.257   3.877   0.436  0.00  0.00    +0.292 HD
ENDBRANCH  10  13
ENDBRANCH   4   7
BRANCH   3  15
ATOM     15  C   UNL     1       5.809  -0.790   2.617  0.00  0.00    +0.003 A 
ATOM     16  C   UNL     1       7.043  -1.083   2.035  0.00  0.00    +0.013 A 
ATOM     17  C   UNL     1       8.046  -1.646   2.796  0.00  0.00    +0.046 A 
ATOM     18  C   UNL     1       7.829  -1.920   4.140  0.00  0.00    +0.117 A 
ATOM     19  C   UNL     1       6.602  -1.630   4.723  0.00  0.00    +0.046 A 
ATOM     20  C   UNL     1       5.596  -1.063   3.969  0.00  0.00    +0.013 A 
BRANCH  18  21
ATOM     21  O   UNL     1       8.819  -2.474   4.887  0.00  0.00    -0.507 OA
ATOM     22  H   UNL     1       9.397  -1.828   5.315  0.00  0.00    +0.292 HD
ENDBRANCH  18  21
ENDBRANCH   3  15
BRANCH   1  23
ATOM     23  S   UNL     1       0.878  -0.669   1.259  0.00  0.00    -0.073 S 
BRANCH  23  25
ATOM     24  C   UNL     1      -0.031   1.819   0.576  0.00  0.00    +0.028 C 
ATOM     25  C   UNL     1      -0.041   0.369   0.088  0.00  0.00    +0.122 C 
BRANCH  25  26
ATOM     26  C   UNL     1      -1.463  -0.119  -0.006  0.00  0.00    +0.176 C 
ATOM     27  O   UNL     1      -1.957  -0.731   0.917  0.00  0.00    -0.291 OA
BRANCH  26  28
ATOM     28  C   UNL     1      -2.251   0.145  -1.217  0.00  0.00    +0.019 A 
ATOM     29  C   UNL     1      -1.684   0.845  -2.289  0.00  0.00    +0.013 A 
ATOM     30  C   UNL     1      -2.415   1.092  -3.414  0.00  0.00    +0.024 A 
ATOM     31  C   UNL     1      -3.737   0.650  -3.512  0.00  0.00    +0.037 A 
ATOM     32  C   UNL     1      -4.301  -0.047  -2.446  0.00  0.00    -0.017 A 
ATOM     33  C   UNL     1      -3.575  -0.307  -1.312  0.00  0.00    +0.017 A 
ATOM     34  C   UNL     1      -5.716  -0.380  -2.858  0.00  0.00    +0.133 C 
ATOM     35  C   UNL     1      -5.841   0.211  -4.247  0.00  0.00    +0.222 C 
ATOM     36  O   UNL     1      -6.822   0.176  -4.958  0.00  0.00    -0.275 OA
ATOM     37  N   UNL     1      -4.661   0.781  -4.542  0.00  0.00    -0.285 N 
ATOM     38  H   UNL     1      -4.475   1.234  -5.379  0.00  0.00    +0.155 HD
ENDBRANCH  26  28
ENDBRANCH  25  26
ENDBRANCH  23  25
ENDBRANCH   1  23
TORSDOF 8
