REMARK  Name = ZINC03454625
REMARK  7 active torsions:
REMARK  status: ('A' for Active; 'I' for Inactive)
REMARK    1  A    between atoms: C_1  and  O_2
REMARK    2  A    between atoms: O_2  and  C_3
REMARK    3  A    between atoms: C_3  and  C_5
REMARK    4  A    between atoms: C_12  and  S_22
REMARK    5  A    between atoms: N_13  and  C_16
REMARK    6  A    between atoms: S_22  and  C_23
REMARK    7  A    between atoms: C_23  and  C_24
REMARK                            x       y       z     vdW  Elec       q    Type
REMARK                         _______ _______ _______ _____ _____    ______ ____
ROOT
ATOM      1  C   UNL     1       3.797   3.220  -0.410  0.00  0.00    +0.061 A 
ATOM      2  C   UNL     1       2.673   3.882  -0.922  0.00  0.00    +0.016 A 
ATOM      3  C   UNL     1       1.456   3.264  -0.952  0.00  0.00    +0.016 A 
ATOM      4  C   UNL     1       1.326   1.961  -0.470  0.00  0.00    +0.065 A 
ATOM      5  C   UNL     1       2.450   1.279   0.049  0.00  0.00    +0.080 A 
ATOM      6  C   UNL     1       3.690   1.923   0.075  0.00  0.00    +0.043 A 
ATOM      7  N   UNL     1       2.300   0.015   0.511  0.00  0.00    -0.223 NA
ATOM      8  C   UNL     1       1.138  -0.590   0.487  0.00  0.00    +0.177 A 
ATOM      9  N   UNL     1       0.002  -0.004   0.002  0.00  0.00    -0.255 N 
ATOM     10  C   UNL     1       0.034   1.258  -0.485  0.00  0.00    +0.267 A 
ATOM     11  O   UNL     1      -0.969   1.790  -0.924  0.00  0.00    -0.267 OA
ENDROOT
BRANCH   9  12
ATOM     12  C   UNL     1      -1.204  -0.715   0.010  0.00  0.00    +0.052 A 
ATOM     13  C   UNL     1      -1.559  -1.496  -1.083  0.00  0.00    +0.026 A 
ATOM     14  C   UNL     1      -2.747  -2.200  -1.070  0.00  0.00    +0.002 A 
ATOM     15  C   UNL     1      -3.588  -2.120   0.025  0.00  0.00    +0.000 A 
ATOM     16  C   UNL     1      -3.241  -1.339   1.112  0.00  0.00    +0.002 A 
ATOM     17  C   UNL     1      -2.051  -0.637   1.107  0.00  0.00    +0.026 A 
ENDBRANCH   9  12
BRANCH   1  18
ATOM     18  C   UNL     1       5.107   3.908  -0.386  0.00  0.00    +0.339 C 
ATOM     19  O   UNL     1       6.084   3.338   0.056  0.00  0.00    -0.245 OA
BRANCH  18  21
ATOM     20  C   UNL     1       6.531   5.778  -0.801  0.00  0.00    +0.280 C 
ATOM     21  O   UNL     1       5.215   5.165  -0.855  0.00  0.00    -0.464 OA
ENDBRANCH  18  21
ENDBRANCH   1  18
BRANCH   8  22
ATOM     22  S   UNL     1       1.036  -2.236   1.108  0.00  0.00    -0.078 S 
BRANCH  22  23
ATOM     23  C   UNL     1       2.759  -2.495   1.597  0.00  0.00    +0.173 C 
BRANCH  23  24
ATOM     24  C   UNL     1       2.915  -3.879   2.174  0.00  0.00    +0.231 C 
ATOM     25  O   UNL     1       1.955  -4.617   2.247  0.00  0.00    -0.274 OA
ATOM     26  N   UNL     1       4.120  -4.296   2.609  0.00  0.00    -0.240 N 
ATOM     27  C   UNL     1       4.260  -5.534   3.124  0.00  0.00    +0.303 C 
ATOM     28  O   UNL     1       3.298  -6.273   3.198  0.00  0.00    -0.253 OA
ATOM     29  N   UNL     1       5.465  -5.951   3.559  0.00  0.00    -0.313 N 
ATOM     30  H   UNL     1       4.888  -3.706   2.550  0.00  0.00    +0.159 HD
ATOM     31  H   UNL     1       6.233  -5.361   3.501  0.00  0.00    +0.146 HD
ATOM     32  H   UNL     1       5.565  -6.841   3.930  0.00  0.00    +0.146 HD
ENDBRANCH  23  24
ENDBRANCH  22  23
ENDBRANCH   8  22
TORSDOF 6
