REMARK  Name = ZINC52849455
REMARK  6 active torsions:
REMARK  status: ('A' for Active; 'I' for Inactive)
REMARK    1  A    between atoms: C_1  and  C_2
REMARK    2  A    between atoms: N_4  and  C_5
REMARK    3  A    between atoms: C_5  and  C_6
REMARK    4  A    between atoms: N_9  and  C_12
REMARK    5  A    between atoms: C_12  and  C_13
REMARK    6  A    between atoms: C_19  and  C_22
REMARK                            x       y       z     vdW  Elec       q    Type
REMARK                         _______ _______ _______ _____ _____    ______ ____
ROOT
ATOM      1  C   UNL     1      -5.845  -6.436  -1.348  0.00  0.00    +0.199 C 
ATOM      2  O   UNL     1      -4.760  -6.975  -1.297  0.00  0.00    -0.278 OA
ATOM      3  N   UNL     1      -6.965  -7.182  -1.434  0.00  0.00    -0.298 N 
ATOM      4  C   UNL     1      -8.292  -6.550  -1.503  0.00  0.00    +0.136 C 
ATOM      5  C   UNL     1      -9.193  -7.202  -0.448  0.00  0.00    +0.179 C 
ATOM      6  O   UNL     1      -9.156  -8.622  -0.610  0.00  0.00    -0.369 OA
ATOM      7  C   UNL     1      -7.865  -9.201  -0.409  0.00  0.00    +0.166 C 
ATOM      8  C   UNL     1      -6.895  -8.651  -1.467  0.00  0.00    +0.144 C 
ENDROOT
BRANCH   7   9
ATOM      9  C   UNL     1      -7.958 -10.699  -0.542  0.00  0.00    -0.017 A 
ATOM     10  C   UNL     1      -8.753 -11.256  -1.527  0.00  0.00    +0.009 A 
ATOM     11  C   UNL     1      -8.839 -12.630  -1.651  0.00  0.00    +0.039 A 
ATOM     12  C   UNL     1      -8.130 -13.448  -0.788  0.00  0.00    +0.123 A 
ATOM     13  C   UNL     1      -7.335 -12.889   0.198  0.00  0.00    +0.039 A 
ATOM     14  C   UNL     1      -7.246 -11.515   0.316  0.00  0.00    +0.009 A 
ATOM     15  F   UNL     1      -8.213 -14.791  -0.908  0.00  0.00    -0.205 F 
ENDBRANCH   7   9
BRANCH   1  16
ATOM     16  C   UNL     1      -5.942  -4.933  -1.315  0.00  0.00    +0.019 C 
BRANCH  16  20
ATOM     17  C   UNL     1      -2.571  -2.688   0.012  0.00  0.00    +0.003 C 
ATOM     18  C   UNL     1      -3.272  -2.295  -1.291  0.00  0.00    -0.014 C 
ATOM     19  C   UNL     1      -4.680  -2.895  -1.308  0.00  0.00    -0.078 C 
ATOM     20  N   UNL     1      -4.593  -4.357  -1.220  0.00  0.00    +0.385 N 
ATOM     21  C   UNL     1      -3.987  -4.744   0.060  0.00  0.00    -0.078 C 
ATOM     22  C   UNL     1      -2.553  -4.215   0.130  0.00  0.00    -0.014 C 
ATOM     23  H   UNL     1      -4.027  -4.706  -1.978  0.00  0.00    -0.081 HD
BRANCH  17  24
ATOM     24  C   UNL     1      -1.136  -2.159   0.001  0.00  0.00    +0.107 C 
BRANCH  24  28
ATOM     25  C   UNL     1      -0.018   1.503   0.010  0.00  0.00    +0.109 C 
ATOM     26  C   UNL     1       0.002  -0.004   0.002  0.00  0.00    +0.210 C 
ATOM     27  O   UNL     1       1.060  -0.596  -0.011  0.00  0.00    -0.276 OA
ATOM     28  N   UNL     1      -1.156  -0.694   0.009  0.00  0.00    -0.315 N 
ATOM     29  H   UNL     1      -2.002  -0.220   0.020  0.00  0.00    +0.149 HD
ENDBRANCH  24  28
ENDBRANCH  17  24
ENDBRANCH  16  20
ENDBRANCH   1  16
TORSDOF 5
