REMARK  Name = ZINC66407132
REMARK  6 active torsions:
REMARK  status: ('A' for Active; 'I' for Inactive)
REMARK    1  A    between atoms: C_1  and  C_2
REMARK    2  A    between atoms: C_2  and  C_3
REMARK    3  A    between atoms: C_2  and  C_4
REMARK    4  A    between atoms: C_2  and  C_5
REMARK    5  A    between atoms: C_6  and  C_11
REMARK    6  A    between atoms: C_18  and  O_22
REMARK                            x       y       z     vdW  Elec       q    Type
REMARK                         _______ _______ _______ _____ _____    ______ ____
ROOT
ATOM      1  C   UNL     1       0.494  -3.024  -0.838  0.00  0.00    +0.061 C 
ATOM      2  C   UNL     1       1.156  -4.201  -0.987  0.00  0.00    +0.176 C 
ATOM      3  C   UNL     1       2.371  -4.418  -1.781  0.00  0.00    +0.231 C 
ATOM      4  O   UNL     1       2.992  -3.596  -2.434  0.00  0.00    -0.283 OA
ATOM      5  C   UNL     1       2.675  -5.850  -1.610  0.00  0.00    +0.068 A 
ATOM      6  C   UNL     1       3.688  -6.676  -2.099  0.00  0.00    +0.019 A 
ATOM      7  C   UNL     1       3.709  -8.000  -1.760  0.00  0.00    +0.046 A 
ATOM      8  C   UNL     1       2.724  -8.525  -0.928  0.00  0.00    +0.120 A 
ATOM      9  C   UNL     1       1.712  -7.717  -0.436  0.00  0.00    +0.092 A 
ATOM     10  C   UNL     1       1.676  -6.369  -0.771  0.00  0.00    +0.143 A 
ATOM     11  O   UNL     1       0.817  -5.386  -0.425  0.00  0.00    -0.451 OA
ENDROOT
BRANCH   1  13
ATOM     12  C   UNL     1       0.911  -0.510  -1.202  0.00  0.00    +0.075 A 
ATOM     13  C   UNL     1       0.884  -1.856  -1.638  0.00  0.00    +0.019 A 
ATOM     14  C   UNL     1       1.296  -1.865  -2.959  0.00  0.00    +0.113 A 
ATOM     15  N   UNL     1       1.557  -0.593  -3.305  0.00  0.00    -0.284 N 
ATOM     16  H   UNL     1       1.864  -0.294  -4.176  0.00  0.00    +0.188 HD
ATOM     17  N   UNL     1       1.306   0.230  -2.201  0.00  0.00    -0.178 NA
BRANCH  12  19
ATOM     18  C   UNL     1       0.700   1.504   0.228  0.00  0.00    +0.017 C 
ATOM     19  C   UNL     1       0.541  -0.017   0.172  0.00  0.00    +0.007 C 
ATOM     20  C   UNL     1       1.460  -0.664   1.211  0.00  0.00    +0.017 C 
ATOM     21  C   UNL     1      -0.912  -0.389   0.474  0.00  0.00    +0.017 C 
ENDBRANCH  12  19
ENDBRANCH   1  13
BRANCH   8  22
ATOM     22  O   UNL     1       2.755  -9.841  -0.598  0.00  0.00    -0.507 OA
ATOM     23  H   UNL     1       3.259 -10.034   0.205  0.00  0.00    +0.292 HD
ENDBRANCH   8  22
TORSDOF 3
