REMARK  Name = ZINC03902895
REMARK  7 active torsions:
REMARK  status: ('A' for Active; 'I' for Inactive)
REMARK    1  A    between atoms: C_3  and  C_10
REMARK    2  A    between atoms: C_5  and  N_7
REMARK    3  A    between atoms: C_13  and  C_15
REMARK    4  A    between atoms: C_16  and  C_17
REMARK    5  A    between atoms: C_16  and  C_19
REMARK    6  A    between atoms: C_20  and  C_26
REMARK    7  A    between atoms: C_21  and  N_25
REMARK                            x       y       z     vdW  Elec       q    Type
REMARK                         _______ _______ _______ _____ _____    ______ ____
ROOT
ATOM      1  C   UNL     1       7.179   2.405  -0.062  0.00  0.00    +0.067 C 
ATOM      2  C   UNL     1       7.726   1.103  -0.081  0.00  0.00    +0.084 C 
ENDROOT
BRANCH   2   3
ATOM      3  C   UNL     1       9.132   0.926  -0.100  0.00  0.00    +0.122 A 
ATOM      4  C   UNL     1       9.863  -0.355  -0.127  0.00  0.00    +0.119 A 
ATOM      5  C   UNL     1      11.204   0.017  -0.137  0.00  0.00    +0.130 A 
ATOM      6  N   UNL     1      11.237   1.381  -0.119  0.00  0.00    -0.263 N 
ATOM      7  H   UNL     1      12.053   1.906  -0.121  0.00  0.00    +0.190 HD
ATOM      8  N   UNL     1      10.058   1.881  -0.103  0.00  0.00    -0.170 NA
BRANCH   5   9
ATOM      9  N   UNL     1      12.289  -0.829  -0.162  0.00  0.00    -0.342 N 
ATOM     10  H   UNL     1      12.155  -1.790  -0.173  0.00  0.00    +0.144 HD
ATOM     11  H   UNL     1      13.188  -0.465  -0.167  0.00  0.00    +0.144 HD
ENDBRANCH   5   9
BRANCH   4  12
ATOM     12  C   UNL     1       9.317  -1.679  -0.138  0.00  0.00    +0.105 C 
ATOM     13  N   UNL     1       8.884  -2.729  -0.147  0.00  0.00    -0.191 NA
ENDBRANCH   4  12
ENDBRANCH   2   3
BRANCH   1  17
ATOM     14  C   UNL     1       3.650   2.150  -0.022  0.00  0.00    +0.136 A 
ATOM     15  C   UNL     1       3.765   3.553  -0.010  0.00  0.00    +0.050 A 
ATOM     16  C   UNL     1       5.092   3.857  -0.024  0.00  0.00    +0.050 A 
ATOM     17  C   UNL     1       5.807   2.578  -0.044  0.00  0.00    +0.130 A 
ATOM     18  O   UNL     1       4.875   1.598  -0.036  0.00  0.00    -0.455 OA
BRANCH  14  21
ATOM     19  C   UNL     1      -0.017   1.382   0.010  0.00  0.00    +0.003 A 
ATOM     20  C   UNL     1       1.163   2.091   0.002  0.00  0.00    +0.012 A 
ATOM     21  C   UNL     1       2.389   1.405  -0.013  0.00  0.00    +0.019 A 
ATOM     22  C   UNL     1       2.397  -0.000  -0.021  0.00  0.00    +0.044 A 
ATOM     23  C   UNL     1       1.207  -0.691  -0.013  0.00  0.00    +0.127 A 
ATOM     24  C   UNL     1       0.002  -0.004   0.002  0.00  0.00    +0.033 A 
BRANCH  23  25
ATOM     25  N   UNL     1       1.212  -2.171  -0.021  0.00  0.00    +0.056 N 
ATOM     26  O   UNL     1       2.355  -2.825  -0.036  0.00  0.00    -0.126 OA
ATOM     27  O   UNL     1       0.074  -2.833  -0.014  0.00  0.00    -0.126 OA
ENDBRANCH  23  25
ENDBRANCH  14  21
ENDBRANCH   1  17
BRANCH   2  28
ATOM     28  C   UNL     1       6.861  -0.037  -0.081  0.00  0.00    +0.102 C 
ATOM     29  N   UNL     1       6.174  -0.942  -0.081  0.00  0.00    -0.191 NA
ENDBRANCH   2  28
TORSDOF 7
