REMARK  Name = ZINC44515375
REMARK  4 active torsions:
REMARK  status: ('A' for Active; 'I' for Inactive)
REMARK    1  A    between atoms: C_1  and  N_2
REMARK    2  A    between atoms: C_5  and  C_8
REMARK    3  A    between atoms: C_8  and  N_9
REMARK    4  A    between atoms: N_9  and  C_10
REMARK                            x       y       z     vdW  Elec       q    Type
REMARK                         _______ _______ _______ _____ _____    ______ ____
ROOT
ATOM      1  N   UNL     1       1.997  -4.654   1.084  0.00  0.00    +0.381 N 
ATOM      2  H   UNL     1       2.967  -4.389   0.999  0.00  0.00    -0.086 HD
ATOM      3  H   UNL     1       1.623  -4.293   1.948  0.00  0.00    -0.086 HD
ENDROOT
BRANCH   1   4
ATOM      4  C   UNL     1       1.889  -6.120   1.077  0.00  0.00    -0.068 C 
ATOM      5  C   UNL     1       0.472  -6.550   1.542  0.00  0.00    -0.012 C 
ATOM      6  C   UNL     1       0.756  -7.132   2.988  0.00  0.00    -0.009 C 
ATOM      7  C   UNL     1       2.042  -7.972   2.583  0.00  0.00    +0.006 C 
ATOM      8  C   UNL     1       2.888  -6.727   2.082  0.00  0.00    -0.021 C 
ATOM      9  C   UNL     1       2.897  -5.974   3.405  0.00  0.00    -0.006 C 
ATOM     10  C   UNL     1       1.317  -5.905   3.640  0.00  0.00    -0.005 C 
ATOM     11  C   UNL     1       1.115  -5.112   4.857  0.00  0.00    +0.004 C 
ATOM     12  C   UNL     1       2.257  -4.043   4.767  0.00  0.00    +0.001 C 
ATOM     13  C   UNL     1       3.193  -4.482   3.496  0.00  0.00    +0.004 C 
ENDBRANCH   1   4
BRANCH   1  14
ATOM     14  C   UNL     1       1.238  -4.102  -0.046  0.00  0.00    -0.079 C 
BRANCH  14  19
ATOM     15  C   UNL     1      -0.003   1.464  -0.024  0.00  0.00    -0.096 C 
ATOM     16  N   UNL     1       0.017  -0.005  -0.030  0.00  0.00    +0.378 N 
ATOM     17  C   UNL     1       0.713  -0.478  -1.232  0.00  0.00    -0.079 C 
ATOM     18  C   UNL     1       0.666  -2.007  -1.285  0.00  0.00    -0.017 C 
ATOM     19  C   UNL     1       1.351  -2.576  -0.040  0.00  0.00    -0.032 C 
ATOM     20  C   UNL     1       0.664  -2.018   1.209  0.00  0.00    -0.017 C 
ATOM     21  C   UNL     1       0.711  -0.489   1.170  0.00  0.00    -0.079 C 
ATOM     22  H   UNL     1      -0.930  -0.353  -0.033  0.00  0.00    -0.082 HD
ENDBRANCH  14  19
ENDBRANCH   1  14
TORSDOF 3
