REMARK  Name = ZINC19681445
REMARK  3 active torsions:
REMARK  status: ('A' for Active; 'I' for Inactive)
REMARK    1  A    between atoms: C_1  and  C_2
REMARK    2  A    between atoms: C_6  and  S_8
REMARK    3  A    between atoms: S_8  and  N_11
REMARK                            x       y       z     vdW  Elec       q    Type
REMARK                         _______ _______ _______ _____ _____    ______ ____
ROOT
ATOM      1  N   UNL     1      -2.170   2.309   4.884  0.00  0.00    -0.103 NA
ATOM      2  C   UNL     1      -1.759   2.157   3.569  0.00  0.00    +0.192 A 
ATOM      3  N   UNL     1      -2.163   2.805   2.494  0.00  0.00    -0.336 N 
ATOM      4  C   UNL     1      -1.669   2.547   1.287  0.00  0.00    +0.024 A 
ATOM      5  C   UNL     1      -0.723   1.573   1.224  0.00  0.00    -0.005 A 
ATOM      6  S   UNL     1      -0.577   1.063   2.913  0.00  0.00    -0.055 S 
ATOM      7  C   UNL     1      -0.013   1.086   0.008  0.00  0.00    -0.038 C 
ATOM      8  N   UNL     1      -0.739   1.581  -1.178  0.00  0.00    +0.382 N 
ATOM      9  C   UNL     1      -1.017   3.019  -1.053  0.00  0.00    -0.076 C 
ATOM     10  C   UNL     1      -2.092   3.263   0.009  0.00  0.00    +0.035 C 
ATOM     11  H   UNL     1      -0.129   1.413  -2.078  0.00  0.00    -0.085 HD
ATOM     12  H   UNL     1      -2.931   3.587   2.580  0.00  0.00    +0.168 HD
ATOM     13  H   UNL     1      -1.693   1.042  -1.276  0.00  0.00    -0.085 HD
ENDROOT
BRANCH   1  14
ATOM     14  S   UNL     1      -1.506   1.366   6.073  0.00  0.00    +0.101 S 
ATOM     15  O   UNL     1      -2.106   1.773   7.295  0.00  0.00    -0.146 OA
ATOM     16  O   UNL     1      -1.562   0.025   5.606  0.00  0.00    -0.146 OA
BRANCH  14  22
ATOM     17  C   UNL     1       3.485   0.714   4.664  0.00  0.00    +0.044 C 
ATOM     18  C   UNL     1       2.470   1.449   5.501  0.00  0.00    -0.049 A 
ATOM     19  C   UNL     1       2.878   2.456   6.356  0.00  0.00    +0.003 A 
ATOM     20  C   UNL     1       1.947   3.130   7.125  0.00  0.00    +0.002 A 
ATOM     21  C   UNL     1       0.608   2.797   7.038  0.00  0.00    +0.029 A 
ATOM     22  C   UNL     1       0.200   1.791   6.183  0.00  0.00    +0.113 A 
ATOM     23  C   UNL     1       1.132   1.113   5.418  0.00  0.00    +0.032 A 
ENDBRANCH  14  22
ENDBRANCH   1  14
TORSDOF 2
