REMARK  Name = ZINC02742521
REMARK  8 active torsions:
REMARK  status: ('A' for Active; 'I' for Inactive)
REMARK    1  A    between atoms: C_1  and  C_2
REMARK    2  A    between atoms: C_2  and  C_3
REMARK    3  A    between atoms: C_3  and  C_4
REMARK    4  A    between atoms: C_3  and  C_5
REMARK    5  A    between atoms: C_3  and  C_6
REMARK    6  A    between atoms: C_13  and  N_18
REMARK    7  A    between atoms: C_14  and  C_15
REMARK    8  A    between atoms: C_19  and  C_21
REMARK                            x       y       z     vdW  Elec       q    Type
REMARK                         _______ _______ _______ _____ _____    ______ ____
ROOT
ATOM      1  C   UNL     1       4.508   1.223  -7.965  0.00  0.00    -0.000 C 
ATOM      2  C   UNL     1       3.793  -0.105  -8.229  0.00  0.00    +0.009 C 
ATOM      3  C   UNL     1       3.475  -0.798  -6.903  0.00  0.00    +0.037 C 
ATOM      4  C   UNL     1       2.738   0.185  -6.001  0.00  0.00    -0.023 A 
ATOM      5  C   UNL     1       2.780   1.514  -6.239  0.00  0.00    -0.004 A 
ATOM      6  S   UNL     1       1.795   2.234  -4.957  0.00  0.00    -0.077 S 
ATOM      7  C   UNL     1       1.333   0.792  -4.115  0.00  0.00    +0.084 A 
ATOM      8  C   UNL     1       1.956  -0.212  -4.843  0.00  0.00    +0.068 A 
ATOM      9  C   UNL     1       3.506   2.210  -7.348  0.00  0.00    +0.046 C 
ENDROOT
BRANCH   8  10
ATOM     10  C   UNL     1       1.826  -1.621  -4.459  0.00  0.00    +0.244 C 
ATOM     11  O   UNL     1       0.918  -2.294  -4.911  0.00  0.00    -0.270 OA
ATOM     12  N   UNL     1       2.713  -2.172  -3.606  0.00  0.00    -0.325 N 
ATOM     13  H   UNL     1       3.436  -1.636  -3.246  0.00  0.00    +0.145 HD
ATOM     14  H   UNL     1       2.627  -3.104  -3.353  0.00  0.00    +0.145 HD
ENDBRANCH   8  10
BRANCH   7  15
ATOM     15  N   UNL     1       0.539   0.671  -2.985  0.00  0.00    -0.277 N 
ATOM     16  C   UNL     1       0.019   1.771  -2.405  0.00  0.00    +0.246 C 
ATOM     17  O   UNL     1       0.246   2.867  -2.872  0.00  0.00    -0.273 OA
ATOM     18  H   UNL     1       0.357  -0.206  -2.611  0.00  0.00    +0.155 HD
BRANCH  16  19
ATOM     19  C   UNL     1      -0.844   1.640  -1.177  0.00  0.00    +0.204 C 
ATOM     20  C   UNL     1      -0.013   1.086   0.008  0.00  0.00    +0.043 C 
ATOM     21  C   UNL     1      -0.823   1.628   1.217  0.00  0.00    +0.031 C 
ATOM     22  C   UNL     1      -1.334   2.985   0.686  0.00  0.00    +0.161 C 
ATOM     23  O   UNL     1      -1.297   2.933  -0.745  0.00  0.00    -0.367 OA
ENDBRANCH  16  19
ENDBRANCH   7  15
BRANCH   1  24
ATOM     24  C   UNL     1       5.040   1.790  -9.283  0.00  0.00    -0.032 C 
ATOM     25  C   UNL     1       6.038   0.804  -9.895  0.00  0.00    +0.011 C 
ATOM     26  C   UNL     1       3.877   2.006 -10.253  0.00  0.00    +0.011 C 
BRANCH  24  28
ATOM     27  C   UNL     1       6.271   3.691 -10.336  0.00  0.00    +0.004 C 
ATOM     28  C   UNL     1       5.739   3.125  -9.019  0.00  0.00    +0.003 C 
ENDBRANCH  24  28
ENDBRANCH   1  24
TORSDOF 5
