REMARK  Name = ZINC62394374
REMARK  7 active torsions:
REMARK  status: ('A' for Active; 'I' for Inactive)
REMARK    1  A    between atoms: C_2  and  C_12
REMARK    2  A    between atoms: N_3  and  C_9
REMARK    3  A    between atoms: C_5  and  O_8
REMARK    4  A    between atoms: C_12  and  N_13
REMARK    5  A    between atoms: C_18  and  C_20
REMARK    6  A    between atoms: C_20  and  C_21
REMARK    7  A    between atoms: C_21  and  O_22
REMARK                            x       y       z     vdW  Elec       q    Type
REMARK                         _______ _______ _______ _____ _____    ______ ____
ROOT
ATOM      1  C   UNL     1       2.422   1.904  -1.019  0.00  0.00    +0.074 A 
ATOM      2  C   UNL     1       1.424   2.298  -0.197  0.00  0.00    +0.006 A 
ATOM      3  N   UNL     1       0.642   1.387   0.430  0.00  0.00    -0.346 N 
ATOM      4  C   UNL     1       0.830   0.053   0.259  0.00  0.00    +0.135 A 
ATOM      5  C   UNL     1       1.814  -0.406  -0.551  0.00  0.00    +0.180 A 
ATOM      6  C   UNL     1       2.648   0.524  -1.221  0.00  0.00    +0.223 A 
ATOM      7  O   UNL     1       3.545   0.140  -1.959  0.00  0.00    -0.284 OA
ENDROOT
BRANCH   3   8
ATOM      8  C   UNL     1      -0.431   1.852   1.313  0.00  0.00    +0.087 C 
ATOM      9  C   UNL     1      -1.063   0.826   2.257  0.00  0.00    +0.027 C 
ATOM     10  C   UNL     1      -1.844   1.332   1.042  0.00  0.00    +0.027 C 
ENDBRANCH   3   8
BRANCH   5  11
ATOM     11  O   UNL     1       2.000  -1.744  -0.719  0.00  0.00    -0.502 OA
ATOM     12  H   UNL     1       2.727  -1.968  -1.316  0.00  0.00    +0.292 HD
ENDBRANCH   5  11
BRANCH   2  13
ATOM     13  C   UNL     1       1.178   3.769   0.023  0.00  0.00    -0.024 C 
BRANCH  13  14
ATOM     14  N   UNL     1       1.587   4.135   1.386  0.00  0.00    +0.385 N 
ATOM     15  C   UNL     1       3.030   3.912   1.538  0.00  0.00    -0.078 C 
ATOM     16  C   UNL     1       3.447   4.214   2.979  0.00  0.00    -0.019 C 
ATOM     17  C   UNL     1       3.118   5.674   3.304  0.00  0.00    -0.003 C 
ATOM     18  C   UNL     1       1.623   5.914   3.070  0.00  0.00    -0.015 C 
ATOM     19  C   UNL     1       1.273   5.548   1.626  0.00  0.00    -0.066 C 
ATOM     20  H   UNL     1       1.089   3.562   2.051  0.00  0.00    -0.081 HD
BRANCH  19  21
ATOM     21  C   UNL     1      -0.219   5.786   1.388  0.00  0.00    +0.012 C 
BRANCH  21  22
ATOM     22  C   UNL     1      -0.524   7.280   1.515  0.00  0.00    +0.154 C 
BRANCH  22  23
ATOM     23  O   UNL     1      -1.929   7.494   1.370  0.00  0.00    -0.395 OA
ATOM     24  H   UNL     1      -2.195   8.421   1.439  0.00  0.00    +0.209 HD
ENDBRANCH  22  23
ENDBRANCH  21  22
ENDBRANCH  19  21
ENDBRANCH  13  14
ENDBRANCH   2  13
TORSDOF 7
