REMARK  Name = ZINC20390120
REMARK  8 active torsions:
REMARK  status: ('A' for Active; 'I' for Inactive)
REMARK    1  A    between atoms: C_1  and  C_2
REMARK    2  A    between atoms: C_2  and  N_3
REMARK    3  A    between atoms: C_7  and  C_9
REMARK    4  A    between atoms: C_9  and  C_11
REMARK    5  A    between atoms: C_9  and  O_12
REMARK    6  A    between atoms: O_12  and  C_13
REMARK    7  A    between atoms: C_15  and  C_20
REMARK    8  A    between atoms: C_18  and  N_19
REMARK                            x       y       z     vdW  Elec       q    Type
REMARK                         _______ _______ _______ _____ _____    ______ ____
ROOT
ATOM      1  C   UNL     1      -1.327   2.078   0.012  0.00  0.00    +0.256 C 
ATOM      2  C   UNL     1      -2.279   1.804   1.177  0.00  0.00    +0.062 C 
ENDROOT
BRANCH   1   7
ATOM      3  N   UNL     1       1.228  -1.962   0.526  0.00  0.00    -0.299 N 
ATOM      4  C   UNL     1       1.189  -0.615   0.495  0.00  0.00    +0.306 C 
ATOM      5  O   UNL     1       2.209   0.026   0.658  0.00  0.00    -0.252 OA
ATOM      6  N   UNL     1       0.019   0.021   0.285  0.00  0.00    -0.237 N 
ATOM      7  C   UNL     1      -0.020   1.367   0.254  0.00  0.00    +0.261 C 
ATOM      8  O   UNL     1       0.997   2.007   0.416  0.00  0.00    -0.271 OA
ATOM      9  H   UNL     1       0.306  -2.542   0.380  0.00  0.00    +0.150 HD
ATOM     10  H   UNL     1      -0.903  -0.560   0.138  0.00  0.00    +0.159 HD
BRANCH   3  12
ATOM     11  C   UNL     1       2.268  -4.165   0.743  0.00  0.00    +0.024 C 
ATOM     12  C   UNL     1       2.500  -2.653   0.755  0.00  0.00    +0.102 C 
ENDBRANCH   3  12
ENDBRANCH   1   7
BRANCH   1  13
ATOM     13  O   UNL     1      -1.092   3.484  -0.091  0.00  0.00    -0.478 OA
BRANCH  13  14
ATOM     14  C   UNL     1      -2.000   4.211  -0.797  0.00  0.00    +0.142 A 
ATOM     15  C   UNL     1      -3.147   3.606  -1.282  0.00  0.00    +0.051 A 
ATOM     16  C   UNL     1      -4.072   4.347  -1.996  0.00  0.00    -0.047 A 
ATOM     17  C   UNL     1      -3.848   5.690  -2.236  0.00  0.00    +0.005 A 
ATOM     18  C   UNL     1      -2.703   6.300  -1.760  0.00  0.00    +0.026 A 
ATOM     19  C   UNL     1      -1.774   5.564  -1.040  0.00  0.00    +0.067 A 
ATOM     20  C   UNL     1      -5.322   3.688  -2.517  0.00  0.00    +0.044 C 
BRANCH  19  21
ATOM     21  N   UNL     1      -0.613   6.179  -0.557  0.00  0.00    -0.355 N 
ATOM     22  H   UNL     1      -0.436   7.248  -0.749  0.00  0.00    +0.142 HD
ATOM     23  H   UNL     1       0.122   5.594   0.015  0.00  0.00    +0.142 HD
ENDBRANCH  19  21
ENDBRANCH  13  14
ENDBRANCH   1  13
TORSDOF 5
