REMARK  Name = ZINC39715308
REMARK  10 active torsions:
REMARK  status: ('A' for Active; 'I' for Inactive)
REMARK    1  A    between atoms: C_1  and  C_2
REMARK    2  A    between atoms: C_6  and  C_7
REMARK    3  A    between atoms: C_7  and  C_9
REMARK    4  A    between atoms: C_7  and  C_24
REMARK    5  A    between atoms: C_12  and  C_14
REMARK    6  A    between atoms: C_19  and  C_20
REMARK    7  A    between atoms: C_20  and  O_22
REMARK    8  A    between atoms: O_22  and  C_23
REMARK    9  A    between atoms: C_25  and  C_31
REMARK   10  A    between atoms: C_28  and  O_30
REMARK                            x       y       z     vdW  Elec       q    Type
REMARK                         _______ _______ _______ _____ _____    ______ ____
ROOT
ATOM      1  C   UNL     1       0.688  -0.882  -2.235  0.00  0.00    +0.124 C 
ENDROOT
BRANCH   1   7
ATOM      2  C   UNL     1       0.660   0.711   0.503  0.00  0.00    +0.068 C 
ATOM      3  C   UNL     1       0.526  -0.782   0.348  0.00  0.00    +0.068 A 
ATOM      4  N   UNL     1       0.372  -1.643   1.320  0.00  0.00    -0.176 NA
ATOM      5  N   UNL     1       0.286  -2.926   0.764  0.00  0.00    -0.243 N 
ATOM      6  C   UNL     1       0.394  -2.805  -0.578  0.00  0.00    +0.271 A 
ATOM      7  C   UNL     1       0.538  -1.484  -0.862  0.00  0.00    +0.055 A 
ATOM      8  O   UNL     1       0.360  -3.820  -1.479  0.00  0.00    -0.266 OA
ATOM      9  H   UNL     1       0.170  -3.754   1.255  0.00  0.00    +0.192 HD
ENDBRANCH   1   7
BRANCH   1  10
ATOM     10  C   UNL     1       1.917  -1.448  -2.900  0.00  0.00    +0.020 C 
ATOM     11  C   UNL     1       3.030  -0.804  -3.256  0.00  0.00    +0.065 C 
ATOM     12  N   UNL     1       3.913  -1.652  -3.828  0.00  0.00    -0.156 NA
ATOM     13  N   UNL     1       3.526  -2.820  -3.905  0.00  0.00    -0.151 NA
ATOM     14  C   UNL     1       2.178  -2.886  -3.314  0.00  0.00    +0.284 C 
ATOM     15  C   UNL     1       3.269   0.669  -3.049  0.00  0.00    +0.067 C 
BRANCH  14  16
ATOM     16  O   UNL     1       1.223  -3.313  -4.287  0.00  0.00    -0.366 OA
ATOM     17  H   UNL     1       1.297  -4.246  -4.529  0.00  0.00    +0.212 HD
ENDBRANCH  14  16
ENDBRANCH   1  10
BRANCH   1  18
ATOM     18  C   UNL     1      -0.527  -1.211  -3.063  0.00  0.00    +0.118 A 
ATOM     19  C   UNL     1      -1.265  -0.325  -3.762  0.00  0.00    +0.046 A 
ATOM     20  C   UNL     1      -2.298  -1.048  -4.386  0.00  0.00    +0.050 A 
ATOM     21  C   UNL     1      -2.134  -2.353  -4.030  0.00  0.00    +0.136 A 
ATOM     22  O   UNL     1      -1.052  -2.435  -3.231  0.00  0.00    -0.459 OA
BRANCH  21  23
ATOM     23  C   UNL     1      -2.987  -3.479  -4.450  0.00  0.00    +0.031 A 
ATOM     24  C   UNL     1      -3.187  -3.742  -5.806  0.00  0.00    +0.012 A 
ATOM     25  C   UNL     1      -3.987  -4.796  -6.193  0.00  0.00    +0.001 A 
ATOM     26  C   UNL     1      -4.597  -5.602  -5.244  0.00  0.00    +0.001 A 
ATOM     27  C   UNL     1      -4.414  -5.360  -3.899  0.00  0.00    +0.016 A 
ATOM     28  C   UNL     1      -3.603  -4.301  -3.484  0.00  0.00    +0.070 A 
BRANCH  28  29
ATOM     29  C   UNL     1      -3.398  -4.042  -2.049  0.00  0.00    +0.340 C 
ATOM     30  O   UNL     1      -2.784  -3.056  -1.691  0.00  0.00    -0.245 OA
BRANCH  29  31
ATOM     31  O   UNL     1      -3.891  -4.898  -1.132  0.00  0.00    -0.464 OA
ATOM     32  C   UNL     1      -3.745  -4.532   0.242  0.00  0.00    +0.280 C 
ENDBRANCH  29  31
ENDBRANCH  28  29
ENDBRANCH  21  23
ENDBRANCH   1  18
TORSDOF 7
