REMARK  Name = ZINC39452720
REMARK  5 active torsions:
REMARK  status: ('A' for Active; 'I' for Inactive)
REMARK    1  A    between atoms: C_1  and  C_2
REMARK    2  A    between atoms: C_2  and  O_3
REMARK    3  A    between atoms: O_3  and  C_4
REMARK    4  A    between atoms: C_23  and  C_26
REMARK    5  A    between atoms: C_31  and  O_32
REMARK                            x       y       z     vdW  Elec       q    Type
REMARK                         _______ _______ _______ _____ _____    ______ ____
ROOT
ATOM      1  C   UNL     1       0.856  -1.543   1.509  0.00  0.00    +0.130 A 
ATOM      2  C   UNL     1       0.294  -2.343   0.539  0.00  0.00    +0.046 A 
ATOM      3  C   UNL     1       0.364  -3.729   0.616  0.00  0.00    +0.006 A 
ATOM      4  C   UNL     1       0.988  -4.361   1.648  0.00  0.00    +0.028 A 
ATOM      5  C   UNL     1       1.585  -3.607   2.673  0.00  0.00    +0.075 A 
ATOM      6  C   UNL     1       1.520  -2.145   2.597  0.00  0.00    +0.043 A 
ATOM      7  C   UNL     1       2.115  -1.385   3.613  0.00  0.00    +0.029 A 
ATOM      8  C   UNL     1       2.749  -2.065   4.643  0.00  0.00    +0.069 A 
ATOM      9  C   UNL     1       2.781  -3.485   4.651  0.00  0.00    +0.100 A 
ATOM     10  N   UNL     1       2.206  -4.193   3.697  0.00  0.00    -0.244 NA
ATOM     11  C   UNL     1       3.472  -4.154   5.767  0.00  0.00    +0.083 A 
ATOM     12  C   UNL     1       4.055  -3.400   6.766  0.00  0.00    +0.127 A 
ATOM     13  N   UNL     1       4.008  -2.010   6.734  0.00  0.00    -0.213 N 
ATOM     14  C   UNL     1       3.397  -1.336   5.745  0.00  0.00    +0.276 A 
ATOM     15  O   UNL     1       3.379  -0.119   5.760  0.00  0.00    -0.266 OA
ATOM     16 CL   UNL     1       4.752  -1.130   7.997  0.00  0.00    +0.022 Cl
ATOM     17  C   UNL     1       4.709  -4.044   7.841  0.00  0.00    +0.185 C 
ATOM     18  O   UNL     1       5.264  -3.379   8.693  0.00  0.00    -0.290 OA
ATOM     19  C   UNL     1       4.724  -5.547   7.942  0.00  0.00    +0.108 C 
ATOM     20  C   UNL     1       4.664  -6.151   6.534  0.00  0.00    +0.112 C 
ATOM     21  N   UNL     1       3.539  -5.533   5.816  0.00  0.00    -0.333 N 
ATOM     22  H   UNL     1       2.862  -6.080   5.387  0.00  0.00    +0.147 HD
ENDROOT
BRANCH  20  23
ATOM     23  C   UNL     1       5.952  -5.867   5.805  0.00  0.00    +0.014 A 
ATOM     24  C   UNL     1       6.001  -4.867   4.853  0.00  0.00    +0.009 A 
ATOM     25  C   UNL     1       7.182  -4.606   4.183  0.00  0.00    +0.001 A 
ATOM     26  C   UNL     1       8.317  -5.345   4.464  0.00  0.00    +0.004 A 
ATOM     27  C   UNL     1       8.273  -6.345   5.415  0.00  0.00    +0.046 A 
ATOM     28  C   UNL     1       7.090  -6.605   6.092  0.00  0.00    +0.122 A 
BRANCH  28  29
ATOM     29  O   UNL     1       7.046  -7.586   7.032  0.00  0.00    -0.506 OA
ATOM     30  H   UNL     1       6.810  -8.456   6.683  0.00  0.00    +0.292 HD
ENDBRANCH  28  29
ENDBRANCH  20  23
BRANCH   1  31
ATOM     31  O   UNL     1       0.775  -0.191   1.416  0.00  0.00    -0.492 OA
BRANCH  31  33
ATOM     32  C   UNL     1       0.098   1.870   0.350  0.00  0.00    +0.048 C 
ATOM     33  C   UNL     1       0.085   0.341   0.283  0.00  0.00    +0.226 C 
ENDBRANCH  31  33
ENDBRANCH   1  31
TORSDOF 4
