REMARK  Name = ZINC35499464
REMARK  4 active torsions:
REMARK  status: ('A' for Active; 'I' for Inactive)
REMARK    1  A    between atoms: C_1  and  N_2
REMARK    2  A    between atoms: N_2  and  C_3
REMARK    3  A    between atoms: C_3  and  C_5
REMARK    4  A    between atoms: C_3  and  C_11
REMARK                            x       y       z     vdW  Elec       q    Type
REMARK                         _______ _______ _______ _____ _____    ______ ____
ROOT
ATOM      1  C   UNL     1      -1.376  -0.512   0.012  0.00  0.00    +0.027 C 
ENDROOT
BRANCH   1   2
ATOM      2  C   UNL     1      -1.356  -2.015   0.128  0.00  0.00    -0.039 A 
ATOM      3  C   UNL     1      -0.250  -2.704  -0.188  0.00  0.00    +0.048 A 
ATOM      4  S   UNL     1      -0.717  -4.399   0.107  0.00  0.00    -0.096 S 
ATOM      5  C   UNL     1      -2.386  -4.135   0.648  0.00  0.00    +0.020 A 
ATOM      6  C   UNL     1      -2.536  -2.732   0.590  0.00  0.00    -0.009 A 
ATOM      7  C   UNL     1      -3.793  -2.213   0.976  0.00  0.00    +0.009 A 
ATOM      8  C   UNL     1      -4.792  -3.041   1.385  0.00  0.00    +0.001 A 
ATOM      9  C   UNL     1      -4.617  -4.417   1.438  0.00  0.00    +0.001 A 
ATOM     10  C   UNL     1      -3.407  -4.964   1.059  0.00  0.00    +0.015 A 
ENDBRANCH   1   2
BRANCH   1  11
ATOM     11  C   UNL     1      -2.067  -0.116  -1.267  0.00  0.00    +0.097 A 
ATOM     12  C   UNL     1      -3.340   0.306  -1.375  0.00  0.00    +0.044 A 
ATOM     13  C   UNL     1      -3.570   0.567  -2.745  0.00  0.00    +0.057 A 
ATOM     14  C   UNL     1      -2.424   0.289  -3.393  0.00  0.00    +0.170 A 
ATOM     15  O   UNL     1      -1.515  -0.119  -2.491  0.00  0.00    -0.454 OA
ATOM     16 BR   UNL     1      -2.138   0.452  -5.255  0.00  0.00    -0.008 Br
ENDBRANCH   1  11
BRANCH   1  18
ATOM     17  C   UNL     1      -0.018   1.465   0.010  0.00  0.00    -0.099 C 
ATOM     18  N   UNL     1       0.002  -0.004   0.002  0.00  0.00    +0.386 N 
ATOM     19  H   UNL     1       0.474  -0.330  -0.828  0.00  0.00    -0.085 HD
ATOM     20  H   UNL     1       0.490  -0.338   0.820  0.00  0.00    -0.085 HD
ENDBRANCH   1  18
TORSDOF 3
