REMARK  Name = ZINC29575658
REMARK  10 active torsions:
REMARK  status: ('A' for Active; 'I' for Inactive)
REMARK    1  A    between atoms: C_1  and  C_2
REMARK    2  A    between atoms: C_2  and  O_3
REMARK    3  A    between atoms: O_3  and  C_4
REMARK    4  A    between atoms: C_4  and  C_5
REMARK    5  A    between atoms: C_5  and  C_6
REMARK    6  A    between atoms: C_6  and  N_7
REMARK    7  A    between atoms: C_8  and  S_10
REMARK    8  A    between atoms: S_10  and  C_11
REMARK    9  A    between atoms: C_11  and  C_12
REMARK   10  A    between atoms: C_25  and  C_27
REMARK                            x       y       z     vdW  Elec       q    Type
REMARK                         _______ _______ _______ _____ _____    ______ ____
ROOT
ATOM      1  C   UNL     1      -0.272   6.089   1.120  0.00  0.00    +0.230 C 
ATOM      2  O   UNL     1      -0.377   7.297   1.080  0.00  0.00    -0.274 OA
ATOM      3  N   UNL     1       0.220   5.420   0.059  0.00  0.00    -0.266 N 
ATOM      4  C   UNL     1       0.347   4.025   0.090  0.00  0.00    +0.058 A 
ATOM      5  C   UNL     1      -0.771   3.211   0.012  0.00  0.00    +0.025 A 
ATOM      6  C   UNL     1      -0.623   1.836   0.002  0.00  0.00    +0.002 A 
ATOM      7  C   UNL     1       0.636   1.270   0.084  0.00  0.00    +0.002 A 
ATOM      8  C   UNL     1       1.757   2.075   0.176  0.00  0.00    +0.025 A 
ATOM      9  C   UNL     1       1.617   3.453   0.184  0.00  0.00    +0.055 A 
ATOM     10  N   UNL     1       2.733   4.288   0.309  0.00  0.00    -0.284 N 
ATOM     11  C   UNL     1       2.904   5.335  -0.527  0.00  0.00    +0.219 C 
ATOM     12  O   UNL     1       3.832   6.098  -0.357  0.00  0.00    -0.275 OA
ATOM     13  C   UNL     1       1.950   5.563  -1.670  0.00  0.00    +0.118 C 
ATOM     14  C   UNL     1       0.632   6.138  -1.149  0.00  0.00    +0.087 C 
ATOM     15  C   UNL     1      -0.449   5.986  -2.222  0.00  0.00    +0.029 C 
ATOM     16  H   UNL     1       3.479   4.095   1.094  0.00  0.00    +0.155 HD
ENDROOT
BRANCH   1  17
ATOM     17  C   UNL     1      -0.692   5.337   2.357  0.00  0.00    +0.173 C 
BRANCH  17  18
ATOM     18  S   UNL     1      -1.305   6.505   3.595  0.00  0.00    -0.084 S 
BRANCH  18  20
ATOM     19  N   UNL     1      -1.523   4.107   4.738  0.00  0.00    -0.368 N 
ATOM     20  C   UNL     1      -1.714   5.388   4.895  0.00  0.00    +0.126 C 
ATOM     21  N   UNL     1      -2.235   5.866   6.075  0.00  0.00    -0.339 N 
ATOM     22  H   UNL     1      -2.396   6.946   6.207  0.00  0.00    +0.144 HD
ATOM     23  H   UNL     1      -2.490   5.168   6.886  0.00  0.00    +0.144 HD
ATOM     24  H   UNL     1      -1.049   3.731   3.819  0.00  0.00    +0.161 HD
BRANCH  19  25
ATOM     25  C   UNL     1      -1.940   3.171   5.784  0.00  0.00    +0.116 C 
BRANCH  25  26
ATOM     26  C   UNL     1      -3.066   2.282   5.254  0.00  0.00    +0.049 C 
BRANCH  26  27
ATOM     27  C   UNL     1      -3.501   1.303   6.347  0.00  0.00    +0.161 C 
BRANCH  27  28
ATOM     28  O   UNL     1      -4.553   0.473   5.851  0.00  0.00    -0.380 OA
BRANCH  28  30
ATOM     29  C   UNL     1      -6.153  -1.311   6.164  0.00  0.00    +0.034 C 
ATOM     30  C   UNL     1      -5.035  -0.482   6.799  0.00  0.00    +0.156 C 
ENDBRANCH  28  30
ENDBRANCH  27  28
ENDBRANCH  26  27
ENDBRANCH  25  26
ENDBRANCH  19  25
ENDBRANCH  18  20
ENDBRANCH  17  18
ENDBRANCH   1  17
TORSDOF 8
