REMARK  Name = ZINC39521360
REMARK  6 active torsions:
REMARK  status: ('A' for Active; 'I' for Inactive)
REMARK    1  A    between atoms: C_4  and  O_7
REMARK    2  A    between atoms: O_7  and  S_8
REMARK    3  A    between atoms: S_8  and  C_11
REMARK    4  A    between atoms: C_21  and  O_31
REMARK    5  A    between atoms: N_23  and  C_24
REMARK    6  A    between atoms: C_29  and  O_30
REMARK                            x       y       z     vdW  Elec       q    Type
REMARK                         _______ _______ _______ _____ _____    ______ ____
ROOT
ATOM      1  C   UNL     1       2.995  -2.608   1.726  0.00  0.00    +0.173 C 
ATOM      2  C   UNL     1       1.469  -2.536   1.641  0.00  0.00    +0.030 C 
ATOM      3  C   UNL     1       0.865  -3.824   2.205  0.00  0.00    +0.004 C 
ATOM      4  C   UNL     1       1.286  -3.986   3.667  0.00  0.00    +0.026 C 
ATOM      5  C   UNL     1       2.811  -4.056   3.753  0.00  0.00    +0.039 C 
ATOM      6  C   UNL     1       3.417  -2.771   3.188  0.00  0.00    +0.055 C 
ATOM      7  C   UNL     1       3.236  -4.226   5.214  0.00  0.00    +0.026 C 
ATOM      8  C   UNL     1       2.744  -5.581   5.729  0.00  0.00    +0.006 C 
ATOM      9  C   UNL     1       3.378  -6.703   4.905  0.00  0.00    +0.051 C 
ATOM     10  C   UNL     1       2.952  -6.560   3.440  0.00  0.00    +0.203 C 
ATOM     11  N   UNL     1       3.292  -5.207   2.979  0.00  0.00    -0.296 N 
ENDROOT
BRANCH  11  12
ATOM     12  C   UNL     1       4.061  -5.019   1.824  0.00  0.00    +0.074 A 
ATOM     13  C   UNL     1       5.316  -4.435   1.911  0.00  0.00    +0.027 A 
ATOM     14  C   UNL     1       6.073  -4.251   0.770  0.00  0.00    +0.002 A 
ATOM     15  C   UNL     1       5.582  -4.648  -0.460  0.00  0.00    +0.004 A 
ATOM     16  C   UNL     1       4.332  -5.231  -0.555  0.00  0.00    +0.047 A 
ATOM     17  C   UNL     1       3.569  -5.423   0.585  0.00  0.00    +0.138 A 
BRANCH  17  18
ATOM     18  O   UNL     1       2.342  -6.001   0.494  0.00  0.00    -0.505 OA
ATOM     19  H   UNL     1       1.635  -5.388   0.249  0.00  0.00    +0.292 HD
ENDBRANCH  17  18
ENDBRANCH  11  12
BRANCH   1  20
ATOM     20  S   UNL     1       3.711  -1.082   1.056  0.00  0.00    +0.124 S 
ATOM     21  O   UNL     1       5.108  -1.244   0.856  0.00  0.00    -0.136 OA
ATOM     22  O   UNL     1       3.205   0.045   1.759  0.00  0.00    -0.136 OA
BRANCH  20  23
ATOM     23  O   UNL     1       3.129  -0.959  -0.345  0.00  0.00    -0.346 OA
BRANCH  23  27
ATOM     24  C   UNL     1       3.776   2.711  -2.115  0.00  0.00    +0.000 A 
ATOM     25  C   UNL     1       4.743   1.726  -2.195  0.00  0.00    +0.004 A 
ATOM     26  C   UNL     1       4.529   0.496  -1.603  0.00  0.00    +0.048 A 
ATOM     27  C   UNL     1       3.342   0.250  -0.928  0.00  0.00    +0.156 A 
ATOM     28  C   UNL     1       2.373   1.239  -0.849  0.00  0.00    +0.048 A 
ATOM     29  C   UNL     1       2.592   2.467  -1.444  0.00  0.00    +0.004 A 
ENDBRANCH  23  27
ENDBRANCH  20  23
ENDBRANCH   1  20
BRANCH  10  30
ATOM     30  O   UNL     1       3.639  -7.528   2.644  0.00  0.00    -0.374 OA
ATOM     31  H   UNL     1       3.467  -8.443   2.903  0.00  0.00    +0.212 HD
ENDBRANCH  10  30
TORSDOF 6
