REMARK  Name = ZINC39695613
REMARK  11 active torsions:
REMARK  status: ('A' for Active; 'I' for Inactive)
REMARK    1  A    between atoms: C_1  and  C_2
REMARK    2  A    between atoms: C_2  and  C_3
REMARK    3  A    between atoms: C_3  and  C_4
REMARK    4  A    between atoms: C_4  and  C_5
REMARK    5  A    between atoms: C_5  and  C_7
REMARK    6  A    between atoms: C_5  and  C_8
REMARK    7  A    between atoms: C_12  and  C_21
REMARK    8  A    between atoms: N_23  and  C_24
REMARK    9  A    between atoms: C_24  and  C_25
REMARK   10  A    between atoms: N_30  and  C_31
REMARK   11  A    between atoms: C_31  and  C_32
REMARK                            x       y       z     vdW  Elec       q    Type
REMARK                         _______ _______ _______ _____ _____    ______ ____
ROOT
ATOM      1  C   UNL     1       1.419  -4.207   2.487  0.00  0.00    +0.218 C 
ATOM      2  O   UNL     1       0.787  -4.835   1.664  0.00  0.00    -0.275 OA
ATOM      3  N   UNL     1       1.985  -4.844   3.532  0.00  0.00    -0.300 N 
ATOM      4  C   UNL     1       2.782  -4.253   4.632  0.00  0.00    +0.121 C 
ATOM      5  C   UNL     1       2.333  -5.021   5.896  0.00  0.00    +0.100 C 
ATOM      6  C   UNL     1       1.790  -6.360   5.368  0.00  0.00    -0.004 C 
ATOM      7  C   UNL     1       1.945  -6.294   3.842  0.00  0.00    +0.115 C 
ATOM      8  C   UNL     1       2.605  -7.520   5.933  0.00  0.00    -0.010 C 
ATOM      9  C   UNL     1       2.010  -8.843   5.441  0.00  0.00    -0.082 C 
ATOM     10  N   UNL     1       0.612  -8.944   5.875  0.00  0.00    +0.379 N 
ATOM     11  C   UNL     1      -0.184  -7.879   5.253  0.00  0.00    -0.082 C 
ATOM     12  C   UNL     1       0.318  -6.516   5.737  0.00  0.00    -0.010 C 
ATOM     13  H   UNL     1       0.241  -9.842   5.603  0.00  0.00    -0.086 HD
ATOM     14  H   UNL     1       0.565  -8.855   6.879  0.00  0.00    -0.086 HD
ENDROOT
BRANCH   5  15
ATOM     15  C   UNL     1       3.505  -5.253   6.814  0.00  0.00    +0.218 C 
ATOM     16  O   UNL     1       4.619  -5.383   6.353  0.00  0.00    -0.275 OA
ATOM     17  N   UNL     1       3.315  -5.314   8.147  0.00  0.00    -0.317 N 
ATOM     18  H   UNL     1       2.424  -5.210   8.515  0.00  0.00    +0.149 HD
BRANCH  17  19
ATOM     19  C   UNL     1       4.455  -5.539   9.039  0.00  0.00    +0.089 C 
BRANCH  19  20
ATOM     20  C   UNL     1       3.969  -5.566  10.490  0.00  0.00    -0.051 C 
ATOM     21  C   UNL     1       5.129  -5.968  11.425  0.00  0.00    -0.016 C 
ATOM     22  C   UNL     1       4.432  -6.871  12.477  0.00  0.00    -0.020 C 
ATOM     23  C   UNL     1       3.372  -7.598  11.612  0.00  0.00    -0.078 C 
ATOM     24  N   UNL     1       2.907  -6.577  10.645  0.00  0.00    +0.382 N 
ATOM     25  H   UNL     1       2.720  -7.012   9.754  0.00  0.00    -0.081 HD
BRANCH  24  26
ATOM     26  C   UNL     1       1.684  -5.937  11.147  0.00  0.00    -0.082 C 
ATOM     27  C   UNL     1       0.551  -6.964  11.188  0.00  0.00    -0.017 C 
ENDBRANCH  24  26
ENDBRANCH  19  20
ENDBRANCH  17  19
ENDBRANCH   5  15
BRANCH   1  28
ATOM     28  C   UNL     1       1.572  -2.715   2.342  0.00  0.00    +0.072 C 
ATOM     29  C   UNL     1       3.057  -2.363   2.229  0.00  0.00    +0.017 C 
BRANCH  28  30
ATOM     30  C   UNL     1       0.840  -2.248   1.082  0.00  0.00    +0.012 C 
BRANCH  30  31
ATOM     31  C   UNL     1       0.889  -0.721   1.001  0.00  0.00    +0.000 C 
BRANCH  31  33
ATOM     32  C   UNL     1       0.206   1.274  -0.340  0.00  0.00    +0.004 C 
ATOM     33  C   UNL     1       0.157  -0.254  -0.259  0.00  0.00    -0.003 C 
ENDBRANCH  31  33
ENDBRANCH  30  31
ENDBRANCH  28  30
ENDBRANCH   1  28
TORSDOF 8
