REMARK  Name = ZINC19949825
REMARK  6 active torsions:
REMARK  status: ('A' for Active; 'I' for Inactive)
REMARK    1  A    between atoms: C_1  and  C_2
REMARK    2  A    between atoms: C_2  and  C_3
REMARK    3  A    between atoms: C_3  and  C_4
REMARK    4  A    between atoms: C_4  and  N_5
REMARK    5  A    between atoms: C_9  and  N_10
REMARK    6  A    between atoms: N_10  and  N_11
REMARK                            x       y       z     vdW  Elec       q    Type
REMARK                         _______ _______ _______ _____ _____    ______ ____
ROOT
ATOM      1  N   UNL     1       5.217  -1.635   5.485  0.00  0.00    -0.222 N 
ATOM      2  C   UNL     1       4.386  -1.236   4.500  0.00  0.00    +0.260 C 
ATOM      3  O   UNL     1       3.321  -0.708   4.757  0.00  0.00    -0.269 OA
ATOM      4  C   UNL     1       4.803  -1.458   3.104  0.00  0.00    +0.114 C 
ATOM      5  C   UNL     1       4.004  -1.076   2.042  0.00  0.00    +0.102 C 
ATOM      6  C   UNL     1       6.107  -2.111   2.889  0.00  0.00    +0.258 C 
ATOM      7  O   UNL     1       6.517  -2.333   1.765  0.00  0.00    -0.270 OA
ATOM      8  N   UNL     1       6.836  -2.451   3.972  0.00  0.00    -0.235 N 
ATOM      9  C   UNL     1       6.394  -2.218   5.215  0.00  0.00    +0.315 C 
ATOM     10  O   UNL     1       7.097  -2.553   6.149  0.00  0.00    -0.252 OA
ATOM     11  H   UNL     1       7.818  -2.930   3.846  0.00  0.00    +0.159 HD
ENDROOT
BRANCH   5  12
ATOM     12  N   UNL     1       2.895  -0.343   2.263  0.00  0.00    -0.284 N 
ATOM     13  H   UNL     1       2.674   0.029   3.275  0.00  0.00    +0.166 HD
BRANCH  12  14
ATOM     14  N   UNL     1       2.045  -0.062   1.232  0.00  0.00    -0.225 NA
ATOM     15  C   UNL     1       0.701  -0.598   1.495  0.00  0.00    +0.133 C 
ATOM     16  C   UNL     1      -0.201  -0.314   0.291  0.00  0.00    +0.177 C 
ATOM     17  O   UNL     1      -0.219   1.094   0.037  0.00  0.00    -0.377 OA
ATOM     18  C   UNL     1       1.073   1.649  -0.224  0.00  0.00    +0.177 C 
ATOM     19  C   UNL     1       1.988   1.384   0.975  0.00  0.00    +0.133 C 
ENDBRANCH  12  14
ENDBRANCH   5  12
BRANCH   1  20
ATOM     20  C   UNL     1       4.825  -1.425   6.880  0.00  0.00    +0.118 C 
BRANCH  20  21
ATOM     21  C   UNL     1       4.050  -2.645   7.381  0.00  0.00    +0.019 C 
BRANCH  21  23
ATOM     22  C   UNL     1       2.866  -3.646   9.340  0.00  0.00    +0.004 C 
ATOM     23  C   UNL     1       3.641  -2.426   8.839  0.00  0.00    -0.002 C 
ENDBRANCH  21  23
ENDBRANCH  20  21
ENDBRANCH   1  20
TORSDOF 5
