REMARK  Name = ZINC44951127
REMARK  4 active torsions:
REMARK  status: ('A' for Active; 'I' for Inactive)
REMARK    1  A    between atoms: C_10  and  C_12
REMARK    2  A    between atoms: C_12  and  N_13
REMARK    3  A    between atoms: C_16  and  C_19
REMARK    4  A    between atoms: C_19  and  C_20
REMARK                            x       y       z     vdW  Elec       q    Type
REMARK                         _______ _______ _______ _____ _____    ______ ____
ROOT
ATOM      1  N   UNL     1      -3.345  -3.292  -2.846  0.00  0.00    +0.385 N 
ATOM      2  C   UNL     1      -3.880  -4.435  -2.096  0.00  0.00    -0.078 C 
ATOM      3  C   UNL     1      -4.417  -5.484  -3.072  0.00  0.00    -0.015 C 
ATOM      4  C   UNL     1      -5.530  -4.862  -3.920  0.00  0.00    -0.006 C 
ATOM      5  C   UNL     1      -4.980  -3.627  -4.640  0.00  0.00    -0.015 C 
ATOM      6  C   UNL     1      -4.422  -2.647  -3.606  0.00  0.00    -0.078 C 
ATOM      7  H   UNL     1      -2.632  -3.615  -3.482  0.00  0.00    -0.081 HD
ENDROOT
BRANCH   1   8
ATOM      8  C   UNL     1      -2.761  -2.324  -1.909  0.00  0.00    +0.019 C 
BRANCH   8  18
ATOM      9  C   UNL     1      -0.017   1.390   0.010  0.00  0.00    +0.013 A 
ATOM     10  C   UNL     1       1.145   2.082   0.002  0.00  0.00    +0.046 A 
ATOM     11  S   UNL     1       2.356   0.769  -0.017  0.00  0.00    -0.101 S 
ATOM     12  C   UNL     1       1.226  -0.598  -0.017  0.00  0.00    -0.004 A 
ATOM     13  C   UNL     1       0.002  -0.004   0.002  0.00  0.00    -0.020 A 
ATOM     14  C   UNL     1      -1.264  -0.858   0.019  0.00  0.00    +0.143 C 
ATOM     15  N   UNL     1      -0.879  -2.239  -0.305  0.00  0.00    -0.298 N 
ATOM     16  C   UNL     1       0.278  -2.837   0.378  0.00  0.00    +0.113 C 
ATOM     17  C   UNL     1       1.537  -2.060  -0.036  0.00  0.00    +0.061 C 
ATOM     18  C   UNL     1      -1.577  -2.947  -1.215  0.00  0.00    +0.199 C 
ATOM     19  O   UNL     1      -1.251  -4.086  -1.476  0.00  0.00    -0.278 OA
ENDBRANCH   8  18
ENDBRANCH   1   8
BRANCH   4  20
ATOM     20  C   UNL     1      -6.017  -5.881  -4.952  0.00  0.00    +0.099 C 
BRANCH  20  21
ATOM     21  C   UNL     1      -7.193  -5.312  -5.704  0.00  0.00    +0.211 C 
ATOM     22  O   UNL     1      -7.601  -4.201  -5.440  0.00  0.00    -0.276 OA
ATOM     23  N   UNL     1      -7.791  -6.038  -6.669  0.00  0.00    -0.329 N 
ATOM     24  H   UNL     1      -7.465  -6.927  -6.880  0.00  0.00    +0.145 HD
ATOM     25  H   UNL     1      -8.548  -5.672  -7.153  0.00  0.00    +0.145 HD
ENDBRANCH  20  21
ENDBRANCH   4  20
TORSDOF 4
