REMARK  Name = ZINC36945096
REMARK  5 active torsions:
REMARK  status: ('A' for Active; 'I' for Inactive)
REMARK    1  A    between atoms: C_1  and  C_2
REMARK    2  A    between atoms: C_2  and  N_9
REMARK    3  A    between atoms: N_9  and  C_10
REMARK    4  A    between atoms: C_10  and  C_11
REMARK    5  A    between atoms: C_20  and  O_21
REMARK                            x       y       z     vdW  Elec       q    Type
REMARK                         _______ _______ _______ _____ _____    ______ ____
ROOT
ATOM      1  C   UNL     1      -2.129   0.018  -1.099  0.00  0.00    -0.042 C 
ENDROOT
BRANCH   1   2
ATOM      2  C   UNL     1      -3.549  -0.484  -1.041  0.00  0.00    -0.015 A 
ATOM      3  C   UNL     1      -3.893  -1.703  -1.647  0.00  0.00    -0.013 A 
ATOM      4  C   UNL     1      -2.933  -2.480  -2.318  0.00  0.00    +0.009 A 
ATOM      5  C   UNL     1      -3.302  -3.656  -2.894  0.00  0.00    +0.001 A 
ATOM      6  C   UNL     1      -4.620  -4.104  -2.830  0.00  0.00    +0.001 A 
ATOM      7  C   UNL     1      -5.577  -3.378  -2.190  0.00  0.00    +0.008 A 
ATOM      8  C   UNL     1      -5.234  -2.159  -1.582  0.00  0.00    -0.017 A 
ATOM      9  C   UNL     1      -6.196  -1.383  -0.911  0.00  0.00    +0.012 A 
ATOM     10  C   UNL     1      -5.831  -0.207  -0.334  0.00  0.00    +0.046 A 
ATOM     11  C   UNL     1      -4.508   0.242  -0.393  0.00  0.00    +0.119 A 
BRANCH  11  12
ATOM     12  O   UNL     1      -4.172   1.419   0.199  0.00  0.00    -0.507 OA
ATOM     13  H   UNL     1      -4.257   2.189  -0.381  0.00  0.00    +0.292 HD
ENDBRANCH  11  12
ENDBRANCH   1   2
BRANCH   1  14
ATOM     14  N   UNL     1      -1.382  -0.492   0.059  0.00  0.00    +0.386 N 
ATOM     15  H   UNL     1      -1.384  -1.501   0.042  0.00  0.00    -0.085 HD
ATOM     16  H   UNL     1      -1.818  -0.169   0.909  0.00  0.00    -0.085 HD
BRANCH  14  18
ATOM     17  C   UNL     1      -0.019   1.526   0.010  0.00  0.00    -0.009 C 
ATOM     18  C   UNL     1       0.002  -0.004   0.002  0.00  0.00    -0.050 C 
ATOM     19  C   UNL     1       0.632  -0.478  -1.307  0.00  0.00    +0.011 C 
ATOM     20  C   UNL     1       2.169  -0.637  -1.140  0.00  0.00    +0.164 C 
ATOM     21  S   UNL     1       2.220  -1.358   0.560  0.00  0.00    -0.032 S 
ATOM     22  O   UNL     1       3.389  -0.902   1.226  0.00  0.00    -0.174 OA
ATOM     23  O   UNL     1       1.952  -2.752   0.484  0.00  0.00    -0.174 OA
ATOM     24  C   UNL     1       0.751  -0.495   1.257  0.00  0.00    +0.153 C 
ENDBRANCH  14  18
ENDBRANCH   1  14
TORSDOF 4
