REMARK  Name = ZINC55888349
REMARK  8 active torsions:
REMARK  status: ('A' for Active; 'I' for Inactive)
REMARK    1  A    between atoms: C_1  and  C_2
REMARK    2  A    between atoms: C_3  and  N_11
REMARK    3  A    between atoms: C_7  and  N_8
REMARK    4  A    between atoms: C_12  and  C_14
REMARK    5  A    between atoms: C_14  and  N_15
REMARK    6  A    between atoms: N_15  and  C_16
REMARK    7  A    between atoms: C_21  and  N_22
REMARK    8  A    between atoms: C_25  and  O_28
REMARK                            x       y       z     vdW  Elec       q    Type
REMARK                         _______ _______ _______ _____ _____    ______ ____
ROOT
ATOM      1  N   UNL     1      -1.390  -0.639  -5.856  0.00  0.00    -0.334 N 
ATOM      2  H   UNL     1      -1.310  -1.595  -5.715  0.00  0.00    +0.147 HD
ENDROOT
BRANCH   1   3
ATOM      3  C   UNL     1      -1.757  -0.146  -7.110  0.00  0.00    +0.047 A 
ATOM      4  C   UNL     1      -1.764   1.223  -7.345  0.00  0.00    +0.025 A 
ATOM      5  C   UNL     1      -2.128   1.707  -8.586  0.00  0.00    +0.002 A 
ATOM      6  C   UNL     1      -2.485   0.830  -9.595  0.00  0.00    +0.002 A 
ATOM      7  C   UNL     1      -2.479  -0.533  -9.364  0.00  0.00    +0.023 A 
ATOM      8  C   UNL     1      -2.111  -1.024  -8.126  0.00  0.00    +0.035 A 
BRANCH   8   9
ATOM      9  N   UNL     1      -2.100  -2.403  -7.895  0.00  0.00    -0.392 NA
ATOM     10  C   UNL     1      -3.419  -2.962  -8.215  0.00  0.00    +0.087 C 
ATOM     11  C   UNL     1      -3.437  -4.456  -7.887  0.00  0.00    +0.048 C 
ATOM     12  C   UNL     1      -2.365  -5.168  -8.717  0.00  0.00    +0.117 C 
ATOM     13  C   UNL     1      -1.003  -4.527  -8.432  0.00  0.00    +0.048 C 
ATOM     14  C   UNL     1      -1.076  -3.030  -8.739  0.00  0.00    +0.087 C 
ATOM     15  H   UNL     1      -1.889  -2.579  -6.925  0.00  0.00    +0.126 HD
BRANCH  12  16
ATOM     16  O   UNL     1      -2.326  -6.551  -8.362  0.00  0.00    -0.392 OA
ATOM     17  H   UNL     1      -1.667  -7.064  -8.850  0.00  0.00    +0.210 HD
ENDBRANCH  12  16
ENDBRANCH   8   9
ENDBRANCH   1   3
BRANCH   1  18
ATOM     18  C   UNL     1      -1.125   0.289  -4.753  0.00  0.00    +0.198 C 
BRANCH  18  20
ATOM     19  N   UNL     1      -0.462   0.157  -2.374  0.00  0.00    -0.284 N 
ATOM     20  C   UNL     1      -0.751  -0.491  -3.519  0.00  0.00    +0.234 C 
ATOM     21  O   UNL     1      -0.710  -1.703  -3.557  0.00  0.00    -0.274 OA
ATOM     22  H   UNL     1      -0.443   1.127  -2.357  0.00  0.00    +0.155 HD
BRANCH  19  25
ATOM     23  C   UNL     1      -1.291   1.254   0.118  0.00  0.00    +0.048 C 
ATOM     24  C   UNL     1      -0.577  -0.070   0.029  0.00  0.00    +0.001 A 
ATOM     25  C   UNL     1      -0.189  -0.568  -1.208  0.00  0.00    +0.039 A 
ATOM     26  C   UNL     1       0.469  -1.788  -1.287  0.00  0.00    +0.024 A 
ATOM     27  C   UNL     1       0.737  -2.502  -0.135  0.00  0.00    +0.004 A 
ATOM     28  C   UNL     1       0.349  -2.003   1.095  0.00  0.00    +0.033 A 
ATOM     29  C   UNL     1      -0.302  -0.785   1.177  0.00  0.00    +0.131 A 
BRANCH  29  30
ATOM     30  N   UNL     1      -0.709  -0.252   2.496  0.00  0.00    +0.057 N 
ATOM     31  O   UNL     1      -0.812   0.941   2.660  0.00  0.00    -0.126 OA
ATOM     32  O   UNL     1      -0.939  -1.010   3.410  0.00  0.00    -0.126 OA
ENDBRANCH  29  30
ENDBRANCH  19  25
ENDBRANCH  18  20
ENDBRANCH   1  18
TORSDOF 7
