REMARK  Name = ZINC00657752
REMARK  8 active torsions:
REMARK  status: ('A' for Active; 'I' for Inactive)
REMARK    1  A    between atoms: C_1  and  C_2
REMARK    2  A    between atoms: C_7  and  C_8
REMARK    3  A    between atoms: C_8  and  O_9
REMARK    4  A    between atoms: O_9  and  C_10
REMARK    5  A    between atoms: C_11  and  O_23
REMARK    6  A    between atoms: C_13  and  C_17
REMARK    7  A    between atoms: N_18  and  N_19
REMARK    8  A    between atoms: O_23  and  C_24
REMARK                            x       y       z     vdW  Elec       q    Type
REMARK                         _______ _______ _______ _____ _____    ______ ____
ROOT
ATOM      1  C   UNL     1       0.053  -0.377   4.844  0.00  0.00    +0.176 A 
ATOM      2  C   UNL     1       1.263  -0.093   5.474  0.00  0.00    +0.163 A 
ATOM      3  C   UNL     1       1.270   0.429   6.754  0.00  0.00    +0.059 A 
ATOM      4  C   UNL     1       0.063   0.671   7.414  0.00  0.00    -0.001 A 
ATOM      5  C   UNL     1      -1.147   0.384   6.777  0.00  0.00    +0.028 A 
ATOM      6  C   UNL     1      -1.147  -0.132   5.497  0.00  0.00    +0.064 A 
ATOM      7 BR   UNL     1      -2.785  -0.512   4.633  0.00  0.00    -0.046 Br
ENDROOT
BRANCH   4   8
ATOM      8  C   UNL     1       0.065   1.226   8.780  0.00  0.00    +0.138 C 
ATOM      9  N   UNL     1      -1.058   1.450   9.391  0.00  0.00    -0.186 NA
BRANCH   9  10
ATOM     10  N   UNL     1      -1.055   1.978  10.689  0.00  0.00    -0.191 N 
ATOM     11  C   UNL     1      -2.221   2.211  11.324  0.00  0.00    +0.317 C 
ATOM     12  O   UNL     1      -2.219   2.669  12.450  0.00  0.00    -0.251 OA
ATOM     13  N   UNL     1      -3.389   1.936  10.710  0.00  0.00    -0.312 N 
ATOM     14  H   UNL     1      -0.215   2.176  11.130  0.00  0.00    +0.179 HD
ATOM     15  H   UNL     1      -3.391   1.570   9.812  0.00  0.00    +0.147 HD
ATOM     16  H   UNL     1      -4.228   2.103  11.167  0.00  0.00    +0.147 HD
ENDBRANCH   9  10
ENDBRANCH   4   8
BRANCH   2  17
ATOM     17  O   UNL     1       2.437  -0.329   4.830  0.00  0.00    -0.491 OA
ATOM     18  C   UNL     1       3.639  -0.015   5.535  0.00  0.00    +0.277 C 
ENDBRANCH   2  17
BRANCH   1  19
ATOM     19  O   UNL     1       0.048  -0.889   3.585  0.00  0.00    -0.483 OA
BRANCH  19  20
ATOM     20  C   UNL     1       0.025   0.045   2.504  0.00  0.00    +0.265 C 
BRANCH  20  27
ATOM     21  C   UNL     1      -0.018   1.503   0.010  0.00  0.00    +0.044 C 
ATOM     22  C   UNL     1       0.002  -0.004   0.002  0.00  0.00    -0.044 A 
ATOM     23  C   UNL     1       0.006  -0.689  -1.199  0.00  0.00    +0.004 A 
ATOM     24  C   UNL     1       0.025  -2.071  -1.207  0.00  0.00    +0.000 A 
ATOM     25  C   UNL     1       0.040  -2.768  -0.013  0.00  0.00    +0.000 A 
ATOM     26  C   UNL     1       0.037  -2.084   1.188  0.00  0.00    +0.007 A 
ATOM     27  C   UNL     1       0.023  -0.702   1.195  0.00  0.00    -0.007 A 
ENDBRANCH  20  27
ENDBRANCH  19  20
ENDBRANCH   1  19
TORSDOF 6
