REMARK  Name = ZINC43652361
REMARK  5 active torsions:
REMARK  status: ('A' for Active; 'I' for Inactive)
REMARK    1  A    between atoms: C_1  and  C_2
REMARK    2  A    between atoms: C_6  and  N_22
REMARK    3  A    between atoms: C_8  and  C_11
REMARK    4  A    between atoms: C_11  and  C_12
REMARK    5  A    between atoms: C_17  and  N_18
REMARK                            x       y       z     vdW  Elec       q    Type
REMARK                         _______ _______ _______ _____ _____    ______ ____
ROOT
ATOM      1  C   UNL     1       0.229   1.758   0.254  0.00  0.00    +0.007 C 
ATOM      2  C   UNL     1       0.111   0.234   0.183  0.00  0.00    -0.014 C 
ATOM      3  C   UNL     1      -1.364  -0.167   0.251  0.00  0.00    +0.002 C 
ATOM      4  C   UNL     1      -1.481  -1.691   0.180  0.00  0.00    -0.016 C 
ATOM      5  C   UNL     1      -0.728  -2.316   1.356  0.00  0.00    -0.072 C 
ATOM      6  C   UNL     1       0.747  -1.915   1.288  0.00  0.00    -0.021 C 
ATOM      7  C   UNL     1       0.865  -0.391   1.359  0.00  0.00    +0.005 C 
ENDROOT
BRANCH   5   8
ATOM      8  N   UNL     1      -0.841  -3.779   1.288  0.00  0.00    +0.380 N 
ATOM      9  H   UNL     1      -0.443  -4.107   0.421  0.00  0.00    -0.090 HD
ATOM     10  H   UNL     1      -0.344  -4.192   2.063  0.00  0.00    -0.090 HD
ATOM     11  H   UNL     1      -1.813  -4.044   1.333  0.00  0.00    -0.090 HD
ENDBRANCH   5   8
BRANCH   6  12
ATOM     12  C   UNL     1       1.500  -2.540   2.464  0.00  0.00    +0.039 C 
BRANCH  12  13
ATOM     13  C   UNL     1       2.970  -2.233   2.339  0.00  0.00    -0.014 A 
ATOM     14  C   UNL     1       3.526  -1.202   3.074  0.00  0.00    +0.044 A 
ATOM     15  C   UNL     1       4.876  -0.920   2.959  0.00  0.00    +0.124 A 
ATOM     16  C   UNL     1       5.669  -1.671   2.108  0.00  0.00    +0.040 A 
ATOM     17  C   UNL     1       5.112  -2.700   1.374  0.00  0.00    +0.036 A 
ATOM     18  C   UNL     1       3.764  -2.985   1.494  0.00  0.00    +0.130 A 
ATOM     19  F   UNL     1       5.420   0.088   3.676  0.00  0.00    -0.205 F 
BRANCH  18  20
ATOM     20  N   UNL     1       3.170  -4.093   0.712  0.00  0.00    +0.057 N 
ATOM     21  O   UNL     1       3.878  -4.805   0.039  0.00  0.00    -0.126 OA
ATOM     22  O   UNL     1       1.977  -4.285   0.747  0.00  0.00    -0.126 OA
ENDBRANCH  18  20
ENDBRANCH  12  13
ENDBRANCH   6  12
TORSDOF 4
