REMARK  Name = ZINC42866022
REMARK  10 active torsions:
REMARK  status: ('A' for Active; 'I' for Inactive)
REMARK    1  A    between atoms: C_1  and  C_2
REMARK    2  A    between atoms: C_7  and  N_8
REMARK    3  A    between atoms: C_9  and  C_11
REMARK    4  A    between atoms: C_11  and  C_13
REMARK    5  A    between atoms: C_11  and  S_16
REMARK    6  A    between atoms: C_13  and  C_14
REMARK    7  A    between atoms: C_13  and  C_15
REMARK    8  A    between atoms: S_16  and  C_17
REMARK    9  A    between atoms: C_20  and  C_23
REMARK   10  A    between atoms: N_21  and  N_22
REMARK                            x       y       z     vdW  Elec       q    Type
REMARK                         _______ _______ _______ _____ _____    ______ ____
ROOT
ATOM      1  C   UNL     1      -0.153   0.053   4.881  0.00  0.00    +0.143 C 
ENDROOT
BRANCH   1   3
ATOM      2  N   UNL     1      -0.053  -0.559   2.486  0.00  0.00    -0.284 N 
ATOM      3  C   UNL     1      -0.132  -0.964   3.769  0.00  0.00    +0.231 C 
ATOM      4  O   UNL     1      -0.185  -2.148   4.029  0.00  0.00    -0.274 OA
ATOM      5  H   UNL     1       0.059   0.382   2.281  0.00  0.00    +0.155 HD
BRANCH   2  12
ATOM      6  C   UNL     1      -1.318   0.224   0.060  0.00  0.00    +0.045 C 
ATOM      7  C   UNL     1      -0.743  -1.156   0.250  0.00  0.00    -0.029 A 
ATOM      8  C   UNL     1      -0.816  -2.082  -0.773  0.00  0.00    +0.005 A 
ATOM      9  C   UNL     1      -0.288  -3.348  -0.600  0.00  0.00    +0.000 A 
ATOM     10  C   UNL     1       0.314  -3.692   0.597  0.00  0.00    +0.002 A 
ATOM     11  C   UNL     1       0.391  -2.771   1.623  0.00  0.00    +0.023 A 
ATOM     12  C   UNL     1      -0.134  -1.496   1.450  0.00  0.00    +0.036 A 
ENDBRANCH   2  12
ENDBRANCH   1   3
BRANCH   1  13
ATOM     13  C   UNL     1      -1.587   0.539   5.100  0.00  0.00    +0.005 C 
ATOM     14  C   UNL     1      -1.608   1.580   6.221  0.00  0.00    +0.009 C 
ATOM     15  C   UNL     1      -2.115   1.169   3.809  0.00  0.00    +0.009 C 
ENDBRANCH   1  13
BRANCH   1  16
ATOM     16  S   UNL     1       0.468  -0.705   6.407  0.00  0.00    -0.071 S 
BRANCH  16  17
ATOM     17  C   UNL     1       2.159  -1.052   6.053  0.00  0.00    +0.209 A 
ATOM     18  N   UNL     1       2.813  -0.712   4.965  0.00  0.00    -0.121 NA
ATOM     19  N   UNL     1       4.029  -1.122   5.033  0.00  0.00    -0.126 NA
ATOM     20  C   UNL     1       4.228  -1.750   6.171  0.00  0.00    +0.188 A 
ATOM     21  N   UNL     1       3.037  -1.719   6.862  0.00  0.00    -0.223 N 
BRANCH  20  22
ATOM     22  C   UNL     1       5.487  -2.364   6.623  0.00  0.00    +0.058 A 
ATOM     23  C   UNL     1       6.758  -2.189   6.137  0.00  0.00    +0.019 A 
ATOM     24  C   UNL     1       7.792  -2.878   6.729  0.00  0.00    +0.008 A 
ATOM     25  C   UNL     1       7.525  -3.708   7.771  0.00  0.00    +0.046 A 
ATOM     26  S   UNL     1       5.758  -3.525   7.952  0.00  0.00    -0.093 S 
ENDBRANCH  20  22
BRANCH  21  27
ATOM     27  N   UNL     1       2.784  -2.246   8.096  0.00  0.00    -0.295 N 
ATOM     28  H   UNL     1       2.467  -3.201   8.023  0.00  0.00    +0.163 HD
ATOM     29  H   UNL     1       3.597  -2.179   8.691  0.00  0.00    +0.163 HD
ENDBRANCH  21  27
ENDBRANCH  16  17
ENDBRANCH   1  16
TORSDOF 7
