REMARK  Name = ZINC08714058
REMARK  12 active torsions:
REMARK  status: ('A' for Active; 'I' for Inactive)
REMARK    1  A    between atoms: C_1  and  C_2
REMARK    2  A    between atoms: C_2  and  C_3
REMARK    3  A    between atoms: C_3  and  N_50
REMARK    4  A    between atoms: C_4  and  C_5
REMARK    5  A    between atoms: C_4  and  N_50
REMARK    6  A    between atoms: C_5  and  C_6
REMARK    7  A    between atoms: C_7  and  C_8
REMARK    8  A    between atoms: C_7  and  N_50
REMARK    9  A    between atoms: C_9  and  C_21
REMARK   10  A    between atoms: C_12  and  C_20
REMARK   11  A    between atoms: C_13  and  C_19
REMARK   12  A    between atoms: C_17  and  O_18
REMARK                            x       y       z     vdW  Elec       q    Type
REMARK                         _______ _______ _______ _____ _____    ______ ____
ROOT
ATOM      1  C   UNL     1      -1.485   1.028   0.952  0.00  0.00    -0.001 A 
ATOM      2  C   UNL     1      -2.589   0.188   1.034  0.00  0.00    +0.044 A 
ATOM      3  N   UNL     1      -3.536   0.375   1.922  0.00  0.00    -0.251 NA
ATOM      4  C   UNL     1      -3.488   1.386   2.797  0.00  0.00    +0.078 A 
ATOM      5  C   UNL     1      -4.510   1.574   3.744  0.00  0.00    -0.021 A 
ATOM      6  C   UNL     1      -4.435   2.611   4.622  0.00  0.00    -0.045 A 
ATOM      7  C   UNL     1      -3.358   3.494   4.600  0.00  0.00    +0.004 A 
ATOM      8  C   UNL     1      -2.350   3.343   3.697  0.00  0.00    +0.014 A 
ATOM      9  C   UNL     1      -2.395   2.285   2.777  0.00  0.00    +0.042 A 
ATOM     10  C   UNL     1      -1.365   2.091   1.829  0.00  0.00    +0.129 A 
ATOM     11  C   UNL     1      -5.534   2.806   5.634  0.00  0.00    +0.044 C 
ATOM     12  C   UNL     1      -5.684   0.630   3.785  0.00  0.00    +0.046 C 
ATOM     13  C   UNL     1      -2.701  -0.970   0.076  0.00  0.00    +0.066 C 
ENDROOT
BRANCH  10  14
ATOM     14  O   UNL     1      -0.297   2.923   1.776  0.00  0.00    -0.506 OA
ATOM     15  H   UNL     1      -0.418   3.683   1.191  0.00  0.00    +0.292 HD
ENDBRANCH  10  14
BRANCH   1  16
ATOM     16  C   UNL     1      -0.419   0.777  -0.083  0.00  0.00    -0.037 C 
BRANCH  16  17
ATOM     17  N   UNL     1      -0.780   1.496  -1.323  0.00  0.00    +0.382 N 
ATOM     18  H   UNL     1      -1.743   1.252  -1.582  0.00  0.00    -0.081 HD
BRANCH  17  19
ATOM     19  C   UNL     1      -0.698   2.956  -1.102  0.00  0.00    -0.079 C 
BRANCH  19  21
ATOM     20  C   UNL     1       0.800   4.886  -0.584  0.00  0.00    +0.002 C 
ATOM     21  C   UNL     1       0.745   3.375  -0.813  0.00  0.00    -0.022 C 
ENDBRANCH  19  21
ENDBRANCH  17  19
BRANCH  17  22
ATOM     22  C   UNL     1       0.128   1.100  -2.420  0.00  0.00    -0.079 C 
BRANCH  22  23
ATOM     23  C   UNL     1      -0.443   1.614  -3.743  0.00  0.00    -0.022 C 
ATOM     24  C   UNL     1       0.463   1.176  -4.894  0.00  0.00    +0.002 C 
ENDBRANCH  22  23
ENDBRANCH  17  22
ENDBRANCH  16  17
ENDBRANCH   1  16
TORSDOF 7
