REMARK  Name = ZINC41447581
REMARK  10 active torsions:
REMARK  status: ('A' for Active; 'I' for Inactive)
REMARK    1  A    between atoms: C_1  and  O_2
REMARK    2  A    between atoms: O_2  and  C_3
REMARK    3  A    between atoms: C_6  and  C_9
REMARK    4  A    between atoms: C_9  and  C_11
REMARK    5  A    between atoms: C_9  and  O_30
REMARK    6  A    between atoms: C_11  and  N_12
REMARK    7  A    between atoms: N_15  and  C_16
REMARK    8  A    between atoms: C_16  and  C_17
REMARK    9  A    between atoms: C_17  and  C_19
REMARK   10  A    between atoms: C_17  and  N_24
REMARK                            x       y       z     vdW  Elec       q    Type
REMARK                         _______ _______ _______ _____ _____    ______ ____
ROOT
ATOM      1  N   UNL     1       2.603  -3.148   6.761  0.00  0.00    -0.297 N 
ATOM      2  C   UNL     1       1.788  -3.743   7.655  0.00  0.00    +0.300 C 
ATOM      3  O   UNL     1       0.584  -3.722   7.489  0.00  0.00    -0.253 OA
ATOM      4  N   UNL     1       2.309  -4.361   8.733  0.00  0.00    -0.301 N 
ATOM      5  H   UNL     1       3.563  -3.164   6.894  0.00  0.00    +0.150 HD
ATOM      6  H   UNL     1       3.270  -4.378   8.866  0.00  0.00    +0.150 HD
ENDROOT
BRANCH   1   7
ATOM      7  C   UNL     1       2.037  -2.476   5.589  0.00  0.00    +0.141 C 
BRANCH   7   8
ATOM      8  C   UNL     1       3.167  -1.888   4.742  0.00  0.00    +0.162 C 
BRANCH   8  12
ATOM      9  C   UNL     1       1.507   0.366   1.514  0.00  0.00    +0.120 A 
ATOM     10  C   UNL     1       1.972   1.016   2.648  0.00  0.00    +0.046 A 
ATOM     11  C   UNL     1       2.508   0.285   3.690  0.00  0.00    +0.010 A 
ATOM     12  C   UNL     1       2.582  -1.093   3.603  0.00  0.00    -0.017 A 
ATOM     13  C   UNL     1       2.120  -1.743   2.474  0.00  0.00    +0.010 A 
ATOM     14  C   UNL     1       1.577  -1.017   1.431  0.00  0.00    +0.046 A 
BRANCH   9  16
ATOM     15  C   UNL     1       0.939   2.504   0.641  0.00  0.00    +0.277 C 
ATOM     16  O   UNL     1       0.979   1.084   0.487  0.00  0.00    -0.495 OA
ENDBRANCH   9  16
ENDBRANCH   8  12
BRANCH   8  17
ATOM     17  O   UNL     1       3.971  -2.948   4.219  0.00  0.00    -0.386 OA
ATOM     18  H   UNL     1       3.486  -3.568   3.657  0.00  0.00    +0.210 HD
ENDBRANCH   8  17
ENDBRANCH   7   8
ENDBRANCH   1   7
BRANCH   4  19
ATOM     19  C   UNL     1       1.424  -5.008   9.706  0.00  0.00    +0.098 C 
BRANCH  19  20
ATOM     20  C   UNL     1       2.265  -5.741  10.752  0.00  0.00    +0.016 C 
BRANCH  20  21
ATOM     21  N   UNL     1       3.191  -6.662  10.080  0.00  0.00    +0.387 N 
ATOM     22  C   UNL     1       2.423  -7.644   9.304  0.00  0.00    -0.078 C 
ATOM     23  C   UNL     1       3.382  -8.556   8.536  0.00  0.00    -0.019 C 
ATOM     24  C   UNL     1       4.289  -9.286   9.531  0.00  0.00    -0.004 C 
ATOM     25  C   UNL     1       5.029  -8.253  10.385  0.00  0.00    -0.019 C 
ATOM     26  C   UNL     1       4.009  -7.352  11.084  0.00  0.00    -0.078 C 
ATOM     27  H   UNL     1       3.791  -6.141   9.459  0.00  0.00    -0.081 HD
ENDBRANCH  20  21
BRANCH  20  28
ATOM     28  C   UNL     1       3.052  -4.738  11.557  0.00  0.00    +0.093 A 
ATOM     29  C   UNL     1       2.731  -4.286  12.782  0.00  0.00    +0.043 A 
ATOM     30  C   UNL     1       3.736  -3.366  13.157  0.00  0.00    +0.041 A 
ATOM     31  C   UNL     1       4.612  -3.310  12.137  0.00  0.00    +0.195 A 
ATOM     32  O   UNL     1       4.196  -4.147  11.173  0.00  0.00    -0.469 OA
ENDBRANCH  20  28
ENDBRANCH  19  20
ENDBRANCH   4  19
TORSDOF 9
