REMARK  Name = ZINC36944384
REMARK  7 active torsions:
REMARK  status: ('A' for Active; 'I' for Inactive)
REMARK    1  A    between atoms: C_1  and  C_2
REMARK    2  A    between atoms: C_6  and  C_20
REMARK    3  A    between atoms: C_8  and  N_11
REMARK    4  A    between atoms: N_11  and  C_12
REMARK    5  A    between atoms: C_12  and  C_19
REMARK    6  A    between atoms: C_20  and  C_21
REMARK    7  A    between atoms: C_20  and  C_22
REMARK                            x       y       z     vdW  Elec       q    Type
REMARK                         _______ _______ _______ _____ _____    ______ ____
ROOT
ATOM      1  N   UNL     1       0.153   1.689   2.410  0.00  0.00    +0.386 N 
ATOM      2  H   UNL     1      -0.326   2.305   1.771  0.00  0.00    -0.085 HD
ATOM      3  H   UNL     1      -0.190   1.843   3.346  0.00  0.00    -0.085 HD
ENDROOT
BRANCH   1   4
ATOM      4  C   UNL     1       1.595   1.963   2.366  0.00  0.00    -0.050 C 
ATOM      5  C   UNL     1       2.295   1.073   3.392  0.00  0.00    +0.011 C 
ATOM      6  C   UNL     1       3.596   1.755   3.899  0.00  0.00    +0.164 C 
ATOM      7  S   UNL     1       3.005   3.501   4.012  0.00  0.00    -0.032 S 
ATOM      8  O   UNL     1       4.078   4.379   3.700  0.00  0.00    -0.174 OA
ATOM      9  O   UNL     1       2.287   3.673   5.226  0.00  0.00    -0.174 OA
ATOM     10  C   UNL     1       1.819   3.469   2.605  0.00  0.00    +0.153 C 
ATOM     11  C   UNL     1       2.119   1.605   0.974  0.00  0.00    -0.009 C 
ENDBRANCH   1   4
BRANCH   1  17
ATOM     12  C   UNL     1      -1.731   2.485   0.973  0.00  0.00    +0.007 C 
ATOM     13  C   UNL     1      -1.987   1.031   0.569  0.00  0.00    -0.016 C 
ATOM     14  C   UNL     1      -2.981   0.397   1.543  0.00  0.00    +0.003 C 
ATOM     15  C   UNL     1      -2.403   0.438   2.960  0.00  0.00    +0.002 C 
ATOM     16  C   UNL     1      -1.087  -0.340   2.996  0.00  0.00    -0.022 C 
ATOM     17  C   UNL     1      -0.092   0.294   2.021  0.00  0.00    -0.067 C 
ATOM     18  C   UNL     1      -0.670   0.253   0.605  0.00  0.00    -0.012 C 
BRANCH  16  19
ATOM     19  C   UNL     1      -0.509  -0.299   4.412  0.00  0.00    -0.016 C 
ATOM     20  C   UNL     1      -1.503  -0.933   5.387  0.00  0.00    +0.007 C 
ATOM     21  C   UNL     1       0.808  -1.077   4.449  0.00  0.00    +0.007 C 
ENDBRANCH  16  19
ENDBRANCH   1  17
TORSDOF 3
