REMARK  Name = ZINC65733884
REMARK  7 active torsions:
REMARK  status: ('A' for Active; 'I' for Inactive)
REMARK    1  A    between atoms: C_1  and  C_2
REMARK    2  A    between atoms: N_4  and  C_5
REMARK    3  A    between atoms: C_7  and  O_28
REMARK    4  A    between atoms: C_15  and  C_18
REMARK    5  A    between atoms: C_25  and  O_27
REMARK    6  A    between atoms: O_28  and  C_29
REMARK    7  A    between atoms: C_29  and  C_31
REMARK                            x       y       z     vdW  Elec       q    Type
REMARK                         _______ _______ _______ _____ _____    ______ ____
ROOT
ATOM      1  C   UNL     1       0.020  -2.136  -1.177  0.00  0.00    +0.172 C 
ATOM      2  C   UNL     1      -0.702  -2.652  -2.425  0.00  0.00    +0.233 C 
ATOM      3  C   UNL     1       0.049  -2.184  -3.672  0.00  0.00    +0.195 C 
ATOM      4  C   UNL     1       1.506  -2.653  -3.602  0.00  0.00    +0.179 C 
ATOM      5  C   UNL     1       2.265  -2.071  -4.801  0.00  0.00    +0.197 C 
ATOM      6  O   UNL     1       2.101  -0.649  -4.804  0.00  0.00    -0.345 OA
ATOM      7  C   UNL     1       0.737  -0.225  -4.864  0.00  0.00    +0.282 C 
ATOM      8  O   UNL     1       0.021  -0.757  -3.746  0.00  0.00    -0.338 OA
ATOM      9  O   UNL     1       2.098  -2.188  -2.387  0.00  0.00    -0.341 OA
ATOM     10  C   UNL     1       1.470  -2.629  -1.198  0.00  0.00    +0.272 C 
ENDROOT
BRANCH   7  11
ATOM     11  C   UNL     1       0.677   1.281  -4.828  0.00  0.00    +0.008 A 
ATOM     12  C   UNL     1       0.004   1.921  -3.805  0.00  0.00    +0.008 A 
ATOM     13  C   UNL     1      -0.051   3.302  -3.771  0.00  0.00    +0.000 A 
ATOM     14  C   UNL     1       0.568   4.042  -4.761  0.00  0.00    +0.000 A 
ATOM     15  C   UNL     1       1.243   3.402  -5.783  0.00  0.00    +0.000 A 
ATOM     16  C   UNL     1       1.301   2.021  -5.814  0.00  0.00    +0.008 A 
ENDBRANCH   7  11
BRANCH   1  20
ATOM     17  C   UNL     1      -0.864   1.493  -0.341  0.00  0.00    +0.109 C 
ATOM     18  C   UNL     1      -0.844  -0.014  -0.349  0.00  0.00    +0.210 C 
ATOM     19  O   UNL     1      -1.587  -0.634   0.381  0.00  0.00    -0.276 OA
ATOM     20  N   UNL     1       0.000  -0.672  -1.169  0.00  0.00    -0.304 N 
ATOM     21  H   UNL     1       0.594  -0.175  -1.753  0.00  0.00    +0.149 HD
ENDBRANCH   1  20
BRANCH  10  22
ATOM     22  O   UNL     1       1.488  -4.058  -1.165  0.00  0.00    -0.365 OA
ATOM     23  H   UNL     1       2.377  -4.440  -1.176  0.00  0.00    +0.213 HD
ENDBRANCH  10  22
BRANCH   2  24
ATOM     24  O   UNL     1      -2.036  -2.140  -2.450  0.00  0.00    -0.457 OA
BRANCH  24  25
ATOM     25  C   UNL     1      -2.983  -2.876  -1.848  0.00  0.00    +0.304 C 
ATOM     26  O   UNL     1      -2.689  -3.921  -1.317  0.00  0.00    -0.251 OA
ATOM     27  C   UNL     1      -4.413  -2.399  -1.834  0.00  0.00    +0.136 C 
ENDBRANCH  24  25
ENDBRANCH   2  24
TORSDOF 5
