REMARK  Name = ZINC50444655
REMARK  6 active torsions:
REMARK  status: ('A' for Active; 'I' for Inactive)
REMARK    1  A    between atoms: C_1  and  C_2
REMARK    2  A    between atoms: C_2  and  C_3
REMARK    3  A    between atoms: C_7  and  N_23
REMARK    4  A    between atoms: C_9  and  C_12
REMARK    5  A    between atoms: C_12  and  C_13
REMARK    6  A    between atoms: C_18  and  N_19
REMARK                            x       y       z     vdW  Elec       q    Type
REMARK                         _______ _______ _______ _____ _____    ______ ____
ROOT
ATOM      1  C   UNL     1      -1.581  -0.637   0.277  0.00  0.00    -0.011 C 
ATOM      2  C   UNL     1      -2.403  -0.215  -0.942  0.00  0.00    +0.002 C 
ATOM      3  C   UNL     1      -1.708  -0.695  -2.218  0.00  0.00    -0.016 C 
ATOM      4  C   UNL     1      -1.585  -2.219  -2.188  0.00  0.00    -0.072 C 
ATOM      5  C   UNL     1      -0.762  -2.642  -0.970  0.00  0.00    -0.021 C 
ATOM      6  C   UNL     1      -1.458  -2.162   0.306  0.00  0.00    +0.005 C 
ENDROOT
BRANCH   4   7
ATOM      7  N   UNL     1      -0.917  -2.680  -3.413  0.00  0.00    +0.380 N 
ATOM      8  H   UNL     1       0.003  -2.270  -3.470  0.00  0.00    -0.090 HD
ATOM      9  H   UNL     1      -0.837  -3.686  -3.394  0.00  0.00    -0.090 HD
ATOM     10  H   UNL     1      -1.460  -2.402  -4.217  0.00  0.00    -0.090 HD
ENDBRANCH   4   7
BRANCH   1  12
ATOM     11  C   UNL     1      -0.300   1.508   0.288  0.00  0.00    +0.004 C 
ATOM     12  C   UNL     1      -0.185  -0.014   0.191  0.00  0.00    +0.000 C 
ENDBRANCH   1  12
BRANCH   5  13
ATOM     13  C   UNL     1      -0.640  -4.167  -0.941  0.00  0.00    +0.039 C 
BRANCH  13  14
ATOM     14  C   UNL     1       0.257  -4.577   0.199  0.00  0.00    -0.017 A 
ATOM     15  C   UNL     1      -0.293  -5.016   1.388  0.00  0.00    +0.007 A 
ATOM     16  C   UNL     1       0.529  -5.393   2.433  0.00  0.00    +0.020 A 
ATOM     17  C   UNL     1       1.903  -5.330   2.289  0.00  0.00    +0.043 A 
ATOM     18  C   UNL     1       2.454  -4.890   1.099  0.00  0.00    +0.053 A 
ATOM     19  C   UNL     1       1.631  -4.518   0.052  0.00  0.00    +0.131 A 
ATOM     20 CL   UNL     1       2.937  -5.802   3.601  0.00  0.00    -0.083 Cl
BRANCH  19  21
ATOM     21  N   UNL     1       2.219  -4.053  -1.223  0.00  0.00    +0.057 N 
ATOM     22  O   UNL     1       3.417  -4.083  -1.383  0.00  0.00    -0.126 OA
ATOM     23  O   UNL     1       1.502  -3.644  -2.106  0.00  0.00    -0.126 OA
ENDBRANCH  19  21
ENDBRANCH  13  14
ENDBRANCH   5  13
TORSDOF 5
