REMARK  Name = ZINC36273752
REMARK  6 active torsions:
REMARK  status: ('A' for Active; 'I' for Inactive)
REMARK    1  A    between atoms: C_3  and  O_17
REMARK    2  A    between atoms: C_6  and  C_10
REMARK    3  A    between atoms: C_13  and  N_16
REMARK    4  A    between atoms: O_17  and  C_18
REMARK    5  A    between atoms: C_18  and  C_19
REMARK    6  A    between atoms: N_21  and  C_22
REMARK                            x       y       z     vdW  Elec       q    Type
REMARK                         _______ _______ _______ _____ _____    ______ ____
ROOT
ATOM      1  C   UNL     1      -0.016   1.345   0.009  0.00  0.00    +0.022 A 
ATOM      2  C   UNL     1       1.186   2.071   0.002  0.00  0.00    +0.051 A 
ATOM      3  C   UNL     1       2.377   1.405  -0.013  0.00  0.00    +0.162 A 
ATOM      4  C   UNL     1       2.378  -0.009  -0.021  0.00  0.00    +0.159 A 
ATOM      5  N   UNL     1       3.361  -0.897  -0.036  0.00  0.00    -0.337 N 
ATOM      6  C   UNL     1       2.838  -2.132  -0.038  0.00  0.00    +0.065 A 
ATOM      7  C   UNL     1       1.480  -2.021  -0.024  0.00  0.00    +0.119 A 
ATOM      8  N   UNL     1       1.187  -0.686  -0.013  0.00  0.00    -0.305 N 
ATOM      9  C   UNL     1       0.002  -0.004   0.002  0.00  0.00    +0.093 A 
ATOM     10  H   UNL     1       4.308  -0.687  -0.044  0.00  0.00    +0.167 HD
ENDROOT
BRANCH   6  11
ATOM     11  C   UNL     1       3.607  -3.402  -0.053  0.00  0.00    -0.000 A 
ATOM     12  C   UNL     1       5.000  -3.374  -0.061  0.00  0.00    +0.012 A 
ATOM     13  C   UNL     1       5.712  -4.555  -0.076  0.00  0.00    +0.023 A 
ATOM     14  C   UNL     1       5.041  -5.772  -0.083  0.00  0.00    +0.025 A 
ATOM     15  C   UNL     1       3.651  -5.802  -0.075  0.00  0.00    +0.023 A 
ATOM     16  C   UNL     1       2.936  -4.624  -0.054  0.00  0.00    +0.012 A 
BRANCH  14  17
ATOM     17  N   UNL     1       5.764  -6.966  -0.098  0.00  0.00    -0.358 N 
ATOM     18  H   UNL     1       6.734  -6.946  -0.103  0.00  0.00    +0.142 HD
ATOM     19  H   UNL     1       5.297  -7.816  -0.102  0.00  0.00    +0.142 HD
ENDBRANCH  14  17
ENDBRANCH   6  11
BRANCH   3  20
ATOM     20  O   UNL     1       3.549   2.093  -0.021  0.00  0.00    -0.479 OA
BRANCH  20  21
ATOM     21  C   UNL     1       3.464   3.519  -0.013  0.00  0.00    +0.324 C 
BRANCH  21  22
ATOM     22  C   UNL     1       4.852   4.106  -0.024  0.00  0.00    +0.251 C 
ATOM     23  O   UNL     1       5.819   3.374  -0.037  0.00  0.00    -0.272 OA
ATOM     24  N   UNL     1       5.019   5.443  -0.018  0.00  0.00    -0.310 N 
ATOM     25  H   UNL     1       4.246   6.028  -0.008  0.00  0.00    +0.149 HD
BRANCH  24  26
ATOM     26  C   UNL     1       6.369   6.013  -0.029  0.00  0.00    +0.073 C 
ATOM     27  C   UNL     1       6.863   6.175  -1.481  0.00  0.00    +0.022 C 
ATOM     28  C   UNL     1       6.532   7.646  -1.833  0.00  0.00    +0.002 C 
ATOM     29  C   UNL     1       6.835   8.391  -0.509  0.00  0.00    +0.002 C 
ATOM     30  C   UNL     1       6.351   7.421   0.590  0.00  0.00    +0.022 C 
ENDBRANCH  24  26
ENDBRANCH  21  22
ENDBRANCH  20  21
ENDBRANCH   3  20
TORSDOF 6
