REMARK  Name = ZINC63709982
REMARK  6 active torsions:
REMARK  status: ('A' for Active; 'I' for Inactive)
REMARK    1  A    between atoms: C_7  and  C_10
REMARK    2  A    between atoms: C_10  and  C_11
REMARK    3  A    between atoms: C_11  and  N_12
REMARK    4  A    between atoms: C_13  and  C_15
REMARK    5  A    between atoms: N_17  and  C_18
REMARK    6  A    between atoms: C_22  and  N_24
REMARK                            x       y       z     vdW  Elec       q    Type
REMARK                         _______ _______ _______ _____ _____    ______ ____
ROOT
ATOM      1  C   UNL     1      -1.748  -6.539  -2.632  0.00  0.00    +0.303 C 
ATOM      2  O   UNL     1      -2.173  -6.971  -1.581  0.00  0.00    -0.265 OA
ATOM      3  N   UNL     1      -2.105  -7.123  -3.794  0.00  0.00    -0.278 N 
ATOM      4  H   UNL     1      -1.819  -6.740  -4.637  0.00  0.00    +0.155 HD
ENDROOT
BRANCH   3   5
ATOM      5  C   UNL     1      -2.888  -8.280  -3.782  0.00  0.00    +0.036 A 
ATOM      6  C   UNL     1      -3.873  -8.445  -2.814  0.00  0.00    +0.023 A 
ATOM      7  C   UNL     1      -4.647  -9.589  -2.802  0.00  0.00    +0.004 A 
ATOM      8  C   UNL     1      -4.445 -10.573  -3.751  0.00  0.00    +0.023 A 
ATOM      9  C   UNL     1      -3.463 -10.415  -4.721  0.00  0.00    +0.038 A 
ATOM     10  C   UNL     1      -2.688  -9.264  -4.740  0.00  0.00    +0.046 A 
BRANCH   9  11
ATOM     11  N   UNL     1      -3.260 -11.412  -5.681  0.00  0.00    -0.271 N 
ATOM     12  C   UNL     1      -4.330 -11.668  -6.637  0.00  0.00    +0.113 C 
ATOM     13  C   UNL     1      -3.789 -12.411  -7.859  0.00  0.00    +0.020 C 
ATOM     14  C   UNL     1      -2.987 -13.627  -7.380  0.00  0.00    +0.011 C 
ATOM     15  C   UNL     1      -1.730 -13.126  -6.664  0.00  0.00    +0.096 C 
ATOM     16  C   UNL     1      -2.097 -12.065  -5.667  0.00  0.00    +0.220 C 
ATOM     17  O   UNL     1      -1.295 -11.790  -4.800  0.00  0.00    -0.275 OA
ENDBRANCH   9  11
ENDBRANCH   3   5
BRANCH   1  19
ATOM     18  N   UNL     1      -0.473  -4.778  -1.479  0.00  0.00    -0.307 N 
ATOM     19  C   UNL     1      -0.830  -5.362  -2.640  0.00  0.00    +0.299 C 
ATOM     20  O   UNL     1      -0.405  -4.930  -3.692  0.00  0.00    -0.265 OA
ATOM     21  H   UNL     1      -0.812  -5.122  -0.638  0.00  0.00    +0.149 HD
BRANCH  18  22
ATOM     22  C   UNL     1       0.428  -3.623  -1.486  0.00  0.00    +0.109 C 
BRANCH  22  23
ATOM     23  C   UNL     1       0.671  -3.156  -0.050  0.00  0.00    +0.052 C 
BRANCH  23  30
ATOM     24  C   UNL     1      -0.090   1.369   0.003  0.00  0.00    +0.001 A 
ATOM     25  C   UNL     1       1.083   2.137  -0.014  0.00  0.00    +0.002 A 
ATOM     26  C   UNL     1       2.315   1.585  -0.043  0.00  0.00    +0.026 A 
ATOM     27  C   UNL     1       2.469   0.172  -0.057  0.00  0.00    +0.043 A 
ATOM     28  N   UNL     1       3.536  -0.590  -0.085  0.00  0.00    -0.380 N 
ATOM     29  C   UNL     1       3.109  -1.993  -0.088  0.00  0.00    +0.144 C 
ATOM     30  C   UNL     1       1.597  -1.967  -0.058  0.00  0.00    -0.040 C 
ATOM     31  C   UNL     1       1.246  -0.661  -0.040  0.00  0.00    -0.001 A 
ATOM     32  C   UNL     1      -0.056   0.017  -0.009  0.00  0.00    +0.010 A 
ATOM     33  H   UNL     1       4.454  -0.277  -0.101  0.00  0.00    +0.160 HD
ENDBRANCH  23  30
ENDBRANCH  22  23
ENDBRANCH  18  22
ENDBRANCH   1  19
TORSDOF 6
