REMARK  Name = ZINC43085353
REMARK  9 active torsions:
REMARK  status: ('A' for Active; 'I' for Inactive)
REMARK    1  A    between atoms: C_1  and  C_2
REMARK    2  A    between atoms: C_5  and  S_23
REMARK    3  A    between atoms: C_7  and  C_8
REMARK    4  A    between atoms: N_10  and  C_11
REMARK    5  A    between atoms: C_11  and  C_12
REMARK    6  A    between atoms: C_12  and  C_14
REMARK    7  A    between atoms: C_12  and  N_15
REMARK    8  A    between atoms: C_20  and  C_22
REMARK    9  A    between atoms: S_23  and  N_26
REMARK                            x       y       z     vdW  Elec       q    Type
REMARK                         _______ _______ _______ _____ _____    ______ ____
ROOT
ATOM      1  C   UNL     1       0.361   0.345   3.141  0.00  0.00    +0.244 C 
ATOM      2  O   UNL     1      -0.139   1.420   3.409  0.00  0.00    -0.270 OA
ATOM      3  N   UNL     1       0.791  -0.463   4.130  0.00  0.00    -0.313 N 
ATOM      4  H   UNL     1       1.190  -1.321   3.916  0.00  0.00    +0.149 HD
ENDROOT
BRANCH   1  11
ATOM      5  C   UNL     1      -0.802   1.966   1.046  0.00  0.00    +0.044 C 
ATOM      6  C   UNL     1      -0.059   0.699   0.711  0.00  0.00    -0.038 A 
ATOM      7  C   UNL     1       0.077   0.304  -0.604  0.00  0.00    +0.006 A 
ATOM      8  C   UNL     1       0.759  -0.860  -0.912  0.00  0.00    +0.029 A 
ATOM      9  C   UNL     1       1.309  -1.635   0.094  0.00  0.00    +0.106 A 
ATOM     10  C   UNL     1       1.180  -1.251   1.412  0.00  0.00    +0.041 A 
ATOM     11  C   UNL     1       0.498  -0.075   1.730  0.00  0.00    +0.041 A 
BRANCH   9  12
ATOM     12  S   UNL     1       2.175  -3.115  -0.310  0.00  0.00    +0.056 S 
ATOM     13  O   UNL     1       2.123  -3.943   0.843  0.00  0.00    -0.153 OA
ATOM     14  O   UNL     1       1.685  -3.539  -1.575  0.00  0.00    -0.153 OA
BRANCH  12  15
ATOM     15  N   UNL     1       3.765  -2.708  -0.530  0.00  0.00    -0.204 NA
ATOM     16  H   UNL     1       4.048  -1.786  -0.427  0.00  0.00    +0.144 HD
ATOM     17  H   UNL     1       4.413  -3.392  -0.761  0.00  0.00    +0.144 HD
ENDBRANCH  12  15
ENDBRANCH   9  12
ENDBRANCH   1  11
BRANCH   3  18
ATOM     18  C   UNL     1       0.655  -0.046   5.528  0.00  0.00    +0.089 C 
BRANCH  18  19
ATOM     19  C   UNL     1       1.040  -1.208   6.446  0.00  0.00    -0.054 C 
ATOM     20  C   UNL     1       1.125  -0.710   7.890  0.00  0.00    -0.012 C 
BRANCH  19  21
ATOM     21  N   UNL     1       0.024  -2.265   6.352  0.00  0.00    +0.384 N 
ATOM     22  C   UNL     1      -1.303  -1.689   6.603  0.00  0.00    -0.078 C 
ATOM     23  C   UNL     1      -2.356  -2.799   6.585  0.00  0.00    -0.019 C 
ATOM     24  C   UNL     1      -2.346  -3.484   5.216  0.00  0.00    -0.003 C 
ATOM     25  C   UNL     1      -0.938  -4.016   4.932  0.00  0.00    -0.016 C 
ATOM     26  C   UNL     1       0.063  -2.861   5.011  0.00  0.00    -0.071 C 
ATOM     27  C   UNL     1       1.471  -3.387   4.728  0.00  0.00    -0.013 C 
ATOM     28  H   UNL     1       0.215  -2.977   7.041  0.00  0.00    -0.081 HD
ENDBRANCH  19  21
ENDBRANCH  18  19
ENDBRANCH   3  18
TORSDOF 6
