REMARK  Name = ZINC62952167
REMARK  6 active torsions:
REMARK  status: ('A' for Active; 'I' for Inactive)
REMARK    1  A    between atoms: C_1  and  C_2
REMARK    2  A    between atoms: C_2  and  C_3
REMARK    3  A    between atoms: C_3  and  C_20
REMARK    4  A    between atoms: N_6  and  C_9
REMARK    5  A    between atoms: C_16  and  C_18
REMARK    6  A    between atoms: C_18  and  N_19
REMARK                            x       y       z     vdW  Elec       q    Type
REMARK                         _______ _______ _______ _____ _____    ______ ____
ROOT
ATOM      1  C   UNL     1      -4.904  -2.619   1.407  0.00  0.00    -0.067 C 
ATOM      2  C   UNL     1      -4.790  -4.141   1.200  0.00  0.00    -0.015 C 
ATOM      3  C   UNL     1      -5.986  -4.915   1.786  0.00  0.00    -0.002 C 
ATOM      4  C   UNL     1      -7.300  -4.235   1.516  0.00  0.00    -0.000 C 
ATOM      5  C   UNL     1      -7.650  -3.345   2.726  0.00  0.00    +0.000 C 
ATOM      6  C   UNL     1      -6.937  -2.076   2.707  0.00  0.00    -0.000 C 
ATOM      7  C   UNL     1      -5.406  -2.262   2.780  0.00  0.00    -0.042 C 
ENDROOT
BRANCH   1  11
ATOM      8  C   UNL     1      -0.762  -2.103   0.545  0.00  0.00    -0.036 C 
ATOM      9  C   UNL     1      -1.808  -1.512  -0.404  0.00  0.00    -0.012 C 
ATOM     10  C   UNL     1      -3.150  -2.212  -0.176  0.00  0.00    -0.078 C 
ATOM     11  N   UNL     1      -3.580  -2.012   1.213  0.00  0.00    +0.382 N 
ATOM     12  C   UNL     1      -2.618  -2.639   2.127  0.00  0.00    -0.078 C 
ATOM     13  C   UNL     1      -1.256  -1.956   1.988  0.00  0.00    -0.012 C 
ATOM     14  C   UNL     1      -0.556  -3.585   0.224  0.00  0.00    +0.011 C 
ATOM     15  H   UNL     1      -3.633  -1.024   1.409  0.00  0.00    -0.081 HD
BRANCH   8  17
ATOM     16  C   UNL     1       1.053  -1.503  -1.063  0.00  0.00    +0.004 C 
ATOM     17  C   UNL     1       0.561  -1.355   0.378  0.00  0.00    +0.003 C 
ENDBRANCH   8  17
ENDBRANCH   1  11
BRANCH   7  18
ATOM     18  C   UNL     1      -4.753  -0.959   3.244  0.00  0.00    -0.085 C 
BRANCH  18  19
ATOM     19  N   UNL     1      -5.147  -0.681   4.632  0.00  0.00    +0.378 N 
ATOM     20  H   UNL     1      -4.716   0.178   4.938  0.00  0.00    -0.090 HD
ATOM     21  H   UNL     1      -6.150  -0.592   4.685  0.00  0.00    -0.090 HD
ATOM     22  H   UNL     1      -4.845  -1.439   5.226  0.00  0.00    -0.090 HD
ENDBRANCH  18  19
ENDBRANCH   7  18
TORSDOF 4
