REMARK  Name = ZINC42184586
REMARK  12 active torsions:
REMARK  status: ('A' for Active; 'I' for Inactive)
REMARK    1  A    between atoms: C_1  and  C_2
REMARK    2  A    between atoms: C_2  and  C_4
REMARK    3  A    between atoms: C_2  and  N_14
REMARK    4  A    between atoms: C_7  and  O_12
REMARK    5  A    between atoms: C_9  and  O_10
REMARK    6  A    between atoms: O_10  and  C_11
REMARK    7  A    between atoms: O_12  and  C_13
REMARK    8  A    between atoms: N_14  and  C_15
REMARK    9  A    between atoms: C_15  and  C_17
REMARK   10  A    between atoms: C_15  and  C_18
REMARK   11  A    between atoms: N_23  and  C_24
REMARK   12  A    between atoms: C_24  and  C_25
REMARK                            x       y       z     vdW  Elec       q    Type
REMARK                         _______ _______ _______ _____ _____    ______ ____
ROOT
ATOM      1  C   UNL     1      -2.026  -0.140   1.276  0.00  0.00    +0.014 C 
ATOM      2  C   UNL     1      -1.325  -0.846   2.438  0.00  0.00    -0.004 C 
ENDROOT
BRANCH   1   3
ATOM      3  C   UNL     1      -3.475  -0.553   1.237  0.00  0.00    +0.206 C 
ATOM      4  O   UNL     1      -3.921  -1.104   0.254  0.00  0.00    -0.277 OA
ATOM      5  N   UNL     1      -4.274  -0.311   2.295  0.00  0.00    -0.242 N 
ATOM      6  C   UNL     1      -5.569  -0.680   2.260  0.00  0.00    +0.306 C 
ATOM      7  O   UNL     1      -6.017  -1.233   1.274  0.00  0.00    -0.252 OA
ATOM      8  N   UNL     1      -6.368  -0.438   3.318  0.00  0.00    -0.294 N 
ATOM      9  H   UNL     1      -3.916   0.130   3.082  0.00  0.00    +0.159 HD
ATOM     10  H   UNL     1      -6.010   0.003   4.105  0.00  0.00    +0.151 HD
BRANCH   8  11
ATOM     11  C   UNL     1      -7.776  -0.840   3.280  0.00  0.00    +0.148 C 
BRANCH  11  12
ATOM     12  C   UNL     1      -8.443  -0.457   4.576  0.00  0.00    +0.007 A 
ATOM     13  C   UNL     1      -9.082   0.693   4.900  0.00  0.00    +0.013 A 
ATOM     14  C   UNL     1      -9.625   0.825   6.165  0.00  0.00    +0.008 A 
ATOM     15  C   UNL     1      -9.503  -0.200   7.043  0.00  0.00    +0.045 A 
ATOM     16  S   UNL     1      -8.603  -1.405   6.080  0.00  0.00    -0.100 S 
ENDBRANCH  11  12
ENDBRANCH   8  11
ENDBRANCH   1   3
BRANCH   1  17
ATOM     17  N   UNL     1      -1.376  -0.512   0.012  0.00  0.00    +0.391 N 
ATOM     18  H   UNL     1      -1.888  -0.113  -0.760  0.00  0.00    -0.084 HD
ATOM     19  H   UNL     1      -1.364  -1.518  -0.076  0.00  0.00    -0.084 HD
BRANCH  17  21
ATOM     20  C   UNL     1      -0.019   1.526   0.010  0.00  0.00    -0.009 C 
ATOM     21  C   UNL     1       0.002  -0.004   0.002  0.00  0.00    -0.039 C 
BRANCH  21  22
ATOM     22  C   UNL     1       0.707  -0.490  -1.238  0.00  0.00    -0.020 A 
ATOM     23  C   UNL     1      -0.023  -0.817  -2.365  0.00  0.00    +0.009 A 
ATOM     24  C   UNL     1       0.621  -1.263  -3.503  0.00  0.00    +0.046 A 
ATOM     25  C   UNL     1       2.003  -1.383  -3.517  0.00  0.00    +0.124 A 
ATOM     26  C   UNL     1       2.738  -1.056  -2.388  0.00  0.00    +0.091 A 
ATOM     27  C   UNL     1       2.090  -0.604  -1.249  0.00  0.00    +0.125 A 
BRANCH  27  28
ATOM     28  O   UNL     1       2.809  -0.276  -0.143  0.00  0.00    -0.495 OA
ATOM     29  C   UNL     1       4.228  -0.417  -0.226  0.00  0.00    +0.277 C 
ENDBRANCH  27  28
BRANCH  25  30
ATOM     30  O   UNL     1       2.636  -1.823  -4.637  0.00  0.00    -0.495 OA
ATOM     31  C   UNL     1       1.815  -2.142  -5.763  0.00  0.00    +0.277 C 
ENDBRANCH  25  30
ENDBRANCH  21  22
ENDBRANCH  17  21
ENDBRANCH   1  17
TORSDOF 8
