REMARK  Name = ZINC53859857
REMARK  7 active torsions:
REMARK  status: ('A' for Active; 'I' for Inactive)
REMARK    1  A    between atoms: C_1  and  C_2
REMARK    2  A    between atoms: C_2  and  N_3
REMARK    3  A    between atoms: N_3  and  C_4
REMARK    4  A    between atoms: C_10  and  C_12
REMARK    5  A    between atoms: C_12  and  N_13
REMARK    6  A    between atoms: C_16  and  C_22
REMARK    7  A    between atoms: C_19  and  C_21
REMARK                            x       y       z     vdW  Elec       q    Type
REMARK                         _______ _______ _______ _____ _____    ______ ____
ROOT
ATOM      1  C   UNL     1       0.710  -1.947  -1.215  0.00  0.00    -0.070 C 
ATOM      2  C   UNL     1      -0.722  -2.475  -1.330  0.00  0.00    -0.016 C 
ATOM      3  C   UNL     1      -0.701  -4.005  -1.338  0.00  0.00    -0.002 C 
ATOM      4  C   UNL     1       0.122  -4.498  -2.530  0.00  0.00    +0.000 C 
ATOM      5  C   UNL     1       1.553  -3.969  -2.415  0.00  0.00    -0.000 C 
ATOM      6  C   UNL     1       1.532  -2.439  -2.407  0.00  0.00    -0.042 C 
ENDROOT
BRANCH   1   7
ATOM      7  N   UNL     1       0.690  -0.478  -1.207  0.00  0.00    +0.381 N 
ATOM      8  H   UNL     1       0.202  -0.144  -2.024  0.00  0.00    -0.086 HD
ATOM      9  H   UNL     1       1.636  -0.129  -1.214  0.00  0.00    -0.086 HD
BRANCH   7  11
ATOM     10  C   UNL     1      -0.019   1.526   0.010  0.00  0.00    -0.017 C 
ATOM     11  C   UNL     1       0.002  -0.004   0.002  0.00  0.00    -0.086 C 
ENDBRANCH   7  11
ENDBRANCH   1   7
BRANCH   6  12
ATOM     12  C   UNL     1       2.964  -1.910  -2.292  0.00  0.00    -0.077 C 
BRANCH  12  13
ATOM     13  N   UNL     1       3.721  -2.282  -3.494  0.00  0.00    +0.382 N 
ATOM     14  C   UNL     1       3.142  -1.609  -4.663  0.00  0.00    -0.078 C 
ATOM     15  C   UNL     1       3.876  -2.055  -5.929  0.00  0.00    -0.016 C 
ATOM     16  C   UNL     1       5.358  -1.689  -5.810  0.00  0.00    -0.017 C 
ATOM     17  C   UNL     1       5.933  -2.336  -4.547  0.00  0.00    -0.012 C 
ATOM     18  C   UNL     1       5.123  -1.879  -3.332  0.00  0.00    -0.071 C 
ATOM     19  C   UNL     1       5.694  -2.523  -2.067  0.00  0.00    -0.013 C 
ATOM     20  C   UNL     1       6.113  -2.202  -7.038  0.00  0.00    +0.007 C 
ATOM     21  H   UNL     1       3.672  -3.281  -3.626  0.00  0.00    -0.081 HD
ENDBRANCH  12  13
ENDBRANCH   6  12
TORSDOF 4
