REMARK  Name = ZINC36569599
REMARK  8 active torsions:
REMARK  status: ('A' for Active; 'I' for Inactive)
REMARK    1  A    between atoms: C_1  and  C_2
REMARK    2  A    between atoms: C_2  and  C_34
REMARK    3  A    between atoms: C_3  and  C_21
REMARK    4  A    between atoms: C_12  and  O_19
REMARK    5  A    between atoms: C_13  and  O_17
REMARK    6  A    between atoms: O_17  and  C_18
REMARK    7  A    between atoms: O_19  and  C_20
REMARK    8  A    between atoms: C_21  and  N_23
REMARK                            x       y       z     vdW  Elec       q    Type
REMARK                         _______ _______ _______ _____ _____    ______ ____
ROOT
ATOM      1  C   UNL     1      -0.002   1.522   0.009  0.00  0.00    +0.025 C 
ATOM      2  C   UNL     1       0.024  -0.008  -0.003  0.00  0.00    +0.040 C 
ATOM      3  C   UNL     1       0.868  -0.539  -1.187  0.00  0.00    +0.181 C 
ATOM      4  N   UNL     1       2.125  -1.163  -0.771  0.00  0.00    -0.268 N 
ATOM      5  C   UNL     1       1.961  -1.903   0.515  0.00  0.00    +0.167 C 
ATOM      6  S   UNL     1       0.962  -0.666   1.445  0.00  0.00    -0.125 S 
ATOM      7  C   UNL     1       3.344  -2.023   1.089  0.00  0.00    -0.001 A 
ATOM      8  C   UNL     1       3.832  -2.372   2.325  0.00  0.00    +0.011 A 
ATOM      9  C   UNL     1       5.199  -2.410   2.550  0.00  0.00    +0.050 A 
ATOM     10  C   UNL     1       6.083  -2.096   1.531  0.00  0.00    +0.162 A 
ATOM     11  C   UNL     1       5.602  -1.734   0.277  0.00  0.00    +0.174 A 
ATOM     12  C   UNL     1       4.222  -1.688   0.051  0.00  0.00    +0.088 A 
ATOM     13  C   UNL     1       3.423  -1.297  -1.117  0.00  0.00    +0.252 C 
ATOM     14  O   UNL     1       3.867  -1.140  -2.238  0.00  0.00    -0.270 OA
ATOM     15  C   UNL     1      -1.396  -0.577  -0.042  0.00  0.00    +0.025 C 
ENDROOT
BRANCH  11  16
ATOM     16  O   UNL     1       6.468  -1.426  -0.723  0.00  0.00    -0.491 OA
ATOM     17  C   UNL     1       6.900  -2.499  -1.561  0.00  0.00    +0.277 C 
ENDBRANCH  11  16
BRANCH  10  18
ATOM     18  O   UNL     1       7.423  -2.142   1.757  0.00  0.00    -0.491 OA
ATOM     19  C   UNL     1       7.848  -2.522   3.068  0.00  0.00    +0.277 C 
ENDBRANCH  10  18
BRANCH   3  20
ATOM     20  C   UNL     1       0.053  -1.557  -1.942  0.00  0.00    +0.261 C 
ATOM     21  O   UNL     1       0.241  -2.744  -1.757  0.00  0.00    -0.271 OA
BRANCH  20  22
ATOM     22  N   UNL     1      -0.870  -1.157  -2.811  0.00  0.00    -0.145 NA
ATOM     23  C   UNL     1      -1.515  -2.052  -3.555  0.00  0.00    +0.198 A 
ATOM     24  N   UNL     1      -1.403  -3.401  -3.437  0.00  0.00    -0.326 N 
ATOM     25  H   UNL     1      -0.842  -3.871  -2.800  0.00  0.00    +0.169 HD
ATOM     26  C   UNL     1      -2.231  -3.992  -4.385  0.00  0.00    +0.065 A 
ATOM     27  C   UNL     1      -2.508  -5.313  -4.710  0.00  0.00    +0.028 A 
ATOM     28  C   UNL     1      -3.398  -5.599  -5.726  0.00  0.00    +0.002 A 
ATOM     29  C   UNL     1      -4.016  -4.575  -6.422  0.00  0.00    +0.002 A 
ATOM     30  C   UNL     1      -3.747  -3.257  -6.108  0.00  0.00    +0.028 A 
ATOM     31  C   UNL     1      -2.855  -2.959  -5.088  0.00  0.00    +0.065 A 
ATOM     32  N   UNL     1      -2.396  -1.762  -4.548  0.00  0.00    -0.326 N 
ATOM     33  H   UNL     1      -2.658  -0.872  -4.833  0.00  0.00    +0.169 HD
ENDBRANCH  20  22
ENDBRANCH   3  20
TORSDOF 4
