REMARK  Name = ZINC65397512
REMARK  5 active torsions:
REMARK  status: ('A' for Active; 'I' for Inactive)
REMARK    1  A    between atoms: C_6  and  O_7
REMARK    2  A    between atoms: O_7  and  C_8
REMARK    3  A    between atoms: C_8  and  C_14
REMARK    4  A    between atoms: N_16  and  C_17
REMARK    5  A    between atoms: C_17  and  C_18
REMARK                            x       y       z     vdW  Elec       q    Type
REMARK                         _______ _______ _______ _____ _____    ______ ____
ROOT
ATOM      1  C   UNL     1      -1.075  -2.123  -0.110  0.00  0.00    +0.182 C 
ATOM      2  C   UNL     1      -0.489  -2.860   1.097  0.00  0.00    +0.038 C 
ATOM      3  C   UNL     1      -0.634  -4.369   0.886  0.00  0.00    -0.078 C 
ATOM      4  N   UNL     1      -2.054  -4.712   0.743  0.00  0.00    +0.379 N 
ATOM      5  C   UNL     1      -2.605  -4.065  -0.454  0.00  0.00    -0.078 C 
ATOM      6  C   UNL     1      -2.536  -2.545  -0.294  0.00  0.00    +0.038 C 
ATOM      7  H   UNL     1      -2.150  -5.713   0.658  0.00  0.00    -0.086 HD
ATOM      8  H   UNL     1      -2.559  -4.396   1.558  0.00  0.00    -0.086 HD
ENDROOT
BRANCH   1   9
ATOM      9  C   UNL     1      -0.290  -2.474  -1.348  0.00  0.00    +0.257 C 
ATOM     10  O   UNL     1       0.365  -3.494  -1.381  0.00  0.00    -0.271 OA
ATOM     11  N   UNL     1      -0.315  -1.654  -2.417  0.00  0.00    -0.310 N 
ATOM     12  H   UNL     1      -0.894  -0.876  -2.418  0.00  0.00    +0.149 HD
BRANCH  11  13
ATOM     13  C   UNL     1       0.531  -1.939  -3.578  0.00  0.00    +0.135 C 
BRANCH  13  14
ATOM     14  C   UNL     1       0.314  -0.863  -4.644  0.00  0.00    +0.135 C 
ATOM     15  C   UNL     1       1.198  -1.160  -5.858  0.00  0.00    +0.033 C 
ATOM     16  C   UNL     1       0.930  -0.114  -6.944  0.00  0.00    +0.005 C 
ATOM     17  C   UNL     1      -0.562  -0.127  -7.294  0.00  0.00    +0.028 C 
ATOM     18  C   UNL     1      -1.378   0.130  -6.024  0.00  0.00    +0.160 C 
ATOM     19  O   UNL     1      -1.058  -0.860  -5.045  0.00  0.00    -0.375 OA
ENDBRANCH  13  14
ENDBRANCH  11  13
ENDBRANCH   1   9
BRANCH   1  20
ATOM     20  O   UNL     1      -1.010  -0.713   0.113  0.00  0.00    -0.477 OA
BRANCH  20  26
ATOM     21  C   UNL     1       0.363   1.187   0.522  0.00  0.00    +0.047 A 
ATOM     22  C   UNL     1       1.622   1.742   0.645  0.00  0.00    +0.023 A 
ATOM     23  C   UNL     1       2.747   0.954   0.481  0.00  0.00    +0.041 A 
ATOM     24  C   UNL     1       2.613  -0.393   0.194  0.00  0.00    +0.023 A 
ATOM     25  C   UNL     1       1.356  -0.953   0.070  0.00  0.00    +0.047 A 
ATOM     26  C   UNL     1       0.227  -0.164   0.234  0.00  0.00    +0.122 A 
ATOM     27 CL   UNL     1       4.327   1.655   0.636  0.00  0.00    -0.084 Cl
ENDBRANCH  20  26
ENDBRANCH   1  20
TORSDOF 5
