REMARK  Name = ZINC62473535
REMARK  9 active torsions:
REMARK  status: ('A' for Active; 'I' for Inactive)
REMARK    1  A    between atoms: C_1  and  C_2
REMARK    2  A    between atoms: C_2  and  N_3
REMARK    3  A    between atoms: N_3  and  C_4
REMARK    4  A    between atoms: N_3  and  C_6
REMARK    5  A    between atoms: C_4  and  C_5
REMARK    6  A    between atoms: C_6  and  C_7
REMARK    7  A    between atoms: C_7  and  N_8
REMARK    8  A    between atoms: C_14  and  N_17
REMARK    9  A    between atoms: C_18  and  C_20
REMARK                            x       y       z     vdW  Elec       q    Type
REMARK                         _______ _______ _______ _____ _____    ______ ____
ROOT
ATOM      1  N   UNL     1       0.160  -3.435   1.895  0.00  0.00    -0.301 N 
ATOM      2  C   UNL     1       0.886  -3.800   2.970  0.00  0.00    +0.302 C 
ATOM      3  O   UNL     1       1.253  -2.960   3.769  0.00  0.00    -0.253 OA
ATOM      4  N   UNL     1       1.205  -5.095   3.160  0.00  0.00    -0.286 N 
ATOM      5  C   UNL     1       0.871  -6.105   2.146  0.00  0.00    +0.111 C 
ATOM      6  C   UNL     1       0.080  -7.233   2.815  0.00  0.00    +0.041 C 
ATOM      7  C   UNL     1       0.879  -7.776   4.003  0.00  0.00    +0.076 C 
ATOM      8  C   UNL     1       1.092  -6.660   5.029  0.00  0.00    +0.041 C 
ATOM      9  C   UNL     1       1.899  -5.524   4.382  0.00  0.00    +0.111 C 
ATOM     10  H   UNL     1      -0.195  -4.111   1.297  0.00  0.00    +0.150 HD
ENDROOT
BRANCH   7  11
ATOM     11  N   UNL     1       0.141  -8.877   4.625  0.00  0.00    -0.312 N 
ATOM     12  C   UNL     1       0.802  -9.821   5.324  0.00  0.00    +0.216 C 
ATOM     13  O   UNL     1       2.008  -9.758   5.438  0.00  0.00    -0.276 OA
ATOM     14  H   UNL     1      -0.824  -8.927   4.534  0.00  0.00    +0.149 HD
BRANCH  12  15
ATOM     15  C   UNL     1       0.042 -10.954   5.965  0.00  0.00    +0.075 C 
ATOM     16  C   UNL     1      -0.700 -11.745   4.886  0.00  0.00    +0.013 C 
ATOM     17  C   UNL     1      -1.470 -12.896   5.536  0.00  0.00    +0.001 C 
ATOM     18  C   UNL     1      -0.491 -13.820   6.263  0.00  0.00    +0.000 C 
ATOM     19  C   UNL     1       0.251 -13.028   7.342  0.00  0.00    +0.001 C 
ATOM     20  C   UNL     1       1.022 -11.878   6.692  0.00  0.00    +0.013 C 
ENDBRANCH  12  15
ENDBRANCH   7  11
BRANCH   1  21
ATOM     21  C   UNL     1      -0.093  -2.017   1.629  0.00  0.00    +0.087 C 
BRANCH  21  22
ATOM     22  C   UNL     1      -0.934  -1.878   0.358  0.00  0.00    -0.060 C 
BRANCH  22  23
ATOM     23  N   UNL     1      -1.188  -0.456   0.091  0.00  0.00    +0.380 N 
ATOM     24  H   UNL     1      -1.611  -0.032   0.903  0.00  0.00    -0.082 HD
BRANCH  23  26
ATOM     25  C   UNL     1      -0.161   1.724  -0.345  0.00  0.00    -0.017 C 
ATOM     26  C   UNL     1       0.082   0.220  -0.208  0.00  0.00    -0.082 C 
ENDBRANCH  23  26
BRANCH  23  27
ATOM     27  C   UNL     1      -2.094  -0.327  -1.058  0.00  0.00    -0.082 C 
ATOM     28  C   UNL     1      -3.463  -0.903  -0.694  0.00  0.00    -0.017 C 
ENDBRANCH  23  27
ENDBRANCH  22  23
ENDBRANCH  21  22
ENDBRANCH   1  21
TORSDOF 7
