REMARK  Name = ZINC37627447
REMARK  11 active torsions:
REMARK  status: ('A' for Active; 'I' for Inactive)
REMARK    1  A    between atoms: C_1  and  C_2
REMARK    2  A    between atoms: C_2  and  C_4
REMARK    3  A    between atoms: C_2  and  N_14
REMARK    4  A    between atoms: C_7  and  C_10
REMARK    5  A    between atoms: C_10  and  C_11
REMARK    6  A    between atoms: C_11  and  C_12
REMARK    7  A    between atoms: C_11  and  C_13
REMARK    8  A    between atoms: C_15  and  C_17
REMARK    9  A    between atoms: C_17  and  N_18
REMARK   10  A    between atoms: C_19  and  C_21
REMARK   11  A    between atoms: C_21  and  N_22
REMARK                            x       y       z     vdW  Elec       q    Type
REMARK                         _______ _______ _______ _____ _____    ______ ____
ROOT
ATOM      1  N   UNL     1       0.688  -0.476  -1.203  0.00  0.00    -0.307 N 
ATOM      2  C   UNL     1       2.031  -0.587  -1.215  0.00  0.00    +0.231 C 
ATOM      3  O   UNL     1       2.672  -0.295  -0.228  0.00  0.00    -0.274 OA
ATOM      4  H   UNL     1       0.175  -0.710  -1.993  0.00  0.00    +0.149 HD
ENDROOT
BRANCH   1   6
ATOM      5  C   UNL     1      -0.019   1.526   0.010  0.00  0.00    +0.033 C 
ATOM      6  C   UNL     1       0.002  -0.004   0.002  0.00  0.00    +0.100 C 
BRANCH   6   7
ATOM      7  C   UNL     1      -1.412  -0.526   0.013  0.00  0.00    -0.027 A 
ATOM      8  C   UNL     1      -2.141  -0.569  -1.161  0.00  0.00    +0.006 A 
ATOM      9  C   UNL     1      -3.438  -1.047  -1.151  0.00  0.00    +0.004 A 
ATOM     10  C   UNL     1      -4.005  -1.483   0.032  0.00  0.00    -0.047 A 
ATOM     11  C   UNL     1      -3.275  -1.441   1.205  0.00  0.00    +0.004 A 
ATOM     12  C   UNL     1      -1.977  -0.966   1.195  0.00  0.00    +0.006 A 
BRANCH  10  13
ATOM     13  C   UNL     1      -5.419  -2.004   0.043  0.00  0.00    +0.038 C 
BRANCH  13  14
ATOM     14  C   UNL     1      -5.409  -3.513  -0.210  0.00  0.00    -0.013 C 
ATOM     15  C   UNL     1      -4.709  -4.220   0.952  0.00  0.00    +0.007 C 
ATOM     16  C   UNL     1      -6.848  -4.021  -0.323  0.00  0.00    +0.007 C 
ENDBRANCH  13  14
ENDBRANCH  10  13
ENDBRANCH   6   7
ENDBRANCH   1   6
BRANCH   2  17
ATOM     17  C   UNL     1       2.736  -1.073  -2.455  0.00  0.00    +0.200 C 
BRANCH  17  18
ATOM     18  N   UNL     1       4.181  -1.104  -2.214  0.00  0.00    -0.308 N 
ATOM     19  C   UNL     1       5.018  -1.509  -3.190  0.00  0.00    +0.196 C 
ATOM     20  O   UNL     1       4.575  -1.847  -4.267  0.00  0.00    -0.278 OA
ATOM     21  H   UNL     1       4.535  -0.833  -1.353  0.00  0.00    +0.149 HD
BRANCH  19  22
ATOM     22  C   UNL     1       6.504  -1.541  -2.942  0.00  0.00    +0.011 C 
BRANCH  22  23
ATOM     23  N   UNL     1       7.192  -2.014  -4.151  0.00  0.00    +0.384 N 
ATOM     24  H   UNL     1       6.869  -2.943  -4.380  0.00  0.00    -0.089 HD
ATOM     25  H   UNL     1       6.992  -1.390  -4.918  0.00  0.00    -0.089 HD
ATOM     26  H   UNL     1       8.187  -2.036  -3.985  0.00  0.00    -0.089 HD
ENDBRANCH  22  23
ENDBRANCH  19  22
ENDBRANCH  17  18
ENDBRANCH   2  17
TORSDOF 8
