REMARK  Name = ZINC52663453
REMARK  10 active torsions:
REMARK  status: ('A' for Active; 'I' for Inactive)
REMARK    1  A    between atoms: C_1  and  C_2
REMARK    2  A    between atoms: C_3  and  C_19
REMARK    3  A    between atoms: C_5  and  C_7
REMARK    4  A    between atoms: C_7  and  O_8
REMARK    5  A    between atoms: O_8  and  C_9
REMARK    6  A    between atoms: C_12  and  C_15
REMARK    7  A    between atoms: C_15  and  C_16
REMARK    8  A    between atoms: C_15  and  C_17
REMARK    9  A    between atoms: C_15  and  C_18
REMARK   10  A    between atoms: C_19  and  N_20
REMARK                            x       y       z     vdW  Elec       q    Type
REMARK                         _______ _______ _______ _____ _____    ______ ____
ROOT
ATOM      1  C   UNL     1       1.684  -3.245  -0.023  0.00  0.00    +0.303 C 
ENDROOT
BRANCH   1   6
ATOM      2  C   UNL     1      -0.018   1.503   0.010  0.00  0.00    +0.086 C 
ATOM      3  C   UNL     1       0.002  -0.004   0.002  0.00  0.00    +0.104 A 
ATOM      4  C   UNL     1      -1.078  -0.805   0.003  0.00  0.00    -0.024 A 
ATOM      5  C   UNL     1      -0.601  -2.136  -0.007  0.00  0.00    +0.050 A 
ATOM      6  C   UNL     1       0.742  -2.069  -0.013  0.00  0.00    +0.143 A 
ATOM      7  O   UNL     1       1.102  -0.775  -0.013  0.00  0.00    -0.461 OA
BRANCH   4   8
ATOM      8  C   UNL     1      -2.521  -0.369   0.012  0.00  0.00    -0.047 C 
BRANCH   8   9
ATOM      9  N   UNL     1      -2.926   0.012  -1.347  0.00  0.00    +0.381 N 
ATOM     10  H   UNL     1      -2.347   0.772  -1.671  0.00  0.00    -0.090 HD
ATOM     11  H   UNL     1      -2.819  -0.780  -1.964  0.00  0.00    -0.090 HD
ATOM     12  H   UNL     1      -3.892   0.304  -1.341  0.00  0.00    -0.090 HD
ENDBRANCH   8   9
ENDBRANCH   4   8
ENDBRANCH   1   6
BRANCH   1  13
ATOM     13  O   UNL     1       1.976  -3.610  -1.373  0.00  0.00    -0.484 OA
BRANCH  13  14
ATOM     14  C   UNL     1       2.817  -4.661  -1.560  0.00  0.00    +0.121 A 
ATOM     15  C   UNL     1       3.346  -5.331  -0.466  0.00  0.00    +0.046 A 
ATOM     16  C   UNL     1       4.200  -6.399  -0.659  0.00  0.00    +0.008 A 
ATOM     17  C   UNL     1       4.528  -6.801  -1.941  0.00  0.00    -0.042 A 
ATOM     18  C   UNL     1       4.003  -6.135  -3.032  0.00  0.00    +0.008 A 
ATOM     19  C   UNL     1       3.143  -5.070  -2.845  0.00  0.00    +0.046 A 
BRANCH  17  20
ATOM     20  C   UNL     1       5.461  -7.966  -2.148  0.00  0.00    -0.013 C 
ATOM     21  C   UNL     1       4.861  -9.220  -1.509  0.00  0.00    +0.015 C 
ATOM     22  C   UNL     1       5.657  -8.202  -3.647  0.00  0.00    +0.015 C 
ATOM     23  C   UNL     1       6.812  -7.660  -1.499  0.00  0.00    +0.015 C 
ENDBRANCH  17  20
ENDBRANCH  13  14
ENDBRANCH   1  13
TORSDOF 6
