REMARK  Name = ZINC62862783
REMARK  8 active torsions:
REMARK  status: ('A' for Active; 'I' for Inactive)
REMARK    1  A    between atoms: C_1  and  C_2
REMARK    2  A    between atoms: C_2  and  C_3
REMARK    3  A    between atoms: C_3  and  C_4
REMARK    4  A    between atoms: C_4  and  C_10
REMARK    5  A    between atoms: C_10  and  N_11
REMARK    6  A    between atoms: N_11  and  C_12
REMARK    7  A    between atoms: N_11  and  C_13
REMARK    8  A    between atoms: C_19  and  C_21
REMARK                            x       y       z     vdW  Elec       q    Type
REMARK                         _______ _______ _______ _____ _____    ______ ____
ROOT
ATOM      1  C   UNL     1      -1.758  -1.921  -0.352  0.00  0.00    -0.059 C 
ATOM      2  C   UNL     1      -0.845  -1.895   0.876  0.00  0.00    +0.001 C 
ATOM      3  C   UNL     1       0.511  -1.304   0.479  0.00  0.00    -0.019 C 
ATOM      4  C   UNL     1       1.104  -2.127  -0.666  0.00  0.00    -0.083 C 
ATOM      5  N   UNL     1       0.197  -2.091  -1.820  0.00  0.00    +0.379 N 
ATOM      6  C   UNL     1      -1.081  -2.721  -1.468  0.00  0.00    -0.078 C 
ATOM      7  H   UNL     1       0.035  -1.133  -2.090  0.00  0.00    -0.086 HD
ATOM      8  H   UNL     1       0.615  -2.590  -2.591  0.00  0.00    -0.086 HD
ENDROOT
BRANCH   1   9
ATOM      9  C   UNL     1      -2.012  -0.491  -0.832  0.00  0.00    +0.003 C 
BRANCH   9  11
ATOM     10  C   UNL     1      -3.149   0.903  -2.566  0.00  0.00    +0.004 C 
ATOM     11  C   UNL     1      -2.789  -0.524  -2.149  0.00  0.00    -0.003 C 
ENDBRANCH   9  11
ENDBRANCH   1   9
BRANCH   1  12
ATOM     12  C   UNL     1      -3.089  -2.581   0.014  0.00  0.00    -0.074 C 
BRANCH  12  13
ATOM     13  N   UNL     1      -3.731  -1.822   1.095  0.00  0.00    +0.380 N 
ATOM     14  C   UNL     1      -3.318  -2.373   2.393  0.00  0.00    -0.096 C 
ATOM     15  H   UNL     1      -3.453  -0.854   1.037  0.00  0.00    -0.082 HD
BRANCH  13  16
ATOM     16  C   UNL     1      -5.191  -1.920   0.963  0.00  0.00    -0.066 C 
ATOM     17  C   UNL     1      -5.621  -1.346  -0.388  0.00  0.00    -0.015 C 
ATOM     18  C   UNL     1      -7.141  -1.449  -0.526  0.00  0.00    -0.002 C 
ATOM     19  C   UNL     1      -7.810  -0.658   0.601  0.00  0.00    +0.000 C 
ATOM     20  C   UNL     1      -7.380  -1.232   1.952  0.00  0.00    +0.002 C 
ATOM     21  C   UNL     1      -5.859  -1.129   2.089  0.00  0.00    -0.028 C 
ATOM     22  C   UNL     1      -5.437   0.339   2.002  0.00  0.00    +0.006 C 
ENDBRANCH  13  16
ENDBRANCH  12  13
ENDBRANCH   1  12
TORSDOF 5
