REMARK  Name = ZINC67298061
REMARK  4 active torsions:
REMARK  status: ('A' for Active; 'I' for Inactive)
REMARK    1  A    between atoms: C_3  and  N_10
REMARK    2  A    between atoms: C_6  and  C_7
REMARK    3  A    between atoms: C_12  and  C_22
REMARK    4  A    between atoms: C_17  and  O_21
REMARK                            x       y       z     vdW  Elec       q    Type
REMARK                         _______ _______ _______ _____ _____    ______ ____
ROOT
ATOM      1  N   UNL     1       3.545   2.115  -0.018  0.00  0.00    -0.325 N 
ATOM      2  C   UNL     1       4.531   1.754   0.778  0.00  0.00    +0.212 A 
ATOM      3  C   UNL     1       5.845   2.420   0.716  0.00  0.00    +0.098 A 
ATOM      4  C   UNL     1       6.627   2.399   1.864  0.00  0.00    +0.030 A 
ATOM      5  C   UNL     1       6.128   1.715   3.000  0.00  0.00    +0.018 A 
ATOM      6  C   UNL     1       6.777   1.830   4.240  0.00  0.00    +0.015 A 
ATOM      7  C   UNL     1       6.263   1.202   5.336  0.00  0.00    +0.046 A 
ATOM      8  C   UNL     1       5.101   0.438   5.234  0.00  0.00    +0.120 A 
ATOM      9  C   UNL     1       4.457   0.297   4.014  0.00  0.00    +0.092 A 
ATOM     10  C   UNL     1       4.969   0.922   2.889  0.00  0.00    +0.141 A 
ATOM     11  O   UNL     1       4.371   0.759   1.687  0.00  0.00    -0.438 OA
ATOM     12  H   UNL     1       3.649   2.884  -0.601  0.00  0.00    +0.169 HD
ENDROOT
BRANCH   3  13
ATOM     13  C   UNL     1       6.310   3.081  -0.514  0.00  0.00    +0.255 C 
ATOM     14  O   UNL     1       5.572   3.162  -1.477  0.00  0.00    -0.270 OA
ATOM     15  N   UNL     1       7.554   3.597  -0.573  0.00  0.00    -0.261 N 
ATOM     16  C   UNL     1       7.956   4.315  -1.692  0.00  0.00    +0.165 A 
ATOM     17  N   UNL     1       7.264   4.594  -2.776  0.00  0.00    -0.233 NA
ATOM     18  C   UNL     1       7.794   5.295  -3.761  0.00  0.00    +0.120 A 
ATOM     19  C   UNL     1       9.075   5.709  -3.603  0.00  0.00    +0.068 A 
ATOM     20  S   UNL     1       9.443   5.045  -1.987  0.00  0.00    -0.061 S 
ATOM     21  H   UNL     1       8.168   3.468   0.167  0.00  0.00    +0.157 HD
ENDBRANCH   3  13
BRANCH   1  24
ATOM     22  C   UNL     1      -0.014   1.375  -0.012  0.00  0.00    +0.015 A 
ATOM     23  C   UNL     1       1.153   2.083  -0.006  0.00  0.00    +0.026 A 
ATOM     24  C   UNL     1       2.380   1.409  -0.024  0.00  0.00    +0.042 A 
ATOM     25  C   UNL     1       2.410   0.009  -0.047  0.00  0.00    +0.026 A 
ATOM     26  C   UNL     1       1.243  -0.698  -0.053  0.00  0.00    +0.015 A 
ATOM     27  C   UNL     1       0.017  -0.024  -0.035  0.00  0.00    +0.037 A 
BRANCH  27  28
ATOM     28  C   UNL     1      -1.244  -0.788  -0.041  0.00  0.00    +0.242 C 
ATOM     29  O   UNL     1      -2.310  -0.203  -0.026  0.00  0.00    -0.270 OA
ATOM     30  N   UNL     1      -1.215  -2.135  -0.064  0.00  0.00    -0.325 N 
ATOM     31  H   UNL     1      -0.365  -2.602  -0.076  0.00  0.00    +0.145 HD
ATOM     32  H   UNL     1      -2.044  -2.638  -0.068  0.00  0.00    +0.145 HD
ENDBRANCH  27  28
ENDBRANCH   1  24
BRANCH   8  33
ATOM     33  O   UNL     1       4.597  -0.172   6.336  0.00  0.00    -0.507 OA
ATOM     34  H   UNL     1       3.965   0.368   6.830  0.00  0.00    +0.292 HD
ENDBRANCH   8  33
TORSDOF 4
