REMARK  Name = ZINC38007564
REMARK  8 active torsions:
REMARK  status: ('A' for Active; 'I' for Inactive)
REMARK    1  A    between atoms: C_1  and  C_2
REMARK    2  A    between atoms: C_2  and  C_3
REMARK    3  A    between atoms: C_3  and  C_5
REMARK    4  A    between atoms: C_3  and  N_13
REMARK    5  A    between atoms: C_10  and  O_11
REMARK    6  A    between atoms: N_13  and  C_14
REMARK    7  A    between atoms: C_14  and  C_15
REMARK    8  A    between atoms: N_19  and  C_20
REMARK                            x       y       z     vdW  Elec       q    Type
REMARK                         _______ _______ _______ _____ _____    ______ ____
ROOT
ATOM      1  C   UNL     1       0.851  -0.499   1.173  0.00  0.00    -0.037 C 
ENDROOT
BRANCH   1   2
ATOM      2  C   UNL     1       1.175  -1.967   1.069  0.00  0.00    -0.019 A 
ATOM      3  C   UNL     1       0.408  -2.895   1.748  0.00  0.00    +0.020 A 
ATOM      4  C   UNL     1       0.706  -4.242   1.653  0.00  0.00    +0.018 A 
ATOM      5  C   UNL     1       1.772  -4.664   0.878  0.00  0.00    +0.019 A 
ATOM      6  C   UNL     1       2.541  -3.741   0.197  0.00  0.00    +0.047 A 
ATOM      7  C   UNL     1       2.241  -2.389   0.287  0.00  0.00    +0.119 A 
ATOM      8 BR   UNL     1      -0.345  -5.509   2.583  0.00  0.00    -0.050 Br
BRANCH   7   9
ATOM      9  O   UNL     1       2.993  -1.479  -0.386  0.00  0.00    -0.507 OA
ATOM     10  H   UNL     1       3.749  -1.146   0.116  0.00  0.00    +0.292 HD
ENDBRANCH   7   9
ENDBRANCH   1   2
BRANCH   1  11
ATOM     11  N   UNL     1       0.145  -0.242   2.435  0.00  0.00    +0.388 N 
ATOM     12  H   UNL     1      -0.156   0.720   2.462  0.00  0.00    -0.084 HD
ATOM     13  H   UNL     1      -0.659  -0.848   2.501  0.00  0.00    -0.084 HD
BRANCH  11  14
ATOM     14  C   UNL     1       1.049  -0.504   3.563  0.00  0.00    -0.004 C 
BRANCH  14  15
ATOM     15  C   UNL     1       0.370  -0.114   4.851  0.00  0.00    +0.116 A 
ATOM     16  N   UNL     1       0.409   1.060   5.421  0.00  0.00    -0.137 NA
ATOM     17  N   UNL     1      -0.282   1.037   6.506  0.00  0.00    -0.138 NA
ATOM     18  C   UNL     1      -0.793  -0.151   6.677  0.00  0.00    +0.224 A 
ATOM     19  N   UNL     1      -0.397  -0.914   5.629  0.00  0.00    -0.322 N 
ATOM     20  C   UNL     1      -0.730  -2.321   5.388  0.00  0.00    +0.151 C 
ENDBRANCH  14  15
ENDBRANCH  11  14
ENDBRANCH   1  11
BRANCH   1  22
ATOM     21  C   UNL     1      -0.261   1.424   0.029  0.00  0.00    +0.002 C 
ATOM     22  C   UNL     1      -0.040  -0.090  -0.002  0.00  0.00    -0.014 C 
ENDBRANCH   1  22
TORSDOF 6
