REMARK  Name = ZINC17837565
REMARK  3 active torsions:
REMARK  status: ('A' for Active; 'I' for Inactive)
REMARK    1  A    between atoms: C_1  and  C_2
REMARK    2  A    between atoms: N_4  and  C_20
REMARK    3  A    between atoms: C_8  and  C_9
REMARK                            x       y       z     vdW  Elec       q    Type
REMARK                         _______ _______ _______ _____ _____    ______ ____
ROOT
ATOM      1  C   UNL     1       0.515   1.451   0.016  0.00  0.00    +0.068 C 
ATOM      2  C   UNL     1       0.211  -0.025   0.004  0.00  0.00    +0.069 C 
ATOM      3  N   UNL     1       0.095  -0.779  -1.049  0.00  0.00    -0.176 NA
ATOM      4  N   UNL     1      -0.191  -2.093  -0.674  0.00  0.00    -0.154 N 
ATOM      5  C   UNL     1      -0.260  -2.180   0.669  0.00  0.00    +0.272 C 
ATOM      6  O   UNL     1      -0.492  -3.184   1.321  0.00  0.00    -0.268 OA
ATOM      7  C   UNL     1      -0.004  -0.877   1.180  0.00  0.00    +0.062 C 
ATOM      8  C   UNL     1       0.033  -0.490   2.517  0.00  0.00    +0.033 C 
ENDROOT
BRANCH   8   9
ATOM      9  C   UNL     1      -0.051  -1.460   3.532  0.00  0.00    +0.104 A 
ATOM     10  C   UNL     1      -1.063  -1.391   4.520  0.00  0.00    +0.265 A 
ATOM     11  N   UNL     1      -1.110  -2.346   5.483  0.00  0.00    -0.274 N 
ATOM     12  H   UNL     1      -1.801  -2.306   6.163  0.00  0.00    +0.173 HD
ATOM     13  C   UNL     1      -0.213  -3.347   5.506  0.00  0.00    +0.329 A 
ATOM     14  O   UNL     1      -0.286  -4.185   6.383  0.00  0.00    -0.247 OA
ATOM     15  N   UNL     1       0.761  -3.446   4.585  0.00  0.00    -0.274 N 
ATOM     16  H   UNL     1       1.391  -4.182   4.633  0.00  0.00    +0.173 HD
ATOM     17  C   UNL     1       0.872  -2.533   3.588  0.00  0.00    +0.265 A 
ATOM     18  O   UNL     1       1.759  -2.633   2.751  0.00  0.00    -0.267 OA
ATOM     19  O   UNL     1      -1.883  -0.482   4.506  0.00  0.00    -0.267 OA
ENDBRANCH   8   9
BRANCH   4  20
ATOM     20  C   UNL     1      -0.378  -3.162  -1.562  0.00  0.00    +0.097 A 
ATOM     21  C   UNL     1      -1.646  -3.445  -2.052  0.00  0.00    +0.067 A 
ATOM     22  C   UNL     1      -1.828  -4.500  -2.927  0.00  0.00    +0.042 A 
ATOM     23  C   UNL     1      -0.747  -5.272  -3.315  0.00  0.00    +0.044 A 
ATOM     24  C   UNL     1       0.517  -4.992  -2.829  0.00  0.00    +0.042 A 
ATOM     25  C   UNL     1       0.706  -3.936  -1.957  0.00  0.00    +0.067 A 
ATOM     26 CL   UNL     1       2.294  -3.581  -1.353  0.00  0.00    -0.081 Cl
ATOM     27 CL   UNL     1      -0.979  -6.596  -4.414  0.00  0.00    -0.083 Cl
ATOM     28 CL   UNL     1      -3.002  -2.477  -1.565  0.00  0.00    -0.081 Cl
ENDBRANCH   4  20
TORSDOF 2
