REMARK  Name = ZINC63831372
REMARK  4 active torsions:
REMARK  status: ('A' for Active; 'I' for Inactive)
REMARK    1  A    between atoms: C_1  and  C_2
REMARK    2  A    between atoms: C_10  and  C_13
REMARK    3  A    between atoms: C_22  and  C_32
REMARK    4  A    between atoms: N_24  and  C_25
REMARK                            x       y       z     vdW  Elec       q    Type
REMARK                         _______ _______ _______ _____ _____    ______ ____
ROOT
ATOM      1  C   UNL     1       0.088  -5.156   3.538  0.00  0.00    +0.065 C 
ATOM      2  C   UNL     1      -1.070  -4.773   4.470  0.00  0.00    +0.108 C 
ATOM      3  C   UNL     1      -0.741  -3.578   5.305  0.00  0.00    +0.216 C 
ATOM      4  O   UNL     1      -1.683  -2.987   5.789  0.00  0.00    -0.276 OA
ATOM      5  N   UNL     1       0.468  -3.087   5.582  0.00  0.00    -0.292 N 
ATOM      6  C   UNL     1       1.673  -3.549   4.906  0.00  0.00    +0.210 C 
ATOM      7  C   UNL     1       1.357  -4.920   4.320  0.00  0.00    -0.004 C 
ATOM      8  C   UNL     1       2.323  -5.728   4.651  0.00  0.00    +0.022 C 
ATOM      9  N   UNL     1       3.245  -5.104   5.479  0.00  0.00    -0.265 N 
ATOM     10  N   UNL     1       2.800  -3.785   5.809  0.00  0.00    -0.210 N 
ATOM     11  C   UNL     1       2.426  -7.159   4.192  0.00  0.00    +0.062 C 
ATOM     12  H   UNL     1       0.547  -2.396   6.258  0.00  0.00    +0.151 HD
ATOM     13  H   UNL     1       4.075  -5.502   5.786  0.00  0.00    +0.170 HD
ENDROOT
BRANCH   1  23
ATOM     14  C   UNL     1       2.247  -3.384  -3.462  0.00  0.00    +0.044 C 
ATOM     15  C   UNL     1       1.446  -3.122  -2.213  0.00  0.00    -0.050 A 
ATOM     16  C   UNL     1       0.617  -2.011  -2.145  0.00  0.00    +0.007 A 
ATOM     17  C   UNL     1      -0.123  -1.754  -1.011  0.00  0.00    +0.047 A 
ATOM     18  C   UNL     1      -0.042  -2.611   0.079  0.00  0.00    +0.138 A 
ATOM     19  C   UNL     1       0.797  -3.735   0.009  0.00  0.00    +0.064 A 
ATOM     20  C   UNL     1       1.537  -3.987  -1.145  0.00  0.00    +0.018 A 
ATOM     21  C   UNL     1       0.866  -4.630   1.180  0.00  0.00    +0.196 A 
ATOM     22  O   UNL     1       1.577  -5.621   1.181  0.00  0.00    -0.287 OA
ATOM     23  C   UNL     1       0.070  -4.289   2.305  0.00  0.00    +0.042 A 
ATOM     24  C   UNL     1      -0.700  -3.187   2.264  0.00  0.00    +0.203 A 
ATOM     25  O   UNL     1      -0.756  -2.380   1.199  0.00  0.00    -0.462 OA
ENDBRANCH   1  23
BRANCH  10  26
ATOM     26  C   UNL     1       3.310  -2.917   6.771  0.00  0.00    +0.162 A 
ATOM     27  C   UNL     1       4.399  -3.302   7.554  0.00  0.00    +0.052 A 
ATOM     28  C   UNL     1       4.870  -2.405   8.497  0.00  0.00    +0.077 A 
ATOM     29  C   UNL     1       4.228  -1.173   8.605  0.00  0.00    +0.289 A 
ATOM     30  O   UNL     1       4.655  -0.261   9.516  0.00  0.00    -0.264 OA
ATOM     31  N   UNL     1       3.202  -0.893   7.820  0.00  0.00    -0.105 NA
ATOM     32  N   UNL     1       2.767  -1.722   6.942  0.00  0.00    -0.129 NA
ENDBRANCH  10  26
TORSDOF 2
