REMARK  Name = ZINC49712014
REMARK  8 active torsions:
REMARK  status: ('A' for Active; 'I' for Inactive)
REMARK    1  A    between atoms: C_1  and  C_2
REMARK    2  A    between atoms: C_5  and  N_21
REMARK    3  A    between atoms: N_9  and  C_10
REMARK    4  A    between atoms: C_13  and  O_18
REMARK    5  A    between atoms: C_15  and  O_16
REMARK    6  A    between atoms: O_16  and  C_17
REMARK    7  A    between atoms: O_18  and  C_19
REMARK    8  A    between atoms: N_21  and  C_22
REMARK                            x       y       z     vdW  Elec       q    Type
REMARK                         _______ _______ _______ _____ _____    ______ ____
ROOT
ATOM      1  C   UNL     1      -0.019   1.526   0.010  0.00  0.00    +0.028 C 
ATOM      2  C   UNL     1       0.002  -0.004   0.002  0.00  0.00    +0.069 C 
ATOM      3  C   UNL     1      -1.434  -0.537   0.020  0.00  0.00    +0.006 C 
ATOM      4  C   UNL     1      -1.406  -2.062   0.152  0.00  0.00    -0.069 C 
ATOM      5  C   UNL     1      -0.731  -2.449   1.469  0.00  0.00    +0.003 C 
ATOM      6  C   UNL     1       0.713  -1.938   1.468  0.00  0.00    +0.104 C 
ATOM      7  N   UNL     1       0.706  -0.494   1.195  0.00  0.00    -0.324 N 
ENDROOT
BRANCH   7   8
ATOM      8  C   UNL     1       1.356   0.400   2.058  0.00  0.00    +0.074 A 
ATOM      9  C   UNL     1       0.670   0.951   3.131  0.00  0.00    +0.050 A 
ATOM     10  C   UNL     1       1.311   1.832   3.982  0.00  0.00    +0.084 A 
ATOM     11  C   UNL     1       2.641   2.167   3.766  0.00  0.00    +0.142 A 
ATOM     12  C   UNL     1       3.329   1.618   2.694  0.00  0.00    +0.094 A 
ATOM     13  C   UNL     1       2.691   0.731   1.843  0.00  0.00    +0.145 A 
ATOM     14 CL   UNL     1       0.452   2.522   5.324  0.00  0.00    -0.080 Cl
BRANCH  13  15
ATOM     15  O   UNL     1       3.367   0.188   0.795  0.00  0.00    -0.493 OA
ATOM     16  C   UNL     1       4.734   0.572   0.635  0.00  0.00    +0.277 C 
ENDBRANCH  13  15
BRANCH  11  17
ATOM     17  O   UNL     1       3.269   3.034   4.605  0.00  0.00    -0.494 OA
ATOM     18  C   UNL     1       4.637   3.333   4.322  0.00  0.00    +0.277 C 
ENDBRANCH  11  17
ENDBRANCH   7   8
BRANCH   4  19
ATOM     19  N   UNL     1      -2.781  -2.579   0.137  0.00  0.00    +0.379 N 
ATOM     20  C   UNL     1      -2.751  -4.048   0.142  0.00  0.00    -0.100 C 
ATOM     21  H   UNL     1      -3.274  -2.250   0.953  0.00  0.00    -0.086 HD
ATOM     22  H   UNL     1      -3.253  -2.256  -0.695  0.00  0.00    -0.086 HD
ENDBRANCH   4  19
TORSDOF 4
