REMARK  Name = ZINC66991741
REMARK  7 active torsions:
REMARK  status: ('A' for Active; 'I' for Inactive)
REMARK    1  A    between atoms: C_1  and  C_2
REMARK    2  A    between atoms: C_2  and  C_9
REMARK    3  A    between atoms: C_13  and  C_15
REMARK    4  A    between atoms: C_15  and  N_16
REMARK    5  A    between atoms: N_16  and  C_17
REMARK    6  A    between atoms: C_17  and  C_18
REMARK    7  A    between atoms: C_23  and  N_24
REMARK                            x       y       z     vdW  Elec       q    Type
REMARK                         _______ _______ _______ _____ _____    ______ ____
ROOT
ATOM      1  C   UNL     1      -4.435  -0.384  -2.280  0.00  0.00    -0.046 C 
ENDROOT
BRANCH   1   6
ATOM      2  C   UNL     1      -1.401  -0.551  -0.040  0.00  0.00    -0.015 A 
ATOM      3  C   UNL     1      -1.853  -1.374   0.976  0.00  0.00    +0.006 A 
ATOM      4  C   UNL     1      -3.140  -1.876   0.937  0.00  0.00    +0.001 A 
ATOM      5  C   UNL     1      -3.976  -1.556  -0.117  0.00  0.00    +0.002 A 
ATOM      6  C   UNL     1      -3.525  -0.733  -1.131  0.00  0.00    -0.064 A 
ATOM      7  C   UNL     1      -2.239  -0.227  -1.091  0.00  0.00    +0.008 A 
BRANCH   2   9
ATOM      8  C   UNL     1      -0.019   1.526   0.010  0.00  0.00    +0.047 C 
ATOM      9  C   UNL     1       0.002  -0.004   0.002  0.00  0.00    +0.135 C 
ATOM     10  C   UNL     1       0.815  -0.520  -1.169  0.00  0.00    +0.248 C 
ATOM     11  O   UNL     1       0.595  -0.342  -2.348  0.00  0.00    -0.273 OA
ATOM     12  N   UNL     1       1.833  -1.217  -0.627  0.00  0.00    -0.238 N 
ATOM     13  C   UNL     1       1.777  -1.214   0.710  0.00  0.00    +0.307 C 
ATOM     14  O   UNL     1       2.586  -1.776   1.421  0.00  0.00    -0.252 OA
ATOM     15  N   UNL     1       0.724  -0.519   1.178  0.00  0.00    -0.282 N 
ATOM     16  H   UNL     1       2.520  -1.667  -1.143  0.00  0.00    +0.159 HD
ATOM     17  H   UNL     1       0.487  -0.383   2.109  0.00  0.00    +0.152 HD
ENDBRANCH   2   9
ENDBRANCH   1   6
BRANCH   1  18
ATOM     18  N   UNL     1      -5.185   0.837  -1.958  0.00  0.00    +0.384 N 
ATOM     19  H   UNL     1      -5.736   0.683  -1.126  0.00  0.00    -0.085 HD
ATOM     20  H   UNL     1      -4.540   1.596  -1.798  0.00  0.00    -0.085 HD
BRANCH  18  21
ATOM     21  C   UNL     1      -6.073   1.177  -3.077  0.00  0.00    -0.044 C 
BRANCH  21  22
ATOM     22  C   UNL     1      -6.843   2.430  -2.746  0.00  0.00    -0.043 A 
ATOM     23  C   UNL     1      -8.144   2.342  -2.293  0.00  0.00    +0.003 A 
ATOM     24  C   UNL     1      -8.851   3.491  -1.989  0.00  0.00    +0.000 A 
ATOM     25  C   UNL     1      -8.257   4.731  -2.138  0.00  0.00    +0.002 A 
ATOM     26  C   UNL     1      -6.956   4.826  -2.590  0.00  0.00    +0.023 A 
ATOM     27  C   UNL     1      -6.241   3.673  -2.891  0.00  0.00    +0.031 A 
BRANCH  27  28
ATOM     28  N   UNL     1      -4.923   3.765  -3.344  0.00  0.00    -0.325 N 
ATOM     29  C   UNL     1      -4.622   3.882  -4.779  0.00  0.00    +0.133 C 
ATOM     30  C   UNL     1      -3.670   5.067  -4.978  0.00  0.00    +0.178 C 
ATOM     31  O   UNL     1      -2.548   4.921  -4.104  0.00  0.00    -0.377 OA
ATOM     32  C   UNL     1      -2.883   4.940  -2.714  0.00  0.00    +0.178 C 
ATOM     33  C   UNL     1      -3.795   3.754  -2.399  0.00  0.00    +0.133 C 
ENDBRANCH  27  28
ENDBRANCH  21  22
ENDBRANCH  18  21
ENDBRANCH   1  18
TORSDOF 6
