REMARK  Name = ZINC20683680
REMARK  8 active torsions:
REMARK  status: ('A' for Active; 'I' for Inactive)
REMARK    1  A    between atoms: C_3  and  S_27
REMARK    2  A    between atoms: C_6  and  C_7
REMARK    3  A    between atoms: C_7  and  N_8
REMARK    4  A    between atoms: C_9  and  C_11
REMARK    5  A    between atoms: C_11  and  N_12
REMARK    6  A    between atoms: N_15  and  C_18
REMARK    7  A    between atoms: C_21  and  N_24
REMARK    8  A    between atoms: S_27  and  N_30
REMARK                            x       y       z     vdW  Elec       q    Type
REMARK                         _______ _______ _______ _____ _____    ______ ____
ROOT
ATOM      1  N   UNL     1       0.967   9.372  -2.545  0.00  0.00    -0.313 N 
ATOM      2  C   UNL     1       1.083   8.047  -2.327  0.00  0.00    +0.197 C 
ATOM      3  O   UNL     1       0.712   7.259  -3.171  0.00  0.00    -0.278 OA
ATOM      4  H   UNL     1       1.304  10.086  -1.779  0.00  0.00    +0.149 HD
ENDROOT
BRANCH   1   5
ATOM      5  C   UNL     1       0.393   9.860  -3.800  0.00  0.00    +0.139 C 
BRANCH   5  11
ATOM      6  C   UNL     1      -0.725  12.044  -3.301  0.00  0.00    +0.007 A 
ATOM      7  C   UNL     1      -0.738  13.426  -3.290  0.00  0.00    +0.029 A 
ATOM      8  C   UNL     1       0.346  14.132  -3.779  0.00  0.00    +0.105 A 
ATOM      9  C   UNL     1       1.444  13.455  -4.275  0.00  0.00    +0.029 A 
ATOM     10  C   UNL     1       1.459  12.073  -4.282  0.00  0.00    +0.007 A 
ATOM     11  C   UNL     1       0.376  11.367  -3.793  0.00  0.00    -0.030 A 
BRANCH   8  12
ATOM     12  S   UNL     1       0.327  15.893  -3.769  0.00  0.00    +0.056 S 
ATOM     13  O   UNL     1      -0.586  16.284  -2.752  0.00  0.00    -0.153 OA
ATOM     14  O   UNL     1       1.684  16.314  -3.777  0.00  0.00    -0.153 OA
BRANCH  12  15
ATOM     15  N   UNL     1      -0.329  16.384  -5.208  0.00  0.00    -0.204 NA
ATOM     16  H   UNL     1      -0.359  17.483  -5.241  0.00  0.00    +0.144 HD
ATOM     17  H   UNL     1      -1.351  15.987  -5.300  0.00  0.00    +0.144 HD
ENDBRANCH  12  15
ENDBRANCH   8  12
ENDBRANCH   5  11
ENDBRANCH   1   5
BRANCH   2  18
ATOM     18  C   UNL     1       1.674   7.544  -1.035  0.00  0.00    +0.019 C 
BRANCH  18  19
ATOM     19  N   UNL     1       1.690   6.075  -1.042  0.00  0.00    +0.387 N 
ATOM     20  C   UNL     1       2.470   5.551   0.088  0.00  0.00    -0.059 C 
ATOM     21  C   UNL     1       2.529   4.024  -0.001  0.00  0.00    +0.086 C 
ATOM     22  N   UNL     1       1.162   3.483   0.009  0.00  0.00    -0.333 N 
ATOM     23  C   UNL     1       0.383   4.007  -1.121  0.00  0.00    +0.086 C 
ATOM     24  C   UNL     1       0.324   5.534  -1.032  0.00  0.00    -0.059 C 
ATOM     25  H   UNL     1       2.178   5.748  -1.973  0.00  0.00    -0.081 HD
BRANCH  22  26
ATOM     26  C   UNL     1       1.178   2.086   0.002  0.00  0.00    +0.030 A 
ATOM     27  C   UNL     1      -0.017   1.377   0.010  0.00  0.00    +0.025 A 
ATOM     28  C   UNL     1       0.002  -0.004   0.002  0.00  0.00    +0.034 A 
ATOM     29  C   UNL     1       1.208  -0.681  -0.014  0.00  0.00    +0.126 A 
ATOM     30  C   UNL     1       2.399   0.022  -0.021  0.00  0.00    +0.034 A 
ATOM     31  C   UNL     1       2.387   1.403  -0.012  0.00  0.00    +0.025 A 
BRANCH  29  32
ATOM     32  N   UNL     1       1.224  -2.161  -0.022  0.00  0.00    +0.056 N 
ATOM     33  O   UNL     1       0.176  -2.781  -0.015  0.00  0.00    -0.126 OA
ATOM     34  O   UNL     1       2.286  -2.758  -0.036  0.00  0.00    -0.126 OA
ENDBRANCH  29  32
ENDBRANCH  22  26
ENDBRANCH  18  19
ENDBRANCH   2  18
TORSDOF 8
