REMARK  Name = ZINC09324391
REMARK  8 active torsions:
REMARK  status: ('A' for Active; 'I' for Inactive)
REMARK    1  A    between atoms: C_1  and  C_2
REMARK    2  A    between atoms: C_2  and  C_4
REMARK    3  A    between atoms: C_2  and  O_6
REMARK    4  A    between atoms: O_6  and  C_7
REMARK    5  A    between atoms: C_10  and  C_13
REMARK    6  A    between atoms: N_14  and  N_15
REMARK    7  A    between atoms: C_16  and  C_18
REMARK    8  A    between atoms: C_21  and  O_25
REMARK                            x       y       z     vdW  Elec       q    Type
REMARK                         _______ _______ _______ _____ _____    ______ ____
ROOT
ATOM      1  C   UNL     1       6.062   1.749   0.841  0.00  0.00    +0.138 C 
ATOM      2  N   UNL     1       4.939   1.098   0.854  0.00  0.00    -0.187 NA
ENDROOT
BRANCH   1   6
ATOM      3  C   UNL     1       9.703  -0.313   0.120  0.00  0.00    +0.122 A 
ATOM      4  C   UNL     1       9.716   1.058   0.342  0.00  0.00    +0.046 A 
ATOM      5  C   UNL     1       8.536   1.732   0.576  0.00  0.00    +0.013 A 
ATOM      6  C   UNL     1       7.326   1.033   0.591  0.00  0.00    -0.005 A 
ATOM      7  C   UNL     1       7.319  -0.347   0.373  0.00  0.00    +0.013 A 
ATOM      8  C   UNL     1       8.502  -1.012   0.134  0.00  0.00    +0.046 A 
BRANCH   3   9
ATOM      9  O   UNL     1      10.867  -0.972  -0.112  0.00  0.00    -0.478 OA
BRANCH   9  11
ATOM     10  C   UNL     1      12.618   0.101   1.163  0.00  0.00    +0.064 C 
ATOM     11  C   UNL     1      12.050  -0.179  -0.230  0.00  0.00    +0.282 C 
BRANCH  11  12
ATOM     12  C   UNL     1      13.073  -0.921  -1.050  0.00  0.00    +0.395 C 
ATOM     13  O   UNL     1      12.816  -2.018  -1.488  0.00  0.00    -0.242 OA
ATOM     14  O   UNL     1      14.270  -0.365  -1.294  0.00  0.00    -0.242 OA
ENDBRANCH  11  12
ENDBRANCH   9  11
ENDBRANCH   3   9
ENDBRANCH   1   6
BRANCH   2  15
ATOM     15  N   UNL     1       3.738   1.778   1.092  0.00  0.00    -0.203 N 
ATOM     16  C   UNL     1       2.572   1.102   1.106  0.00  0.00    +0.263 C 
ATOM     17  O   UNL     1       2.563  -0.098   0.912  0.00  0.00    -0.268 OA
ATOM     18  H   UNL     1       3.745   2.736   1.247  0.00  0.00    +0.178 HD
BRANCH  16  19
ATOM     19  C   UNL     1       1.307   1.819   1.356  0.00  0.00    +0.041 A 
ATOM     20  C   UNL     1       0.097   1.120   1.371  0.00  0.00    +0.032 A 
ATOM     21  C   UNL     1      -1.083   1.793   1.599  0.00  0.00    +0.061 A 
ATOM     22  C   UNL     1      -1.070   3.165   1.826  0.00  0.00    +0.145 A 
ATOM     23  C   UNL     1       0.131   3.864   1.812  0.00  0.00    +0.061 A 
ATOM     24  C   UNL     1       1.315   3.199   1.579  0.00  0.00    +0.032 A 
ATOM     25 BR   UNL     1       0.141   5.731   2.113  0.00  0.00    -0.046 Br
ATOM     26 BR   UNL     1      -2.722   0.850   1.611  0.00  0.00    -0.046 Br
BRANCH  22  27
ATOM     27  O   UNL     1      -2.234   3.824   2.057  0.00  0.00    -0.505 OA
ATOM     28  H   UNL     1      -2.664   4.156   1.256  0.00  0.00    +0.292 HD
ENDBRANCH  22  27
ENDBRANCH  16  19
ENDBRANCH   2  15
TORSDOF 7
