REMARK  Name = ZINC15707497
REMARK  6 active torsions:
REMARK  status: ('A' for Active; 'I' for Inactive)
REMARK    1  A    between atoms: C_1  and  S_2
REMARK    2  A    between atoms: S_2  and  N_5
REMARK    3  A    between atoms: N_5  and  C_6
REMARK    4  A    between atoms: C_15  and  C_18
REMARK    5  A    between atoms: C_18  and  C_19
REMARK    6  A    between atoms: C_19  and  C_20
REMARK                            x       y       z     vdW  Elec       q    Type
REMARK                         _______ _______ _______ _____ _____    ______ ____
ROOT
ATOM      1  C   UNL     1      -2.284   4.358   6.215  0.00  0.00    +0.059 C 
ATOM      2  C   UNL     1      -2.945   3.950   7.559  0.00  0.00    +0.012 C 
ATOM      3  C   UNL     1      -3.578   2.590   7.259  0.00  0.00    +0.021 C 
ATOM      4  C   UNL     1      -4.857   2.298   7.973  0.00  0.00    +0.200 C 
ATOM      5  O   UNL     1      -5.047   2.723   9.092  0.00  0.00    -0.278 OA
ATOM      6  N   UNL     1      -5.797   1.556   7.356  0.00  0.00    -0.318 N 
ATOM      7  C   UNL     1      -5.718   1.105   5.972  0.00  0.00    +0.089 C 
ATOM      8  C   UNL     1      -4.333   1.355   5.359  0.00  0.00    -0.050 C 
ATOM      9  C   UNL     1      -2.666   3.225   5.222  0.00  0.00    -0.057 C 
ATOM     10  H   UNL     1      -6.581   1.304   7.868  0.00  0.00    +0.149 HD
ATOM     11  N   UNL     1      -3.895   2.695   5.867  0.00  0.00    +0.391 N 
ATOM     12  H   UNL     1      -4.663   3.362   5.727  0.00  0.00    -0.080 HD
ENDROOT
BRANCH   1  13
ATOM     13  N   UNL     1      -2.817   5.643   5.756  0.00  0.00    -0.194 NA
ATOM     14  H   UNL     1      -3.746   5.869   5.918  0.00  0.00    +0.148 HD
BRANCH  13  16
ATOM     15  C   UNL     1      -1.392   5.873   3.412  0.00  0.00    +0.214 C 
ATOM     16  S   UNL     1      -1.832   6.710   4.959  0.00  0.00    +0.027 S 
ATOM     17  O   UNL     1      -2.659   7.834   4.690  0.00  0.00    -0.158 OA
ATOM     18  O   UNL     1      -0.686   6.836   5.791  0.00  0.00    -0.158 OA
ENDBRANCH  13  16
ENDBRANCH   1  13
BRANCH   8  19
ATOM     19  C   UNL     1      -4.428   1.331   3.832  0.00  0.00    -0.005 C 
BRANCH  19  20
ATOM     20  C   UNL     1      -4.766  -0.086   3.365  0.00  0.00    +0.094 C 
BRANCH  20  21
ATOM     21  C   UNL     1      -4.743  -0.137   1.859  0.00  0.00    +0.216 C 
ATOM     22  O   UNL     1      -4.481   0.862   1.222  0.00  0.00    -0.276 OA
ATOM     23  N   UNL     1      -5.013  -1.292   1.219  0.00  0.00    -0.301 N 
ATOM     24  C   UNL     1      -5.345  -2.575   1.867  0.00  0.00    +0.108 C 
ATOM     25  C   UNL     1      -6.145  -3.362   0.798  0.00  0.00    +0.020 C 
ATOM     26  C   UNL     1      -5.410  -2.952  -0.506  0.00  0.00    +0.020 C 
ATOM     27  C   UNL     1      -5.025  -1.482  -0.239  0.00  0.00    +0.108 C 
ENDBRANCH  20  21
ENDBRANCH  19  20
ENDBRANCH   8  19
TORSDOF 5
