REMARK  Name = ZINC49723395
REMARK  9 active torsions:
REMARK  status: ('A' for Active; 'I' for Inactive)
REMARK    1  A    between atoms: C_1  and  C_2
REMARK    2  A    between atoms: C_2  and  C_3
REMARK    3  A    between atoms: C_3  and  C_4
REMARK    4  A    between atoms: C_10  and  C_11
REMARK    5  A    between atoms: C_13  and  C_25
REMARK    6  A    between atoms: N_14  and  C_17
REMARK    7  A    between atoms: C_15  and  C_16
REMARK    8  A    between atoms: C_20  and  C_24
REMARK    9  A    between atoms: C_21  and  C_23
REMARK                            x       y       z     vdW  Elec       q    Type
REMARK                         _______ _______ _______ _____ _____    ______ ____
ROOT
ATOM      1  C   UNL     1      -0.210  -3.992   3.663  0.00  0.00    +0.100 C 
ATOM      2  N   UNL     1       0.623  -4.712   2.967  0.00  0.00    -0.169 NA
ATOM      3  N   UNL     1       0.175  -5.627   2.039  0.00  0.00    -0.154 N 
ATOM      4  C   UNL     1       0.985  -6.516   1.300  0.00  0.00    +0.132 C 
ATOM      5  N   UNL     1       2.180  -6.884   1.680  0.00  0.00    -0.385 N 
ATOM      6  C   UNL     1       0.342  -6.994   0.044  0.00  0.00    +0.079 C 
ATOM      7  C   UNL     1       1.079  -7.272  -1.089  0.00  0.00    +0.026 C 
ATOM      8  C   UNL     1      -1.131  -7.156   0.076  0.00  0.00    +0.273 C 
ATOM      9  O   UNL     1      -1.694  -7.934  -0.677  0.00  0.00    -0.268 OA
ATOM     10  N   UNL     1      -1.831  -6.420   0.963  0.00  0.00    -0.152 NA
ATOM     11  C   UNL     1      -1.187  -5.694   1.841  0.00  0.00    +0.181 C 
ATOM     12  S   UNL     1      -1.795  -4.553   3.055  0.00  0.00    -0.038 S 
ATOM     13  H   UNL     1       2.586  -6.479   2.462  0.00  0.00    +0.157 HD
ATOM     14  H   UNL     1       2.661  -7.562   1.180  0.00  0.00    +0.157 HD
ENDROOT
BRANCH   7  15
ATOM     15  C   UNL     1       2.458  -6.942  -1.137  0.00  0.00    -0.003 A 
ATOM     16  C   UNL     1       3.119  -5.804  -0.483  0.00  0.00    +0.031 A 
ATOM     17  C   UNL     1       4.422  -5.888  -0.801  0.00  0.00    +0.022 A 
ATOM     18  N   UNL     1       4.622  -6.982  -1.596  0.00  0.00    -0.317 N 
ATOM     19  C   UNL     1       3.458  -7.630  -1.805  0.00  0.00    +0.028 A 
ATOM     20  C   UNL     1       3.276  -8.882  -2.623  0.00  0.00    +0.064 C 
ATOM     21  C   UNL     1       5.493  -4.928  -0.353  0.00  0.00    +0.064 C 
BRANCH  18  22
ATOM     22  C   UNL     1       5.861  -7.377  -2.117  0.00  0.00    +0.047 A 
ATOM     23  C   UNL     1       6.080  -7.353  -3.488  0.00  0.00    +0.026 A 
ATOM     24  C   UNL     1       7.303  -7.743  -3.998  0.00  0.00    +0.005 A 
ATOM     25  C   UNL     1       8.309  -8.158  -3.145  0.00  0.00    -0.047 A 
ATOM     26  C   UNL     1       8.094  -8.184  -1.779  0.00  0.00    -0.046 A 
ATOM     27  C   UNL     1       6.875  -7.789  -1.262  0.00  0.00    +0.029 A 
ATOM     28  C   UNL     1       9.192  -8.639  -0.853  0.00  0.00    +0.044 C 
ATOM     29  C   UNL     1       9.642  -8.583  -3.705  0.00  0.00    +0.044 C 
ENDBRANCH  18  22
ENDBRANCH   7  15
BRANCH   1  30
ATOM     30  C   UNL     1       0.086  -2.956   4.716  0.00  0.00    +0.064 C 
BRANCH  30  32
ATOM     31  C   UNL     1       1.901  -1.772   5.960  0.00  0.00    +0.004 C 
ATOM     32  C   UNL     1       1.601  -2.824   4.890  0.00  0.00    +0.003 C 
ENDBRANCH  30  32
ENDBRANCH   1  30
TORSDOF 4
