REMARK  Name = ZINC39609263
REMARK  8 active torsions:
REMARK  status: ('A' for Active; 'I' for Inactive)
REMARK    1  A    between atoms: C_1  and  C_2
REMARK    2  A    between atoms: C_5  and  C_9
REMARK    3  A    between atoms: C_7  and  C_8
REMARK    4  A    between atoms: C_9  and  C_10
REMARK    5  A    between atoms: C_10  and  N_11
REMARK    6  A    between atoms: C_12  and  C_14
REMARK    7  A    between atoms: C_25  and  C_27
REMARK    8  A    between atoms: C_31  and  C_34
REMARK                            x       y       z     vdW  Elec       q    Type
REMARK                         _______ _______ _______ _____ _____    ______ ____
ROOT
ATOM      1  C   UNL     1       2.723  -8.397  -0.059  0.00  0.00    +0.100 C 
ATOM      2  C   UNL     1       1.954  -8.938  -1.285  0.00  0.00    +0.121 C 
ATOM      3  N   UNL     1       2.999  -9.168  -2.310  0.00  0.00    -0.296 N 
ATOM      4  C   UNL     1       4.148  -9.716  -1.550  0.00  0.00    +0.115 C 
ATOM      5  C   UNL     1       4.161  -8.913  -0.234  0.00  0.00    -0.004 C 
ATOM      6  C   UNL     1       4.544  -9.818   0.933  0.00  0.00    -0.010 C 
ATOM      7  C   UNL     1       5.997 -10.271   0.767  0.00  0.00    -0.082 C 
ATOM      8  N   UNL     1       6.876  -9.096   0.723  0.00  0.00    +0.379 N 
ATOM      9  C   UNL     1       6.562  -8.280  -0.456  0.00  0.00    -0.082 C 
ATOM     10  C   UNL     1       5.133  -7.742  -0.341  0.00  0.00    -0.010 C 
ATOM     11  C   UNL     1       2.923  -8.931  -3.635  0.00  0.00    +0.251 C 
ATOM     12  O   UNL     1       3.875  -9.174  -4.351  0.00  0.00    -0.270 OA
ATOM     13  H   UNL     1       6.741  -8.545   1.557  0.00  0.00    -0.086 HD
ATOM     14  H   UNL     1       7.837  -9.399   0.674  0.00  0.00    -0.086 HD
ENDROOT
BRANCH  11  15
ATOM     15  C   UNL     1       1.685  -8.376  -4.216  0.00  0.00    +0.091 A 
ATOM     16  C   UNL     1       1.516  -6.992  -4.321  0.00  0.00    +0.056 A 
ATOM     17  C   UNL     1       0.355  -6.481  -4.866  0.00  0.00    +0.021 A 
ATOM     18  C   UNL     1      -0.641  -7.335  -5.307  0.00  0.00    +0.007 A 
ATOM     19  C   UNL     1      -0.484  -8.704  -5.206  0.00  0.00    -0.014 A 
ATOM     20  C   UNL     1       0.676  -9.232  -4.668  0.00  0.00    +0.140 A 
ATOM     21  F   UNL     1       0.831 -10.571  -4.575  0.00  0.00    -0.204 F 
ATOM     22  C   UNL     1      -1.575  -9.624  -5.688  0.00  0.00    +0.047 C 
ATOM     23 CL   UNL     1       2.764  -5.919  -3.769  0.00  0.00    -0.083 Cl
ENDBRANCH  11  15
BRANCH   1  25
ATOM     24  N   UNL     1       2.844  -6.221   1.111  0.00  0.00    -0.315 N 
ATOM     25  C   UNL     1       2.703  -6.890  -0.050  0.00  0.00    +0.218 C 
ATOM     26  O   UNL     1       2.561  -6.280  -1.089  0.00  0.00    -0.275 OA
ATOM     27  H   UNL     1       2.958  -6.709   1.941  0.00  0.00    +0.149 HD
BRANCH  24  28
ATOM     28  C   UNL     1       2.825  -4.756   1.119  0.00  0.00    +0.109 C 
BRANCH  28  29
ATOM     29  C   UNL     1       3.003  -4.252   2.552  0.00  0.00    +0.054 C 
BRANCH  29  34
ATOM     30  C   UNL     1       2.929   1.527   2.587  0.00  0.00    +0.044 C 
ATOM     31  C   UNL     1       2.949   0.020   2.578  0.00  0.00    -0.048 A 
ATOM     32  C   UNL     1       1.770  -0.688   2.726  0.00  0.00    +0.004 A 
ATOM     33  C   UNL     1       1.788  -2.070   2.718  0.00  0.00    +0.004 A 
ATOM     34  C   UNL     1       2.984  -2.745   2.561  0.00  0.00    -0.046 A 
ATOM     35  C   UNL     1       4.162  -2.038   2.412  0.00  0.00    +0.007 A 
ATOM     36  C   UNL     1       4.144  -0.655   2.416  0.00  0.00    -0.047 A 
ATOM     37  C   UNL     1       5.428   0.116   2.248  0.00  0.00    +0.044 C 
ENDBRANCH  29  34
ENDBRANCH  28  29
ENDBRANCH  24  28
ENDBRANCH   1  25
TORSDOF 5
