REMARK  Name = ZINC20558528
REMARK  5 active torsions:
REMARK  status: ('A' for Active; 'I' for Inactive)
REMARK    1  A    between atoms: C_5  and  C_7
REMARK    2  A    between atoms: C_7  and  N_8
REMARK    3  A    between atoms: C_20  and  C_28
REMARK    4  A    between atoms: C_22  and  C_26
REMARK    5  A    between atoms: C_23  and  N_25
REMARK                            x       y       z     vdW  Elec       q    Type
REMARK                         _______ _______ _______ _____ _____    ______ ____
ROOT
ATOM      1  N   UNL     1       2.980   3.994  -1.365  0.00  0.00    -0.198 N 
ATOM      2  C   UNL     1       3.771   2.961  -1.883  0.00  0.00    +0.062 A 
ATOM      3  C   UNL     1       4.572   2.232  -1.016  0.00  0.00    +0.025 A 
ATOM      4  C   UNL     1       5.365   1.210  -1.498  0.00  0.00    +0.002 A 
ATOM      5  C   UNL     1       5.361   0.907  -2.849  0.00  0.00    +0.001 A 
ATOM      6  C   UNL     1       4.563   1.617  -3.719  0.00  0.00    +0.013 A 
ATOM      7  C   UNL     1       3.750   2.654  -3.246  0.00  0.00    +0.042 A 
ATOM      8  C   UNL     1       2.908   3.377  -4.229  0.00  0.00    +0.162 C 
ATOM      9  C   UNL     1       2.373   4.562  -3.953  0.00  0.00    +0.141 C 
ATOM     10  S   UNL     1       2.675   5.287  -2.368  0.00  0.00    +0.076 S 
ATOM     11  O   UNL     1       1.452   5.868  -1.937  0.00  0.00    -0.150 OA
ATOM     12  O   UNL     1       3.884   6.026  -2.472  0.00  0.00    -0.150 OA
ATOM     13  C   UNL     1       1.522   5.298  -4.950  0.00  0.00    +0.121 C 
ATOM     14  C   UNL     1       1.042   4.355  -6.019  0.00  0.00    +0.099 C 
ATOM     15  C   UNL     1       1.655   3.158  -6.199  0.00  0.00    +0.199 C 
ATOM     16  O   UNL     1       2.697   2.788  -5.437  0.00  0.00    -0.439 OA
ENDROOT
BRANCH  13  17
ATOM     17  C   UNL     1       2.332   6.399  -5.583  0.00  0.00    +0.002 A 
ATOM     18  C   UNL     1       3.486   6.095  -6.281  0.00  0.00    +0.007 A 
ATOM     19  C   UNL     1       4.227   7.105  -6.866  0.00  0.00    +0.000 A 
ATOM     20  C   UNL     1       3.821   8.421  -6.745  0.00  0.00    +0.003 A 
ATOM     21  C   UNL     1       2.671   8.728  -6.044  0.00  0.00    +0.038 A 
ATOM     22  C   UNL     1       1.925   7.717  -5.462  0.00  0.00    +0.128 A 
ATOM     23  F   UNL     1       0.799   8.016  -4.776  0.00  0.00    -0.205 F 
ENDBRANCH  13  17
BRANCH  15  24
ATOM     24  N   UNL     1       1.202   2.309  -7.177  0.00  0.00    -0.328 N 
ATOM     25  H   UNL     1       1.691   1.336  -7.332  0.00  0.00    +0.145 HD
ATOM     26  H   UNL     1       0.348   2.601  -7.807  0.00  0.00    +0.145 HD
ENDBRANCH  15  24
BRANCH  14  27
ATOM     27  C   UNL     1      -0.065   4.722  -6.850  0.00  0.00    +0.101 C 
ATOM     28  N   UNL     1      -0.943   5.013  -7.510  0.00  0.00    -0.191 NA
ENDBRANCH  14  27
BRANCH   1  29
ATOM     29  C   UNL     1       2.450   3.942   0.000  0.00  0.00    +0.169 C 
BRANCH  29  34
ATOM     30  C   UNL     1      -1.237   3.133   0.030  0.00  0.00    +0.000 A 
ATOM     31  C   UNL     1      -1.218   1.751   0.017  0.00  0.00    +0.003 A 
ATOM     32  C   UNL     1      -0.013   1.076   0.008  0.00  0.00    +0.038 A 
ATOM     33  C   UNL     1       1.177   1.785   0.000  0.00  0.00    +0.128 A 
ATOM     34  C   UNL     1       1.157   3.169   0.008  0.00  0.00    +0.007 A 
ATOM     35  C   UNL     1      -0.051   3.842   0.023  0.00  0.00    +0.008 A 
ATOM     36  F   UNL     1       2.356   1.126  -0.014  0.00  0.00    -0.205 F 
ENDBRANCH  29  34
ENDBRANCH   1  29
TORSDOF 5
