REMARK  Name = ZINC63270472
REMARK  6 active torsions:
REMARK  status: ('A' for Active; 'I' for Inactive)
REMARK    1  A    between atoms: C_6  and  O_7
REMARK    2  A    between atoms: O_7  and  C_8
REMARK    3  A    between atoms: C_8  and  C_9
REMARK    4  A    between atoms: N_11  and  C_12
REMARK    5  A    between atoms: C_12  and  C_13
REMARK    6  A    between atoms: C_13  and  C_14
REMARK                            x       y       z     vdW  Elec       q    Type
REMARK                         _______ _______ _______ _____ _____    ______ ____
ROOT
ATOM      1  C   UNL     1      -0.017   1.385   0.010  0.00  0.00    +0.047 A 
ATOM      2  C   UNL     1       1.163   2.103   0.002  0.00  0.00    +0.027 A 
ATOM      3  C   UNL     1       2.378   1.435  -0.011  0.00  0.00    +0.041 A 
ATOM      4  C   UNL     1       2.401   0.031  -0.012  0.00  0.00    +0.061 A 
ATOM      5  C   UNL     1       1.206  -0.686  -0.009  0.00  0.00    +0.060 A 
ATOM      6  C   UNL     1       0.002  -0.004   0.002  0.00  0.00    +0.122 A 
ATOM      7  C   UNL     1       3.707  -0.663  -0.004  0.00  0.00    +0.250 C 
ATOM      8  O   UNL     1       3.787  -1.868  -0.147  0.00  0.00    -0.270 OA
ATOM      9  N   UNL     1       4.808   0.102   0.170  0.00  0.00    -0.279 N 
ATOM     10  C   UNL     1       6.204  -0.283  -0.048  0.00  0.00    +0.110 C 
ATOM     11  C   UNL     1       7.064   0.980   0.177  0.00  0.00    +0.022 C 
ATOM     12  C   UNL     1       6.046   2.137  -0.015  0.00  0.00    +0.044 C 
ATOM     13  C   UNL     1       4.762   1.519   0.587  0.00  0.00    +0.161 C 
ATOM     14  N   UNL     1       3.582   2.140  -0.029  0.00  0.00    -0.325 N 
ATOM     15  H   UNL     1       3.638   3.018  -0.437  0.00  0.00    +0.148 HD
ENDROOT
BRANCH   6  16
ATOM     16  O   UNL     1      -1.168  -0.697   0.006  0.00  0.00    -0.483 OA
BRANCH  16  17
ATOM     17  C   UNL     1      -2.375   0.068   0.019  0.00  0.00    +0.324 C 
BRANCH  17  18
ATOM     18  C   UNL     1      -3.560  -0.863   0.022  0.00  0.00    +0.251 C 
ATOM     19  O   UNL     1      -3.388  -2.064   0.014  0.00  0.00    -0.272 OA
ATOM     20  N   UNL     1      -4.811  -0.362   0.033  0.00  0.00    -0.312 N 
ATOM     21  H   UNL     1      -4.949   0.598   0.040  0.00  0.00    +0.149 HD
BRANCH  20  22
ATOM     22  C   UNL     1      -5.963  -1.267   0.036  0.00  0.00    +0.110 C 
BRANCH  22  23
ATOM     23  C   UNL     1      -7.255  -0.448   0.050  0.00  0.00    +0.073 C 
BRANCH  23  24
ATOM     24  C   UNL     1      -8.440  -1.379   0.053  0.00  0.00    +0.035 A 
ATOM     25  H   UNL     1     -10.636  -3.249   1.242  0.00  0.00    +0.166 HD
ATOM     26  C   UNL     1      -8.996  -1.949   1.139  0.00  0.00    +0.105 A 
ATOM     27  N   UNL     1     -10.040  -2.714   0.695  0.00  0.00    -0.352 N 
ATOM     28  C   UNL     1     -10.086  -2.585  -0.649  0.00  0.00    +0.171 A 
ATOM     29  N   UNL     1      -9.129  -1.782  -1.025  0.00  0.00    -0.350 N 
ATOM     30  H   UNL     1      -8.944  -1.518  -1.940  0.00  0.00    +0.166 HD
ENDBRANCH  23  24
ENDBRANCH  22  23
ENDBRANCH  20  22
ENDBRANCH  17  18
ENDBRANCH  16  17
ENDBRANCH   6  16
TORSDOF 6
