REMARK  Name = ZINC39515393
REMARK  10 active torsions:
REMARK  status: ('A' for Active; 'I' for Inactive)
REMARK    1  A    between atoms: C_1  and  C_2
REMARK    2  A    between atoms: C_4  and  C_9
REMARK    3  A    between atoms: C_5  and  C_8
REMARK    4  A    between atoms: C_9  and  C_10
REMARK    5  A    between atoms: C_10  and  N_11
REMARK    6  A    between atoms: N_11  and  C_12
REMARK    7  A    between atoms: C_13  and  C_15
REMARK    8  A    between atoms: C_15  and  N_16
REMARK    9  A    between atoms: C_17  and  C_22
REMARK   10  A    between atoms: C_22  and  N_23
REMARK                            x       y       z     vdW  Elec       q    Type
REMARK                         _______ _______ _______ _____ _____    ______ ____
ROOT
ATOM      1  N   UNL     1      -3.637   0.955  -6.411  0.00  0.00    -0.233 NA
ATOM      2  C   UNL     1      -3.865   1.089  -7.874  0.00  0.00    +0.108 C 
ATOM      3  N   UNL     1      -5.257   1.610  -7.937  0.00  0.00    -0.333 NA
ATOM      4  N   UNL     1      -5.949   0.919  -6.846  0.00  0.00    +0.408 N 
ATOM      5  N   UNL     1      -4.929   0.507  -5.885  0.00  0.00    -0.281 NA
ATOM      6  H   UNL     1      -5.274   2.610  -7.801  0.00  0.00    +0.105 HD
ATOM      7  H   UNL     1      -6.605   1.546  -6.404  0.00  0.00    -0.032 HD
ATOM      8  H   UNL     1      -5.107   0.905  -4.975  0.00  0.00    +0.121 HD
ATOM      9  H   UNL     1      -6.432   0.109  -7.204  0.00  0.00    -0.032 HD
ENDROOT
BRANCH   1  10
ATOM     10  C   UNL     1      -2.584  -0.030  -6.130  0.00  0.00    +0.197 C 
BRANCH  10  13
ATOM     11  N   UNL     1      -1.453  -0.982  -4.147  0.00  0.00    -0.303 N 
ATOM     12  C   UNL     1      -0.651  -1.804  -5.057  0.00  0.00    +0.132 C 
ATOM     13  C   UNL     1      -2.377  -0.134  -4.641  0.00  0.00    +0.231 C 
ATOM     14  O   UNL     1      -3.041   0.546  -3.888  0.00  0.00    -0.274 OA
BRANCH  11  15
ATOM     15  C   UNL     1      -1.252  -1.083  -2.699  0.00  0.00    +0.112 C 
BRANCH  15  16
ATOM     16  C   UNL     1      -0.188  -0.074  -2.261  0.00  0.00    +0.053 C 
BRANCH  16  19
ATOM     17  C   UNL     1      -0.662   2.023   0.218  0.00  0.00    +0.039 C 
ATOM     18  C   UNL     1      -0.771   0.501   0.332  0.00  0.00    +0.153 C 
ATOM     19  C   UNL     1       0.020  -0.178  -0.772  0.00  0.00    -0.020 C 
ATOM     20  C   UNL     1       0.941  -0.888  -0.118  0.00  0.00    +0.061 C 
ATOM     21  N   UNL     1       0.811  -0.728   1.218  0.00  0.00    -0.159 NA
ATOM     22  N   UNL     1      -0.112   0.022   1.559  0.00  0.00    -0.180 NA
ATOM     23  C   UNL     1       1.985  -1.751  -0.778  0.00  0.00    +0.067 C 
ENDBRANCH  16  19
ENDBRANCH  15  16
ENDBRANCH  11  15
ENDBRANCH  10  13
ENDBRANCH   1  10
BRANCH   2  24
ATOM     24  C   UNL     1      -2.879   2.084  -8.489  0.00  0.00    -0.044 C 
BRANCH  24  25
ATOM     25  N   UNL     1      -3.070   2.126  -9.945  0.00  0.00    +0.382 N 
ATOM     26  C   UNL     1      -2.749   0.799 -10.503  0.00  0.00    -0.079 C 
ATOM     27  C   UNL     1      -3.486   0.643 -11.809  0.00  0.00    -0.019 C 
ATOM     28  C   UNL     1      -2.593   1.010 -13.009  0.00  0.00    -0.002 C 
ATOM     29  C   UNL     1      -1.732   2.257 -12.720  0.00  0.00    -0.002 C 
ATOM     30  C   UNL     1      -2.499   3.328 -11.988  0.00  0.00    -0.019 C 
ATOM     31  C   UNL     1      -2.284   3.153 -10.470  0.00  0.00    -0.079 C 
ATOM     32  H   UNL     1      -4.040   2.330 -10.138  0.00  0.00    -0.082 HD
ENDBRANCH  24  25
ENDBRANCH   2  24
TORSDOF 7
