REMARK  Name = ZINC61823690
REMARK  8 active torsions:
REMARK  status: ('A' for Active; 'I' for Inactive)
REMARK    1  A    between atoms: C_1  and  C_2
REMARK    2  A    between atoms: C_2  and  C_19
REMARK    3  A    between atoms: C_10  and  C_15
REMARK    4  A    between atoms: C_11  and  C_13
REMARK    5  A    between atoms: C_13  and  N_14
REMARK    6  A    between atoms: C_15  and  C_16
REMARK    7  A    between atoms: C_15  and  C_17
REMARK    8  A    between atoms: C_15  and  C_18
REMARK                            x       y       z     vdW  Elec       q    Type
REMARK                         _______ _______ _______ _____ _____    ______ ____
ROOT
ATOM      1  C   UNL     1       0.760   2.561   1.414  0.00  0.00    +0.011 C 
ATOM      2  C   UNL     1       0.535   1.079   1.722  0.00  0.00    -0.032 C 
ATOM      3  C   UNL     1       0.676   0.264   0.435  0.00  0.00    +0.025 C 
ATOM      4  C   UNL     1       2.072   0.487  -0.155  0.00  0.00    +0.107 C 
ATOM      5  N   UNL     1       3.075   0.173   0.872  0.00  0.00    -0.310 N 
ATOM      6  C   UNL     1       2.978   0.835   2.180  0.00  0.00    +0.107 C 
ATOM      7  C   UNL     1       1.572   0.608   2.744  0.00  0.00    +0.025 C 
ATOM      8  C   UNL     1       4.094  -0.730   0.611  0.00  0.00    +0.161 A 
ATOM      9  N   UNL     1       5.061  -1.125   1.411  0.00  0.00    -0.229 NA
ATOM     10  C   UNL     1       5.964  -2.002   1.008  0.00  0.00    +0.057 A 
ATOM     11  C   UNL     1       5.846  -2.471  -0.257  0.00  0.00    -0.003 A 
ATOM     12  S   UNL     1       4.390  -1.594  -0.803  0.00  0.00    -0.059 S 
ATOM     13  C   UNL     1      -0.871   0.886   2.296  0.00  0.00    +0.011 C 
ENDROOT
BRANCH  10  14
ATOM     14  C   UNL     1       7.075  -2.461   1.917  0.00  0.00    +0.005 C 
ATOM     15  C   UNL     1       6.861  -1.883   3.317  0.00  0.00    +0.017 C 
ATOM     16  C   UNL     1       7.077  -3.989   1.990  0.00  0.00    +0.017 C 
ATOM     17  C   UNL     1       8.418  -1.976   1.365  0.00  0.00    +0.017 C 
ENDBRANCH  10  14
BRANCH  11  18
ATOM     18  C   UNL     1       6.704  -3.463  -0.998  0.00  0.00    -0.041 C 
BRANCH  18  19
ATOM     19  N   UNL     1       6.091  -4.795  -0.921  0.00  0.00    +0.381 N 
ATOM     20  H   UNL     1       5.879  -5.012   0.042  0.00  0.00    -0.090 HD
ATOM     21  H   UNL     1       5.241  -4.807  -1.463  0.00  0.00    -0.090 HD
ATOM     22  H   UNL     1       6.733  -5.483  -1.286  0.00  0.00    -0.090 HD
ENDBRANCH  18  19
ENDBRANCH  11  18
TORSDOF 3
