REMARK  Name = ZINC44464969
REMARK  9 active torsions:
REMARK  status: ('A' for Active; 'I' for Inactive)
REMARK    1  A    between atoms: C_1  and  N_2
REMARK    2  A    between atoms: C_4  and  C_16
REMARK    3  A    between atoms: C_5  and  C_7
REMARK    4  A    between atoms: C_7  and  S_8
REMARK    5  A    between atoms: S_8  and  C_9
REMARK    6  A    between atoms: C_16  and  CA_17
REMARK    7  A    between atoms: CA_17  and  C_19
REMARK    8  A    between atoms: CA_17  and  N_21
REMARK    9  A    between atoms: C_19  and  O_20
REMARK                            x       y       z     vdW  Elec       q    Type
REMARK                         _______ _______ _______ _____ _____    ______ ____
ROOT
ATOM      1  C   UNL     1       0.011   1.565  -0.371  0.00  0.00    +0.174 C 
ATOM      2  N   UNL     1       0.009   0.105  -0.256  0.00  0.00    -0.256 N 
ATOM      3  C   UNL     1       0.037  -0.772  -1.282  0.00  0.00    +0.130 A 
ATOM      4  C   UNL     1       0.024  -2.021  -0.757  0.00  0.00    +0.011 A 
ATOM      5  C   UNL     1      -0.014  -1.901   0.636  0.00  0.00    +0.078 A 
ATOM      6  N   UNL     1      -0.017  -0.628   0.938  0.00  0.00    -0.174 NA
ATOM      7 CL   UNL     1       0.082  -0.372  -2.970  0.00  0.00    -0.062 Cl
ENDROOT
BRANCH   5   8
ATOM      8  C   UNL     1      -0.041  -3.042   1.621  0.00  0.00    +0.132 C 
BRANCH   8   9
ATOM      9  S   UNL     1       1.649  -3.402   2.174  0.00  0.00    -0.119 S 
BRANCH   9  10
ATOM     10  C   UNL     1       1.452  -4.740   3.304  0.00  0.00    +0.008 A 
ATOM     11  C   UNL     1       0.186  -5.253   3.561  0.00  0.00    +0.016 A 
ATOM     12  C   UNL     1       0.035  -6.301   4.447  0.00  0.00    +0.021 A 
ATOM     13  C   UNL     1       1.141  -6.840   5.080  0.00  0.00    +0.041 A 
ATOM     14  C   UNL     1       2.403  -6.331   4.826  0.00  0.00    +0.021 A 
ATOM     15  C   UNL     1       2.562  -5.286   3.937  0.00  0.00    +0.016 A 
ATOM     16 CL   UNL     1       0.947  -8.157   6.193  0.00  0.00    -0.084 Cl
ENDBRANCH   9  10
ENDBRANCH   8   9
ENDBRANCH   5   8
BRANCH   4  17
ATOM     17  C   UNL     1       0.045  -3.311  -1.536  0.00  0.00    +0.026 C 
BRANCH  17  18
ATOM     18  CA  UNL     1      -1.386  -3.818  -1.723  0.00  0.00    -0.045 C 
BRANCH  18  19
ATOM     19  N   UNL     1      -2.132  -2.877  -2.569  0.00  0.00    +0.382 N 
ATOM     20  H1  UNL     1      -2.224  -1.994  -2.090  0.00  0.00    -0.090 HD
ATOM     21  H2  UNL     1      -1.637  -2.740  -3.437  0.00  0.00    -0.090 HD
ATOM     22  H3  UNL     1      -3.049  -3.252  -2.761  0.00  0.00    -0.090 HD
ENDBRANCH  18  19
BRANCH  18  23
ATOM     23  C   UNL     1      -1.356  -5.194  -2.392  0.00  0.00    +0.140 C 
BRANCH  23  24
ATOM     24  O   UNL     1      -2.684  -5.718  -2.462  0.00  0.00    -0.397 OA
ATOM     25  H   UNL     1      -2.741  -6.590  -2.876  0.00  0.00    +0.209 HD
ENDBRANCH  23  24
ENDBRANCH  18  23
ENDBRANCH  17  18
ENDBRANCH   4  17
TORSDOF 8
