REMARK  Name = ZINC36865488
REMARK  4 active torsions:
REMARK  status: ('A' for Active; 'I' for Inactive)
REMARK    1  A    between atoms: C_1  and  N_2
REMARK    2  A    between atoms: C_5  and  N_8
REMARK    3  A    between atoms: N_8  and  C_9
REMARK    4  A    between atoms: N_14  and  C_15
REMARK                            x       y       z     vdW  Elec       q    Type
REMARK                         _______ _______ _______ _____ _____    ______ ____
ROOT
ATOM      1  N   UNL     1       1.190  -3.962   0.006  0.00  0.00    -0.300 N 
ATOM      2  C   UNL     1      -0.126  -4.605  -0.012  0.00  0.00    +0.132 C 
ATOM      3  C   UNL     1       2.341  -4.736  -0.030  0.00  0.00    +0.218 A 
ATOM      4  N   UNL     1       3.447  -4.481   0.606  0.00  0.00    -0.137 NA
ATOM      5  N   UNL     1       4.363  -5.499   0.308  0.00  0.00    -0.253 N 
ATOM      6  C   UNL     1       3.750  -6.361  -0.529  0.00  0.00    +0.177 A 
ATOM      7  N   UNL     1       2.500  -5.904  -0.740  0.00  0.00    -0.288 N 
ATOM      8  S   UNL     1       4.433  -7.782  -1.197  0.00  0.00    -0.011 S 
ATOM      9  H   UNL     1       5.271  -5.570   0.642  0.00  0.00    +0.191 HD
ENDROOT
BRANCH   1  14
ATOM     10  C   UNL     1      -0.083   1.529   0.220  0.00  0.00    -0.096 C 
ATOM     11  N   UNL     1      -0.056   0.061   0.163  0.00  0.00    +0.378 N 
ATOM     12  C   UNL     1       0.639  -0.367  -1.057  0.00  0.00    -0.077 C 
ATOM     13  C   UNL     1       0.600  -1.893  -1.162  0.00  0.00    +0.004 C 
ATOM     14  C   UNL     1       1.291  -2.502   0.062  0.00  0.00    +0.072 C 
ATOM     15  C   UNL     1       0.604  -1.990   1.331  0.00  0.00    +0.004 C 
ATOM     16  C   UNL     1       0.644  -0.460   1.344  0.00  0.00    -0.077 C 
ATOM     17  H   UNL     1      -1.001  -0.292   0.151  0.00  0.00    -0.082 HD
ENDBRANCH   1  14
BRANCH   7  18
ATOM     18  C   UNL     1       1.485  -6.540  -1.584  0.00  0.00    +0.092 C 
ATOM     19  C   UNL     1       1.134  -7.935  -1.028  0.00  0.00    +0.025 C 
ATOM     20  C   UNL     1       0.917  -8.804  -2.291  0.00  0.00    +0.002 C 
ATOM     21  C   UNL     1       2.007  -8.279  -3.259  0.00  0.00    +0.002 C 
ATOM     22  C   UNL     1       2.040  -6.758  -3.002  0.00  0.00    +0.025 C 
ENDBRANCH   7  18
TORSDOF 2
