REMARK  Name = ZINC15708590
REMARK  7 active torsions:
REMARK  status: ('A' for Active; 'I' for Inactive)
REMARK    1  A    between atoms: C_1  and  N_2
REMARK    2  A    between atoms: C_8  and  C_10
REMARK    3  A    between atoms: C_10  and  C_11
REMARK    4  A    between atoms: C_11  and  C_12
REMARK    5  A    between atoms: C_22  and  N_25
REMARK    6  A    between atoms: N_25  and  S_26
REMARK    7  A    between atoms: S_26  and  C_29
REMARK                            x       y       z     vdW  Elec       q    Type
REMARK                         _______ _______ _______ _____ _____    ______ ____
ROOT
ATOM      1  C   UNL     1       3.827   1.681   0.019  0.00  0.00    -0.050 C 
ATOM      2  C   UNL     1       4.935   0.629  -0.141  0.00  0.00    +0.089 C 
ATOM      3  N   UNL     1       6.226   1.115   0.328  0.00  0.00    -0.318 N 
ATOM      4  C   UNL     1       6.408   2.257   1.020  0.00  0.00    +0.200 C 
ATOM      5  O   UNL     1       7.500   2.536   1.468  0.00  0.00    -0.278 OA
ATOM      6  C   UNL     1       5.247   3.173   1.228  0.00  0.00    +0.021 C 
ATOM      7  N   UNL     1       4.025   2.328   1.306  0.00  0.00    +0.391 N 
ATOM      8  C   UNL     1       2.996   3.257   1.785  0.00  0.00    -0.057 C 
ATOM      9  C   UNL     1       3.728   4.050   2.904  0.00  0.00    +0.059 C 
ATOM     10  C   UNL     1       5.235   3.941   2.550  0.00  0.00    +0.012 C 
ATOM     11  H   UNL     1       7.139   0.537   0.123  0.00  0.00    +0.149 HD
ATOM     12  H   UNL     1       4.028   1.462   1.985  0.00  0.00    -0.080 HD
ENDROOT
BRANCH   9  13
ATOM     13  N   UNL     1       3.466   3.447   4.213  0.00  0.00    -0.194 NA
ATOM     14  H   UNL     1       3.909   2.473   4.468  0.00  0.00    +0.148 HD
BRANCH  13  15
ATOM     15  S   UNL     1       2.317   4.100   5.211  0.00  0.00    +0.027 S 
ATOM     16  O   UNL     1       2.350   3.292   6.379  0.00  0.00    -0.158 OA
ATOM     17  O   UNL     1       2.638   5.483   5.277  0.00  0.00    -0.158 OA
ATOM     18  C   UNL     1       0.748   3.864   4.332  0.00  0.00    +0.214 C 
ENDBRANCH  13  15
ENDBRANCH   9  13
BRANCH   1  19
ATOM     19  C   UNL     1       2.457   1.002  -0.016  0.00  0.00    -0.005 C 
BRANCH  19  20
ATOM     20  C   UNL     1       2.203   0.437  -1.415  0.00  0.00    +0.094 C 
BRANCH  20  28
ATOM     21  C   UNL     1      -0.185  -3.963  -5.191  0.00  0.00    +0.105 C 
ATOM     22  N   UNL     1      -0.153  -2.647  -4.537  0.00  0.00    -0.302 NA
ATOM     23  C   UNL     1      -0.898  -2.671  -3.272  0.00  0.00    +0.103 C 
ATOM     24  C   UNL     1      -0.995  -1.247  -2.714  0.00  0.00    +0.123 C 
ATOM     25  N   UNL     1       0.361  -0.685  -2.627  0.00  0.00    -0.299 N 
ATOM     26  C   UNL     1       1.217  -0.745  -3.822  0.00  0.00    +0.123 C 
ATOM     27  C   UNL     1       1.229  -2.194  -4.334  0.00  0.00    +0.103 C 
ATOM     28  C   UNL     1       0.807  -0.126  -1.484  0.00  0.00    +0.216 C 
ATOM     29  O   UNL     1       0.086  -0.081  -0.510  0.00  0.00    -0.276 OA
ENDBRANCH  20  28
ENDBRANCH  19  20
ENDBRANCH   1  19
TORSDOF 5
