REMARK  Name = ZINC37031775
REMARK  4 active torsions:
REMARK  status: ('A' for Active; 'I' for Inactive)
REMARK    1  A    between atoms: C_1  and  C_2
REMARK    2  A    between atoms: C_2  and  C_3
REMARK    3  A    between atoms: C_9  and  N_11
REMARK    4  A    between atoms: N_11  and  C_12
REMARK                            x       y       z     vdW  Elec       q    Type
REMARK                         _______ _______ _______ _____ _____    ______ ____
ROOT
ATOM      1  C   UNL     1       1.082  -4.065   0.090  0.00  0.00    +0.049 C 
ATOM      2  C   UNL     1       1.773  -4.686  -1.103  0.00  0.00    -0.029 A 
ATOM      3  C   UNL     1       3.090  -4.728  -1.504  0.00  0.00    +0.042 A 
ATOM      4  C   UNL     1       3.434  -5.388  -2.673  0.00  0.00    +0.124 A 
ATOM      5  C   UNL     1       2.451  -6.000  -3.433  0.00  0.00    +0.040 A 
ATOM      6  C   UNL     1       1.132  -5.958  -3.030  0.00  0.00    +0.026 A 
ATOM      7  C   UNL     1       0.779  -5.297  -1.856  0.00  0.00    +0.036 A 
ATOM      8  N   UNL     1      -0.466  -5.117  -1.248  0.00  0.00    -0.286 N 
ATOM      9  C   UNL     1      -0.379  -4.410  -0.106  0.00  0.00    +0.208 C 
ATOM     10  O   UNL     1      -1.295  -4.105   0.628  0.00  0.00    -0.277 OA
ATOM     11  F   UNL     1       4.724  -5.432  -3.072  0.00  0.00    -0.205 F 
ATOM     12  H   UNL     1      -1.298  -5.463  -1.608  0.00  0.00    +0.155 HD
ENDROOT
BRANCH   1  13
ATOM     13  N   UNL     1       1.271  -2.608   0.093  0.00  0.00    +0.391 N 
ATOM     14  H   UNL     1       0.837  -2.211  -0.727  0.00  0.00    -0.084 HD
ATOM     15  H   UNL     1       2.258  -2.397   0.087  0.00  0.00    -0.084 HD
BRANCH  13  21
ATOM     16  C   UNL     1       0.742  -0.511   1.242  0.00  0.00    -0.025 C 
ATOM     17  C   UNL     1       2.210  -0.086   1.169  0.00  0.00    +0.002 C 
ATOM     18  C   UNL     1       2.950  -0.593   2.408  0.00  0.00    +0.000 C 
ATOM     19  C   UNL     1       2.863  -2.119   2.465  0.00  0.00    -0.002 C 
ATOM     20  C   UNL     1       1.395  -2.544   2.538  0.00  0.00    -0.015 C 
ATOM     21  C   UNL     1       0.655  -2.037   1.299  0.00  0.00    -0.067 C 
BRANCH  16  23
ATOM     22  C   UNL     1      -0.019   1.526   0.010  0.00  0.00    +0.004 C 
ATOM     23  C   UNL     1       0.002  -0.004   0.002  0.00  0.00    -0.002 C 
ENDBRANCH  16  23
ENDBRANCH  13  21
ENDBRANCH   1  13
TORSDOF 3
