REMARK  Name = ZINC54904868
REMARK  6 active torsions:
REMARK  status: ('A' for Active; 'I' for Inactive)
REMARK    1  A    between atoms: C_1  and  C_2
REMARK    2  A    between atoms: C_2  and  N_3
REMARK    3  A    between atoms: N_3  and  C_4
REMARK    4  A    between atoms: C_4  and  C_6
REMARK    5  A    between atoms: C_4  and  C_7
REMARK    6  A    between atoms: C_8  and  C_24
REMARK                            x       y       z     vdW  Elec       q    Type
REMARK                         _______ _______ _______ _____ _____    ______ ____
ROOT
ATOM      1  C   UNL     1       1.520  -2.432  -2.389  0.00  0.00    -0.000 A 
ATOM      2  C   UNL     1       2.459  -3.406  -2.447  0.00  0.00    +0.049 A 
ATOM      3  N   UNL     1       3.022  -3.629  -3.621  0.00  0.00    -0.230 NA
ATOM      4  C   UNL     1       2.679  -2.930  -4.683  0.00  0.00    +0.161 A 
ATOM      5  S   UNL     1       1.501  -1.885  -4.089  0.00  0.00    -0.059 S 
ATOM      6  N   UNL     1       3.166  -3.034  -5.976  0.00  0.00    -0.306 N 
ATOM      7  C   UNL     1       2.664  -2.156  -7.045  0.00  0.00    +0.107 C 
ATOM      8  C   UNL     1       2.195  -3.016  -8.222  0.00  0.00    +0.019 C 
ATOM      9  C   UNL     1       3.322  -3.960  -8.652  0.00  0.00    +0.007 C 
ATOM     10  C   UNL     1       3.684  -4.875  -7.483  0.00  0.00    +0.010 C 
ATOM     11  C   UNL     1       4.199  -4.018  -6.316  0.00  0.00    +0.078 C 
ATOM     12  C   UNL     1       4.492  -4.923  -5.121  0.00  0.00    +0.023 C 
ATOM     13  C   UNL     1       5.578  -5.930  -5.512  0.00  0.00    +0.002 C 
ATOM     14  C   UNL     1       5.103  -6.772  -6.697  0.00  0.00    +0.000 C 
ATOM     15  C   UNL     1       4.779  -5.862  -7.888  0.00  0.00    +0.005 C 
ATOM     16  C   UNL     1       2.846  -4.200  -1.226  0.00  0.00    +0.066 C 
ENDROOT
BRANCH   1  17
ATOM     17  C   UNL     1       0.710  -1.947  -1.215  0.00  0.00    -0.035 C 
ATOM     18  C   UNL     1      -0.722  -2.475  -1.330  0.00  0.00    -0.008 C 
BRANCH  17  19
ATOM     19  N   UNL     1       0.690  -0.478  -1.207  0.00  0.00    +0.384 N 
ATOM     20  H   UNL     1       0.202  -0.144  -2.024  0.00  0.00    -0.085 HD
ATOM     21  H   UNL     1       1.636  -0.129  -1.214  0.00  0.00    -0.085 HD
BRANCH  19  23
ATOM     22  C   UNL     1      -0.019   1.526   0.010  0.00  0.00    -0.017 C 
ATOM     23  C   UNL     1       0.002  -0.004   0.002  0.00  0.00    -0.085 C 
ENDBRANCH  19  23
ENDBRANCH  17  19
ENDBRANCH   1  17
TORSDOF 3
