REMARK  Name = ZINC20199310
REMARK  14 active torsions:
REMARK  status: ('A' for Active; 'I' for Inactive)
REMARK    1  A    between atoms: C_1  and  C_2
REMARK    2  A    between atoms: C_2  and  C_3
REMARK    3  A    between atoms: C_2  and  C_4
REMARK    4  A    between atoms: C_2  and  C_5
REMARK    5  A    between atoms: C_7  and  C_16
REMARK    6  A    between atoms: C_9  and  C_12
REMARK    7  A    between atoms: C_10  and  O_11
REMARK    8  A    between atoms: C_12  and  C_13
REMARK    9  A    between atoms: C_12  and  C_14
REMARK   10  A    between atoms: C_12  and  C_15
REMARK   11  A    between atoms: C_16  and  N_17
REMARK   12  A    between atoms: N_17  and  C_18
REMARK   13  A    between atoms: C_18  and  C_19
REMARK   14  A    between atoms: C_19  and  C_20
REMARK                            x       y       z     vdW  Elec       q    Type
REMARK                         _______ _______ _______ _____ _____    ______ ____
ROOT
ATOM      1  C   UNL     1       0.000   1.080   2.488  0.00  0.00    -0.000 A 
ATOM      2  C   UNL     1       1.133   0.302   2.347  0.00  0.00    +0.009 A 
ATOM      3  C   UNL     1       1.802  -0.156   3.466  0.00  0.00    -0.064 A 
ATOM      4  C   UNL     1       1.340   0.163   4.730  0.00  0.00    +0.009 A 
ATOM      5  C   UNL     1       0.208   0.942   4.876  0.00  0.00    -0.000 A 
ATOM      6  C   UNL     1      -0.463   1.406   3.754  0.00  0.00    +0.124 A 
ENDROOT
BRANCH   1   8
ATOM      7  C   UNL     1      -0.013   1.086   0.008  0.00  0.00    +0.015 C 
ATOM      8  C   UNL     1      -0.729   1.579   1.267  0.00  0.00    -0.009 C 
ATOM      9  C   UNL     1      -0.750   3.109   1.275  0.00  0.00    +0.015 C 
ATOM     10  C   UNL     1      -2.164   1.050   1.278  0.00  0.00    +0.015 C 
ENDBRANCH   1   8
BRANCH   5  11
ATOM     11  C   UNL     1      -0.295   1.290   6.253  0.00  0.00    -0.009 C 
ATOM     12  C   UNL     1       0.622   0.662   7.305  0.00  0.00    +0.015 C 
ATOM     13  C   UNL     1      -0.301   2.810   6.425  0.00  0.00    +0.015 C 
ATOM     14  C   UNL     1      -1.716   0.751   6.429  0.00  0.00    +0.015 C 
ENDBRANCH   5  11
BRANCH   6  15
ATOM     15  O   UNL     1      -1.573   2.176   3.896  0.00  0.00    -0.506 OA
ATOM     16  H   UNL     1      -1.939   2.435   4.900  0.00  0.00    +0.292 HD
ENDBRANCH   6  15
BRANCH   3  17
ATOM     17  C   UNL     1       3.038  -1.004   3.310  0.00  0.00    -0.047 C 
BRANCH  17  18
ATOM     18  N   UNL     1       4.223  -0.138   3.257  0.00  0.00    +0.382 N 
ATOM     19  H   UNL     1       4.138   0.548   2.401  0.00  0.00    -0.085 HD
ATOM     20  H   UNL     1       4.293   0.444   4.188  0.00  0.00    -0.085 HD
BRANCH  18  21
ATOM     21  C   UNL     1       5.449  -0.933   3.104  0.00  0.00    -0.067 C 
BRANCH  21  22
ATOM     22  C   UNL     1       6.659   0.002   3.053  0.00  0.00    +0.099 C 
BRANCH  22  23
ATOM     23  C   UNL     1       7.888  -0.794   2.900  0.00  0.00    +0.061 C 
ATOM     24  N   UNL     1       8.836  -1.408   2.782  0.00  0.00    -0.197 NA
ENDBRANCH  22  23
ENDBRANCH  21  22
ENDBRANCH  18  21
ENDBRANCH  17  18
ENDBRANCH   3  17
TORSDOF 8
