REMARK  Name = ZINC66115489
REMARK  11 active torsions:
REMARK  status: ('A' for Active; 'I' for Inactive)
REMARK    1  A    between atoms: C_1  and  C_2
REMARK    2  A    between atoms: C_2  and  O_3
REMARK    3  A    between atoms: O_3  and  C_4
REMARK    4  A    between atoms: C_4  and  C_5
REMARK    5  A    between atoms: C_5  and  O_6
REMARK    6  A    between atoms: O_6  and  C_7
REMARK    7  A    between atoms: C_16  and  C_17
REMARK    8  A    between atoms: C_17  and  N_18
REMARK    9  A    between atoms: C_24  and  C_26
REMARK   10  A    between atoms: C_26  and  C_27
REMARK   11  A    between atoms: N_29  and  N_30
REMARK                            x       y       z     vdW  Elec       q    Type
REMARK                         _______ _______ _______ _____ _____    ______ ____
ROOT
ATOM      1  C   UNL     1      -0.011  -1.267   5.238  0.00  0.00    -0.038 C 
ENDROOT
BRANCH   1  11
ATOM      2  C   UNL     1       1.916  -2.296   4.040  0.00  0.00    +0.123 A 
ATOM      3  C   UNL     1       3.246  -2.724   3.970  0.00  0.00    +0.046 A 
ATOM      4  C   UNL     1       4.080  -2.592   5.036  0.00  0.00    +0.012 A 
ATOM      5  C   UNL     1       3.603  -2.017   6.227  0.00  0.00    -0.017 A 
ATOM      6  C   UNL     1       4.438  -1.865   7.347  0.00  0.00    +0.008 A 
ATOM      7  C   UNL     1       3.944  -1.304   8.485  0.00  0.00    +0.001 A 
ATOM      8  C   UNL     1       2.620  -0.877   8.557  0.00  0.00    +0.001 A 
ATOM      9  C   UNL     1       1.782  -1.008   7.493  0.00  0.00    +0.009 A 
ATOM     10  C   UNL     1       2.256  -1.583   6.301  0.00  0.00    -0.013 A 
ATOM     11  C   UNL     1       1.422  -1.729   5.181  0.00  0.00    -0.015 A 
BRANCH   2  12
ATOM     12  O   UNL     1       1.107  -2.441   2.959  0.00  0.00    -0.489 OA
BRANCH  12  13
ATOM     13  C   UNL     1       1.649  -3.132   1.831  0.00  0.00    +0.257 C 
BRANCH  13  14
ATOM     14  C   UNL     1       0.646  -3.088   0.676  0.00  0.00    +0.200 C 
BRANCH  14  15
ATOM     15  O   UNL     1       0.487  -1.739   0.234  0.00  0.00    -0.377 OA
BRANCH  15  17
ATOM     16  C   UNL     1      -0.509  -0.119  -1.258  0.00  0.00    +0.034 C 
ATOM     17  C   UNL     1      -0.511  -1.571  -0.774  0.00  0.00    +0.156 C 
ENDBRANCH  15  17
ENDBRANCH  14  15
ENDBRANCH  13  14
ENDBRANCH  12  13
ENDBRANCH   2  12
ENDBRANCH   1  11
BRANCH   1  18
ATOM     18  N   UNL     1      -0.881  -2.408   5.555  0.00  0.00    +0.391 N 
ATOM     19  C   UNL     1      -0.571  -2.904   6.905  0.00  0.00    -0.058 C 
ATOM     20  C   UNL     1      -1.297  -4.233   7.121  0.00  0.00    +0.085 C 
ATOM     21  N   UNL     1      -2.710  -4.089   6.779  0.00  0.00    -0.318 N 
ATOM     22  C   UNL     1      -3.172  -3.076   6.038  0.00  0.00    +0.200 C 
ATOM     23  O   UNL     1      -4.357  -3.038   5.778  0.00  0.00    -0.278 OA
ATOM     24  C   UNL     1      -2.285  -1.982   5.516  0.00  0.00    +0.028 C 
ATOM     25  H   UNL     1      -3.337  -4.755   7.102  0.00  0.00    +0.149 HD
ATOM     26  H   UNL     1      -0.732  -3.144   4.880  0.00  0.00    -0.080 HD
BRANCH  24  27
ATOM     27  C   UNL     1      -2.677  -1.657   4.073  0.00  0.00    +0.091 C 
BRANCH  27  28
ATOM     28  C   UNL     1      -2.580  -2.904   3.233  0.00  0.00    +0.225 C 
ATOM     29  O   UNL     1      -2.317  -3.967   3.754  0.00  0.00    -0.275 OA
ATOM     30  N   UNL     1      -2.785  -2.839   1.902  0.00  0.00    -0.254 N 
ATOM     31  H   UNL     1      -2.924  -1.979   1.475  0.00  0.00    +0.169 HD
BRANCH  30  32
ATOM     32  N   UNL     1      -2.797  -3.982   1.156  0.00  0.00    -0.254 NA
ATOM     33  H   UNL     1      -3.566  -4.579   1.420  0.00  0.00    +0.140 HD
ATOM     34  H   UNL     1      -2.826  -3.770   0.170  0.00  0.00    +0.140 HD
ENDBRANCH  30  32
ENDBRANCH  27  28
ENDBRANCH  24  27
ENDBRANCH   1  18
TORSDOF 10
