REMARK  Name = ZINC51997506
REMARK  8 active torsions:
REMARK  status: ('A' for Active; 'I' for Inactive)
REMARK    1  A    between atoms: C_1  and  C_2
REMARK    2  A    between atoms: C_2  and  C_3
REMARK    3  A    between atoms: C_2  and  C_4
REMARK    4  A    between atoms: C_2  and  O_5
REMARK    5  A    between atoms: O_5  and  C_6
REMARK    6  A    between atoms: C_11  and  N_14
REMARK    7  A    between atoms: N_14  and  C_15
REMARK    8  A    between atoms: C_21  and  O_23
REMARK                            x       y       z     vdW  Elec       q    Type
REMARK                         _______ _______ _______ _____ _____    ______ ____
ROOT
ATOM      1  C   UNL     1       2.227   0.272  -1.472  0.00  0.00    +0.403 C 
ATOM      2  O   UNL     1       2.831   1.021  -0.729  0.00  0.00    -0.226 OA
ATOM      3  N   UNL     1       2.843  -0.244  -2.553  0.00  0.00    -0.268 N 
ATOM      4  C   UNL     1       2.125  -1.146  -3.464  0.00  0.00    +0.109 C 
ATOM      5  C   UNL     1       2.936  -2.436  -3.622  0.00  0.00    +0.003 C 
ATOM      6  C   UNL     1       4.357  -2.088  -4.073  0.00  0.00    -0.068 C 
ATOM      7  C   UNL     1       5.033  -1.220  -3.009  0.00  0.00    +0.003 C 
ATOM      8  C   UNL     1       4.244   0.088  -2.848  0.00  0.00    +0.109 C 
ENDROOT
BRANCH   6   9
ATOM      9  N   UNL     1       5.128  -3.325  -4.257  0.00  0.00    +0.384 N 
ATOM     10  H   UNL     1       6.090  -3.095  -4.457  0.00  0.00    -0.085 HD
ATOM     11  H   UNL     1       5.083  -3.879  -3.415  0.00  0.00    -0.085 HD
BRANCH   9  12
ATOM     12  C   UNL     1       4.566  -4.091  -5.377  0.00  0.00    -0.042 C 
ATOM     13  C   UNL     1       4.769  -3.314  -6.679  0.00  0.00    -0.013 C 
ATOM     14  C   UNL     1       4.183  -4.111  -7.846  0.00  0.00    -0.001 C 
ATOM     15  C   UNL     1       4.889  -5.465  -7.944  0.00  0.00    +0.002 C 
ATOM     16  C   UNL     1       4.685  -6.242  -6.642  0.00  0.00    +0.030 C 
ATOM     17  C   UNL     1       5.272  -5.444  -5.476  0.00  0.00    +0.101 C 
BRANCH  17  18
ATOM     18  O   UNL     1       6.669  -5.238  -5.694  0.00  0.00    -0.393 OA
ATOM     19  H   UNL     1       7.180  -6.056  -5.767  0.00  0.00    +0.210 HD
ENDBRANCH  17  18
ENDBRANCH   9  12
ENDBRANCH   6   9
BRANCH   1  20
ATOM     20  O   UNL     1       0.944  -0.041  -1.214  0.00  0.00    -0.445 OA
BRANCH  20  22
ATOM     21  C   UNL     1       0.388   2.067  -0.172  0.00  0.00    +0.055 C 
ATOM     22  C   UNL     1       0.354   0.543  -0.051  0.00  0.00    +0.107 C 
ATOM     23  C   UNL     1       1.139   0.112   1.190  0.00  0.00    +0.055 C 
ATOM     24  C   UNL     1      -1.097   0.074   0.076  0.00  0.00    +0.055 C 
ENDBRANCH  20  22
ENDBRANCH   1  20
TORSDOF 5
