REMARK  Name = ZINC55135431
REMARK  10 active torsions:
REMARK  status: ('A' for Active; 'I' for Inactive)
REMARK    1  A    between atoms: C_1  and  C_2
REMARK    2  A    between atoms: C_2  and  C_3
REMARK    3  A    between atoms: C_3  and  C_5
REMARK    4  A    between atoms: C_3  and  N_6
REMARK    5  A    between atoms: C_7  and  C_9
REMARK    6  A    between atoms: C_9  and  C_10
REMARK    7  A    between atoms: C_10  and  N_11
REMARK    8  A    between atoms: C_12  and  C_14
REMARK    9  A    between atoms: C_14  and  C_15
REMARK   10  A    between atoms: C_18  and  N_21
REMARK                            x       y       z     vdW  Elec       q    Type
REMARK                         _______ _______ _______ _____ _____    ______ ____
ROOT
ATOM      1  N   UNL     1       6.232   0.963  -3.680  0.00  0.00    -0.315 N 
ATOM      2  C   UNL     1       6.931   1.105  -4.823  0.00  0.00    +0.213 C 
ATOM      3  O   UNL     1       6.396   0.897  -5.891  0.00  0.00    -0.276 OA
ATOM      4  H   UNL     1       6.660   1.129  -2.826  0.00  0.00    +0.149 HD
ENDROOT
BRANCH   1   5
ATOM      5  C   UNL     1       4.825   0.556  -3.728  0.00  0.00    +0.113 C 
BRANCH   5   6
ATOM      6  C   UNL     1       4.271   0.470  -2.304  0.00  0.00    +0.114 C 
BRANCH   6   8
ATOM      7  N   UNL     1       2.125  -0.091  -1.209  0.00  0.00    -0.313 N 
ATOM      8  C   UNL     1       2.824   0.051  -2.353  0.00  0.00    +0.215 C 
ATOM      9  O   UNL     1       2.289  -0.157  -3.421  0.00  0.00    -0.276 OA
ATOM     10  H   UNL     1       2.553   0.075  -0.355  0.00  0.00    +0.149 HD
BRANCH   7  11
ATOM     11  C   UNL     1       0.718  -0.497  -1.257  0.00  0.00    +0.070 C 
ATOM     12  C   UNL     1       0.630  -2.023  -1.329  0.00  0.00    +0.028 C 
BRANCH  11  14
ATOM     13  C   UNL     1      -0.019   1.526   0.010  0.00  0.00    +0.005 C 
ATOM     14  C   UNL     1       0.002  -0.004   0.002  0.00  0.00    +0.018 C 
ENDBRANCH  11  14
ENDBRANCH   7  11
ENDBRANCH   6   8
ENDBRANCH   5   6
ENDBRANCH   1   5
BRANCH   2  15
ATOM     15  C   UNL     1       8.378   1.523  -4.775  0.00  0.00    +0.099 C 
BRANCH  15  16
ATOM     16  C   UNL     1       8.932   1.610  -6.198  0.00  0.00    -0.002 C 
ATOM     17  C   UNL     1       8.934   0.217  -6.830  0.00  0.00    +0.002 C 
ATOM     18  C   UNL     1       9.489   0.303  -8.254  0.00  0.00    -0.016 C 
ATOM     19  C   UNL     1      10.918   0.847  -8.212  0.00  0.00    -0.075 C 
ATOM     20  C   UNL     1      10.916   2.240  -7.580  0.00  0.00    -0.016 C 
ATOM     21  C   UNL     1      10.362   2.154  -6.157  0.00  0.00    +0.002 C 
BRANCH  19  22
ATOM     22  N   UNL     1      11.450   0.930  -9.579  0.00  0.00    +0.380 N 
ATOM     23  H   UNL     1      10.871   1.548 -10.128  0.00  0.00    -0.090 HD
ATOM     24  H   UNL     1      12.393   1.289  -9.552  0.00  0.00    -0.090 HD
ATOM     25  H   UNL     1      11.452   0.011  -9.996  0.00  0.00    -0.090 HD
ENDBRANCH  19  22
ENDBRANCH  15  16
ENDBRANCH   2  15
TORSDOF 8
