REMARK  Name = ZINC52819937
REMARK  6 active torsions:
REMARK  status: ('A' for Active; 'I' for Inactive)
REMARK    1  A    between atoms: C_1  and  C_2
REMARK    2  A    between atoms: N_10  and  N_14
REMARK    3  A    between atoms: C_15  and  C_17
REMARK    4  A    between atoms: C_17  and  N_18
REMARK    5  A    between atoms: C_21  and  C_24
REMARK    6  A    between atoms: C_24  and  O_25
REMARK                            x       y       z     vdW  Elec       q    Type
REMARK                         _______ _______ _______ _____ _____    ______ ____
ROOT
ATOM      1  N   UNL     1       3.303  -5.678  -0.062  0.00  0.00    -0.225 N 
ATOM      2  C   UNL     1       3.812  -6.196  -1.197  0.00  0.00    +0.213 C 
ATOM      3  O   UNL     1       3.841  -5.528  -2.209  0.00  0.00    -0.276 OA
ATOM      4  H   UNL     1       3.280  -6.212   0.747  0.00  0.00    +0.173 HD
ENDROOT
BRANCH   1  14
ATOM      5  C   UNL     1      -0.019   1.526   0.010  0.00  0.00    +0.007 C 
ATOM      6  C   UNL     1       0.002  -0.004   0.002  0.00  0.00    -0.014 C 
ATOM      7  C   UNL     1       0.716  -0.497  -1.258  0.00  0.00    +0.006 C 
ATOM      8  C   UNL     1       0.727  -2.028  -1.271  0.00  0.00    +0.035 C 
ATOM      9  C   UNL     1       1.442  -2.543  -0.027  0.00  0.00    +0.114 C 
ATOM     10  C   UNL     1       0.753  -2.041   1.238  0.00  0.00    +0.035 C 
ATOM     11  C   UNL     1       0.742  -0.510   1.242  0.00  0.00    +0.006 C 
ATOM     12  C   UNL     1       1.495  -4.053  -0.035  0.00  0.00    +0.263 C 
ATOM     13  O   UNL     1       0.556  -4.821  -0.030  0.00  0.00    -0.271 OA
ATOM     14  N   UNL     1       2.807  -4.367  -0.051  0.00  0.00    -0.137 N 
ATOM     15  C   UNL     1       3.576  -3.272  -0.053  0.00  0.00    +0.326 C 
ATOM     16  O   UNL     1       4.791  -3.300  -0.065  0.00  0.00    -0.251 OA
ATOM     17  N   UNL     1       2.853  -2.136  -0.039  0.00  0.00    -0.284 N 
ATOM     18  H   UNL     1       3.196  -1.229  -0.038  0.00  0.00    +0.151 HD
ENDBRANCH   1  14
BRANCH   2  19
ATOM     19  C   UNL     1       4.345  -7.605  -1.210  0.00  0.00    +0.020 C 
BRANCH  19  20
ATOM     20  N   UNL     1       4.839  -7.930  -2.554  0.00  0.00    +0.385 N 
ATOM     21  C   UNL     1       5.985  -7.070  -2.874  0.00  0.00    -0.078 C 
ATOM     22  C   UNL     1       6.453  -7.348  -4.304  0.00  0.00    -0.013 C 
ATOM     23  C   UNL     1       6.867  -8.817  -4.423  0.00  0.00    +0.011 C 
ATOM     24  C   UNL     1       5.687  -9.704  -4.016  0.00  0.00    -0.013 C 
ATOM     25  C   UNL     1       5.248  -9.339  -2.596  0.00  0.00    -0.078 C 
ATOM     26  H   UNL     1       4.105  -7.773  -3.228  0.00  0.00    -0.081 HD
BRANCH  23  27
ATOM     27  C   UNL     1       7.261  -9.122  -5.870  0.00  0.00    +0.159 C 
BRANCH  27  28
ATOM     28  O   UNL     1       7.758 -10.459  -5.957  0.00  0.00    -0.395 OA
ATOM     29  H   UNL     1       8.027 -10.721  -6.848  0.00  0.00    +0.209 HD
ENDBRANCH  27  28
ENDBRANCH  23  27
ENDBRANCH  19  20
ENDBRANCH   2  19
TORSDOF 5
