REMARK  Name = ZINC44282478
REMARK  6 active torsions:
REMARK  status: ('A' for Active; 'I' for Inactive)
REMARK    1  A    between atoms: C_4  and  N_12
REMARK    2  A    between atoms: C_5  and  O_11
REMARK    3  A    between atoms: C_6  and  C_7
REMARK    4  A    between atoms: C_7  and  C_8
REMARK    5  A    between atoms: C_8  and  C_9
REMARK    6  A    between atoms: C_9  and  N_10
REMARK                            x       y       z     vdW  Elec       q    Type
REMARK                         _______ _______ _______ _____ _____    ______ ____
ROOT
ATOM      1  C   UNL     1      -0.017   1.377   0.010  0.00  0.00    +0.021 A 
ATOM      2  C   UNL     1       1.171   2.086   0.002  0.00  0.00    +0.016 A 
ATOM      3  C   UNL     1       2.380   1.414  -0.013  0.00  0.00    +0.050 A 
ATOM      4  C   UNL     1       2.403   0.033  -0.021  0.00  0.00    +0.169 A 
ATOM      5  C   UNL     1       1.214  -0.680  -0.013  0.00  0.00    +0.150 A 
ATOM      6  C   UNL     1       0.002  -0.004   0.002  0.00  0.00    -0.003 A 
ATOM      7  I   UNL     1       1.139   4.181   0.013  0.00  0.00    -0.044 I 
ENDROOT
BRANCH   4   8
ATOM      8  N   UNL     1       3.697  -0.686  -0.037  0.00  0.00    +0.060 N 
ATOM      9  O   UNL     1       4.734  -0.064  -0.044  0.00  0.00    -0.126 OA
ATOM     10  O   UNL     1       3.717  -1.895  -0.044  0.00  0.00    -0.126 OA
ENDBRANCH   4   8
BRANCH   5  11
ATOM     11  O   UNL     1       1.234  -2.039  -0.021  0.00  0.00    -0.504 OA
ATOM     12  H   UNL     1       1.249  -2.438   0.860  0.00  0.00    +0.292 HD
ENDBRANCH   5  11
BRANCH   6  13
ATOM     13  C   UNL     1      -1.292  -0.776   0.011  0.00  0.00    +0.037 C 
BRANCH  13  14
ATOM     14  C   UNL     1      -1.652  -1.153   1.449  0.00  0.00    -0.015 C 
BRANCH  14  15
ATOM     15  C   UNL     1      -2.966  -1.936   1.458  0.00  0.00    -0.086 C 
BRANCH  15  16
ATOM     16  N   UNL     1      -3.311  -2.298   2.839  0.00  0.00    +0.378 N 
ATOM     17  H   UNL     1      -4.178  -2.815   2.845  0.00  0.00    -0.090 HD
ATOM     18  H   UNL     1      -2.577  -2.869   3.231  0.00  0.00    -0.090 HD
ATOM     19  H   UNL     1      -3.416  -1.459   3.391  0.00  0.00    -0.090 HD
ENDBRANCH  15  16
ENDBRANCH  14  15
ENDBRANCH  13  14
ENDBRANCH   6  13
TORSDOF 6
