REMARK  Name = ZINC59762796
REMARK  6 active torsions:
REMARK  status: ('A' for Active; 'I' for Inactive)
REMARK    1  A    between atoms: C_1  and  C_2
REMARK    2  A    between atoms: C_4  and  C_21
REMARK    3  A    between atoms: C_6  and  N_8
REMARK    4  A    between atoms: N_8  and  C_9
REMARK    5  A    between atoms: N_8  and  C_10
REMARK    6  A    between atoms: C_15  and  N_16
REMARK                            x       y       z     vdW  Elec       q    Type
REMARK                         _______ _______ _______ _____ _____    ______ ____
ROOT
ATOM      1  C   UNL     1       0.048  -2.106   3.608  0.00  0.00    +0.057 A 
ATOM      2  C   UNL     1      -1.156  -1.784   4.220  0.00  0.00    +0.074 A 
ATOM      3  C   UNL     1      -1.159  -1.101   5.426  0.00  0.00    +0.164 A 
ATOM      4  C   UNL     1       0.045  -0.741   6.022  0.00  0.00    +0.164 A 
ATOM      5  C   UNL     1       1.245  -1.063   5.406  0.00  0.00    +0.072 A 
ATOM      6  C   UNL     1       1.248  -1.748   4.206  0.00  0.00    +0.034 A 
ATOM      7  O   UNL     1       0.062  -0.076   7.211  0.00  0.00    -0.485 OA
ATOM      8  C   UNL     1      -1.158   0.556   7.612  0.00  0.00    +0.270 C 
ATOM      9  C   UNL     1      -2.307  -0.439   7.401  0.00  0.00    +0.270 C 
ATOM     10  O   UNL     1      -2.346  -0.789   6.013  0.00  0.00    -0.485 OA
ENDROOT
BRANCH   6  11
ATOM     11  N   UNL     1       2.461  -2.075   3.592  0.00  0.00    -0.415 NA
ATOM     12  H   UNL     1       2.739  -1.326   2.976  0.00  0.00    +0.121 HD
ATOM     13  H   UNL     1       3.169  -2.211   4.297  0.00  0.00    +0.121 HD
ATOM     14  H   UNL     1       2.349  -2.925   3.059  0.00  0.00    +0.121 HD
ENDBRANCH   6  11
BRANCH   1  15
ATOM     15  N   UNL     1       0.051  -2.797   2.390  0.00  0.00    -0.302 N 
ATOM     16  C   UNL     1       0.070  -4.262   2.380  0.00  0.00    +0.135 C 
BRANCH  15  22
ATOM     17  C   UNL     1      -0.018   1.503   0.010  0.00  0.00    +0.044 C 
ATOM     18  C   UNL     1       0.002  -0.004   0.002  0.00  0.00    -0.048 A 
ATOM     19  C   UNL     1       0.006  -0.688  -1.200  0.00  0.00    +0.006 A 
ATOM     20  C   UNL     1       0.025  -2.071  -1.212  0.00  0.00    -0.048 A 
ATOM     21  C   UNL     1       0.040  -2.773  -0.023  0.00  0.00    +0.026 A 
ATOM     22  C   UNL     1       0.036  -2.089   1.186  0.00  0.00    +0.034 A 
ATOM     23  C   UNL     1       0.023  -0.700   1.195  0.00  0.00    +0.026 A 
ATOM     24  C   UNL     1       0.028  -2.812  -2.524  0.00  0.00    +0.044 C 
ENDBRANCH  15  22
ENDBRANCH   1  15
TORSDOF 3
