REMARK  Name = ZINC13461090
REMARK  8 active torsions:
REMARK  status: ('A' for Active; 'I' for Inactive)
REMARK    1  A    between atoms: C_1  and  C_2
REMARK    2  A    between atoms: C_5  and  C_33
REMARK    3  A    between atoms: C_6  and  S_8
REMARK    4  A    between atoms: S_8  and  C_9
REMARK    5  A    between atoms: C_12  and  N_15
REMARK    6  A    between atoms: N_15  and  C_16
REMARK    7  A    between atoms: N_21  and  C_24
REMARK    8  A    between atoms: C_27  and  C_30
REMARK                            x       y       z     vdW  Elec       q    Type
REMARK                         _______ _______ _______ _____ _____    ______ ____
ROOT
ATOM      1  N   UNL     1       0.025   0.822   7.204  0.00  0.00    -0.333 N 
ATOM      2  H   UNL     1      -0.033   1.768   6.994  0.00  0.00    +0.147 HD
ENDROOT
BRANCH   1   3
ATOM      3  C   UNL     1       0.115   0.386   8.599  0.00  0.00    +0.166 C 
ATOM      4  C   UNL     1      -0.455   1.465   9.543  0.00  0.00    +0.128 C 
ATOM      5  C   UNL     1       0.730   1.842  10.406  0.00  0.00    +0.228 C 
ATOM      6  O   UNL     1       0.718   2.669  11.293  0.00  0.00    -0.275 OA
ATOM      7  N   UNL     1       1.793   1.119  10.035  0.00  0.00    -0.209 N 
ATOM      8  C   UNL     1       1.561   0.264   9.027  0.00  0.00    +0.247 C 
ATOM      9  O   UNL     1       2.377  -0.486   8.535  0.00  0.00    -0.273 OA
BRANCH   7  10
ATOM     10  C   UNL     1       3.043   1.242  10.648  0.00  0.00    +0.044 A 
ATOM     11  C   UNL     1       3.210   0.838  11.969  0.00  0.00    +0.025 A 
ATOM     12  C   UNL     1       4.439   0.958  12.576  0.00  0.00    +0.017 A 
ATOM     13  C   UNL     1       5.521   1.486  11.864  0.00  0.00    +0.063 A 
ATOM     14  C   UNL     1       5.348   1.891  10.536  0.00  0.00    +0.017 A 
ATOM     15  C   UNL     1       4.117   1.762   9.934  0.00  0.00    +0.025 A 
BRANCH  13  16
ATOM     16  C   UNL     1       6.838   1.616  12.511  0.00  0.00    +0.387 C 
ATOM     17  O   UNL     1       6.987   1.262  13.672  0.00  0.00    -0.241 OA
ATOM     18  O   UNL     1       7.783   2.078  11.886  0.00  0.00    -0.241 OA
ENDBRANCH  13  16
ENDBRANCH   7  10
ENDBRANCH   1   3
BRANCH   1  22
ATOM     19  C   UNL     1       0.015  -1.999   4.134  0.00  0.00    +0.013 A 
ATOM     20  C   UNL     1      -0.067  -0.645   3.833  0.00  0.00    +0.017 A 
ATOM     21  C   UNL     1      -0.064   0.289   4.850  0.00  0.00    +0.024 A 
ATOM     22  C   UNL     1       0.021  -0.125   6.173  0.00  0.00    +0.028 A 
ATOM     23  C   UNL     1       0.104  -1.478   6.473  0.00  0.00    +0.024 A 
ATOM     24  C   UNL     1       0.096  -2.413   5.457  0.00  0.00    +0.017 A 
BRANCH  19  25
ATOM     25  S   UNL     1       0.011  -3.191   2.836  0.00  0.00    -0.089 S 
BRANCH  25  31
ATOM     26  C   UNL     1       5.080  -2.196   3.676  0.00  0.00    +0.044 C 
ATOM     27  C   UNL     1       4.027  -3.006   2.964  0.00  0.00    -0.049 A 
ATOM     28  C   UNL     1       4.403  -3.999   2.076  0.00  0.00    +0.004 A 
ATOM     29  C   UNL     1       3.440  -4.745   1.420  0.00  0.00    +0.005 A 
ATOM     30  C   UNL     1       2.100  -4.501   1.649  0.00  0.00    -0.037 A 
ATOM     31  C   UNL     1       1.720  -3.505   2.541  0.00  0.00    +0.016 A 
ATOM     32  C   UNL     1       2.690  -2.761   3.202  0.00  0.00    +0.018 A 
ATOM     33  C   UNL     1       1.053  -5.314   0.934  0.00  0.00    +0.045 C 
ENDBRANCH  25  31
ENDBRANCH  19  25
ENDBRANCH   1  22
TORSDOF 6
