REMARK  Name = ZINC61099224
REMARK  5 active torsions:
REMARK  status: ('A' for Active; 'I' for Inactive)
REMARK    1  A    between atoms: C_1  and  C_2
REMARK    2  A    between atoms: C_4  and  N_9
REMARK    3  A    between atoms: N_9  and  S_10
REMARK    4  A    between atoms: S_10  and  C_13
REMARK    5  A    between atoms: C_18  and  N_19
REMARK                            x       y       z     vdW  Elec       q    Type
REMARK                         _______ _______ _______ _____ _____    ______ ____
ROOT
ATOM      1  S   UNL     1       0.050  -4.426  -2.426  0.00  0.00    +0.096 S 
ATOM      2  O   UNL     1       1.304  -4.817  -1.883  0.00  0.00    -0.148 OA
ATOM      3  O   UNL     1      -1.187  -4.851  -1.871  0.00  0.00    -0.148 OA
ENDROOT
BRANCH   1   4
ATOM      4  C   UNL     1       0.049  -4.940  -4.112  0.00  0.00    +0.166 A 
ATOM      5  C   UNL     1       1.078  -5.623  -4.765  0.00  0.00    +0.133 A 
ATOM      6  N   UNL     1       0.713  -5.831  -6.004  0.00  0.00    -0.304 N 
ATOM      7  H   UNL     1      -1.079  -5.297  -7.007  0.00  0.00    +0.188 HD
ATOM      8  N   UNL     1      -0.565  -5.286  -6.185  0.00  0.00    -0.286 N 
ATOM      9  C   UNL     1      -0.958  -4.747  -5.008  0.00  0.00    +0.137 A 
ATOM     10  H   UNL     1       1.237  -6.284  -6.682  0.00  0.00    +0.186 HD
BRANCH   9  11
ATOM     11  N   UNL     1      -2.170  -4.110  -4.759  0.00  0.00    -0.342 N 
ATOM     12  H   UNL     1      -2.358  -3.752  -3.877  0.00  0.00    +0.144 HD
ATOM     13  H   UNL     1      -2.827  -4.022  -5.468  0.00  0.00    +0.144 HD
ENDBRANCH   9  11
ENDBRANCH   1   4
BRANCH   1  14
ATOM     14  N   UNL     1       0.028  -2.770  -2.419  0.00  0.00    -0.098 NA
BRANCH  14  18
ATOM     15  C   UNL     1      -0.018   1.503   0.010  0.00  0.00    +0.047 C 
ATOM     16  C   UNL     1       0.002  -0.004   0.002  0.00  0.00    -0.013 A 
ATOM     17  C   UNL     1       0.006  -0.688  -1.198  0.00  0.00    +0.032 A 
ATOM     18  C   UNL     1       0.025  -2.076  -1.205  0.00  0.00    +0.075 A 
ATOM     19  C   UNL     1       0.040  -2.775  -0.005  0.00  0.00    +0.029 A 
ATOM     20  C   UNL     1       0.036  -2.087   1.193  0.00  0.00    +0.040 A 
ATOM     21  C   UNL     1       0.023  -0.702   1.197  0.00  0.00    +0.126 A 
ATOM     22  F   UNL     1       0.025  -0.032   2.370  0.00  0.00    -0.205 F 
ENDBRANCH  14  18
ENDBRANCH   1  14
TORSDOF 4
