REMARK  Name = ZINC61700391
REMARK  6 active torsions:
REMARK  status: ('A' for Active; 'I' for Inactive)
REMARK    1  A    between atoms: C_1  and  C_2
REMARK    2  A    between atoms: C_2  and  C_4
REMARK    3  A    between atoms: C_2  and  N_22
REMARK    4  A    between atoms: C_7  and  S_11
REMARK    5  A    between atoms: S_11  and  C_12
REMARK    6  A    between atoms: N_22  and  C_23
REMARK                            x       y       z     vdW  Elec       q    Type
REMARK                         _______ _______ _______ _____ _____    ______ ____
ROOT
ATOM      1  C   UNL     1       1.451  -0.495   0.883  0.00  0.00    -0.060 A 
ATOM      2  C   UNL     1       0.610  -0.469   1.981  0.00  0.00    +0.003 A 
ATOM      3  C   UNL     1       1.055  -0.928   3.205  0.00  0.00    +0.017 A 
ATOM      4  C   UNL     1       2.349  -1.416   3.334  0.00  0.00    +0.033 A 
ATOM      5  C   UNL     1       3.192  -1.442   2.229  0.00  0.00    +0.055 A 
ATOM      6  C   UNL     1       2.738  -0.986   1.006  0.00  0.00    +0.023 A 
ATOM      7 CL   UNL     1       4.810  -2.051   2.384  0.00  0.00    -0.082 Cl
ENDROOT
BRANCH   1   9
ATOM      8  C   UNL     1       1.040   1.534  -0.481  0.00  0.00    -0.009 C 
ATOM      9  C   UNL     1       0.962   0.007  -0.451  0.00  0.00    -0.044 C 
BRANCH   9  10
ATOM     10  N   UNL     1      -0.431  -0.416  -0.652  0.00  0.00    +0.382 N 
ATOM     11  C   UNL     1      -0.870  -0.031  -2.000  0.00  0.00    -0.100 C 
ATOM     12  H   UNL     1      -0.496  -1.418  -0.550  0.00  0.00    -0.085 HD
ATOM     13  H   UNL     1      -1.020   0.031   0.034  0.00  0.00    -0.085 HD
ENDBRANCH   9  10
ENDBRANCH   1   9
BRANCH   4  14
ATOM     14  S   UNL     1       2.920  -2.002   4.894  0.00  0.00    -0.066 S 
BRANCH  14  15
ATOM     15  C   UNL     1       2.866  -3.756   4.737  0.00  0.00    +0.130 A 
ATOM     16  C   UNL     1       3.353  -4.580   5.755  0.00  0.00    +0.118 A 
ATOM     17  C   UNL     1       3.288  -5.972   5.583  0.00  0.00    +0.182 A 
ATOM     18  N   UNL     1       3.814  -6.527   6.691  0.00  0.00    -0.216 NA
ATOM     19  H   UNL     1       4.116  -3.515   7.402  0.00  0.00    +0.167 HD
ATOM     20  C   UNL     1       4.192  -5.591   7.516  0.00  0.00    +0.199 A 
ATOM     21  N   UNL     1       3.931  -4.373   6.989  0.00  0.00    -0.341 N 
ATOM     22  N   UNL     1       2.761  -6.454   4.452  0.00  0.00    -0.214 NA
ATOM     23  C   UNL     1       2.315  -5.640   3.522  0.00  0.00    +0.224 A 
ATOM     24  N   UNL     1       2.354  -4.327   3.649  0.00  0.00    -0.227 NA
ENDBRANCH  14  15
ENDBRANCH   4  14
TORSDOF 4
