REMARK  Name = ZINC54725669
REMARK  13 active torsions:
REMARK  status: ('A' for Active; 'I' for Inactive)
REMARK    1  A    between atoms: C_1  and  C_2
REMARK    2  A    between atoms: C_5  and  C_26
REMARK    3  A    between atoms: N_8  and  C_10
REMARK    4  A    between atoms: C_10  and  C_11
REMARK    5  A    between atoms: C_10  and  C_12
REMARK    6  A    between atoms: C_10  and  C_13
REMARK    7  A    between atoms: C_13  and  N_14
REMARK    8  A    between atoms: N_17  and  C_18
REMARK    9  A    between atoms: C_18  and  C_19
REMARK   10  A    between atoms: N_21  and  C_22
REMARK   11  A    between atoms: C_22  and  C_23
REMARK   12  A    between atoms: C_22  and  C_24
REMARK   13  A    between atoms: C_22  and  C_25
REMARK                            x       y       z     vdW  Elec       q    Type
REMARK                         _______ _______ _______ _____ _____    ______ ____
ROOT
ATOM      1  N   UNL     1       3.474  -2.390   0.904  0.00  0.00    -0.301 N 
ATOM      2  C   UNL     1       4.768  -2.196   0.578  0.00  0.00    +0.300 C 
ATOM      3  O   UNL     1       5.535  -1.721   1.393  0.00  0.00    -0.253 OA
ATOM      4  N   UNL     1       5.210  -2.529  -0.651  0.00  0.00    -0.291 N 
ATOM      5  H   UNL     1       2.862  -2.769   0.254  0.00  0.00    +0.150 HD
ATOM      6  H   UNL     1       4.598  -2.908  -1.301  0.00  0.00    +0.151 HD
ENDROOT
BRANCH   1   7
ATOM      7  C   UNL     1       2.993  -2.028   2.239  0.00  0.00    +0.093 C 
BRANCH   7   8
ATOM      8  C   UNL     1       1.478  -2.227   2.306  0.00  0.00    -0.055 C 
ATOM      9  C   UNL     1       0.963  -1.768   3.672  0.00  0.00    -0.008 C 
ATOM     10  C   UNL     1       1.148  -3.707   2.108  0.00  0.00    -0.008 C 
BRANCH   8  16
ATOM     11  C   UNL     1       0.932   2.275   0.460  0.00  0.00    +0.005 C 
ATOM     12  C   UNL     1       0.574   0.798   0.277  0.00  0.00    -0.031 C 
ATOM     13  C   UNL     1      -0.949   0.636   0.287  0.00  0.00    +0.003 C 
ATOM     14  C   UNL     1      -1.294  -0.852   0.182  0.00  0.00    -0.031 C 
ATOM     15  C   UNL     1      -0.623  -1.609   1.330  0.00  0.00    -0.075 C 
ATOM     16  N   UNL     1       0.833  -1.436   1.250  0.00  0.00    +0.384 N 
ATOM     17  C   UNL     1       1.177  -0.019   1.421  0.00  0.00    -0.075 C 
ATOM     18  C   UNL     1      -2.811  -1.032   0.269  0.00  0.00    +0.005 C 
ATOM     19  H   UNL     1       1.159  -1.753   0.349  0.00  0.00    -0.081 HD
ENDBRANCH   8  16
ENDBRANCH   7   8
ENDBRANCH   1   7
BRANCH   4  20
ATOM     20  C   UNL     1       6.616  -2.318  -1.005  0.00  0.00    +0.201 C 
BRANCH  20  21
ATOM     21  C   UNL     1       6.850  -2.768  -2.424  0.00  0.00    +0.231 C 
ATOM     22  O   UNL     1       5.933  -3.221  -3.075  0.00  0.00    -0.274 OA
ATOM     23  N   UNL     1       8.079  -2.668  -2.969  0.00  0.00    -0.309 N 
ATOM     24  H   UNL     1       8.812  -2.306  -2.448  0.00  0.00    +0.149 HD
BRANCH  23  25
ATOM     25  C   UNL     1       8.306  -3.107  -4.348  0.00  0.00    +0.026 C 
ATOM     26  C   UNL     1       7.415  -2.298  -5.293  0.00  0.00    +0.031 C 
ATOM     27  C   UNL     1       9.774  -2.887  -4.718  0.00  0.00    +0.031 C 
ATOM     28  C   UNL     1       7.966  -4.593  -4.473  0.00  0.00    +0.031 C 
ENDBRANCH  23  25
ENDBRANCH  20  21
ENDBRANCH   4  20
TORSDOF 6
