REMARK  Name = ZINC43547717
REMARK  12 active torsions:
REMARK  status: ('A' for Active; 'I' for Inactive)
REMARK    1  A    between atoms: C_1  and  C_2
REMARK    2  A    between atoms: C_2  and  O_30
REMARK    3  A    between atoms: C_5  and  C_17
REMARK    4  A    between atoms: C_9  and  C_15
REMARK    5  A    between atoms: C_9  and  C_16
REMARK    6  A    between atoms: C_11  and  N_13
REMARK    7  A    between atoms: N_13  and  C_14
REMARK    8  A    between atoms: C_17  and  C_18
REMARK    9  A    between atoms: C_18  and  C_19
REMARK   10  A    between atoms: N_21  and  C_22
REMARK   11  A    between atoms: C_22  and  C_23
REMARK   12  A    between atoms: C_23  and  N_24
REMARK                            x       y       z     vdW  Elec       q    Type
REMARK                         _______ _______ _______ _____ _____    ______ ____
ROOT
ATOM      1  C   UNL     1      -0.084   1.533  -0.023  0.00  0.00    +0.041 C 
ATOM      2  C   UNL     1      -0.047   0.003  -0.025  0.00  0.00    +0.064 C 
ATOM      3  C   UNL     1      -1.476  -0.531  -0.060  0.00  0.00    +0.035 C 
ATOM      4  C   UNL     1      -1.507  -2.064   0.054  0.00  0.00    +0.008 C 
ATOM      5  C   UNL     1      -0.811  -2.433   1.351  0.00  0.00    -0.038 C 
ATOM      6  C   UNL     1       0.673  -1.999   1.209  0.00  0.00    +0.002 C 
ATOM      7  C   UNL     1       0.704  -0.483   1.226  0.00  0.00    +0.039 C 
ATOM      8  C   UNL     1       1.359  -2.708   2.373  0.00  0.00    -0.033 C 
ATOM      9  C   UNL     1       0.529  -3.993   2.615  0.00  0.00    -0.009 C 
ATOM     10  C   UNL     1      -0.669  -3.934   1.628  0.00  0.00    -0.065 C 
ATOM     11  C   UNL     1       1.339  -1.821   3.619  0.00  0.00    +0.011 C 
ATOM     12  C   UNL     1       2.798  -3.068   2.000  0.00  0.00    +0.011 C 
ENDROOT
BRANCH  10  13
ATOM     13  N   UNL     1      -0.361  -4.664   0.391  0.00  0.00    +0.379 N 
ATOM     14  C   UNL     1      -0.349  -6.107   0.665  0.00  0.00    -0.100 C 
ATOM     15  H   UNL     1      -1.063  -4.459  -0.304  0.00  0.00    -0.086 HD
ATOM     16  H   UNL     1       0.545  -4.379   0.049  0.00  0.00    -0.086 HD
ENDBRANCH  10  13
BRANCH   2  17
ATOM     17  O   UNL     1       0.647  -0.446  -1.190  0.00  0.00    -0.389 OA
ATOM     18  H   UNL     1       0.241  -0.166  -2.022  0.00  0.00    +0.210 HD
ENDBRANCH   2  17
BRANCH   5  19
ATOM     19  C   UNL     1      -1.482  -1.733   2.534  0.00  0.00    +0.015 C 
BRANCH  19  20
ATOM     20  C   UNL     1      -2.982  -2.037   2.522  0.00  0.00    +0.096 C 
BRANCH  20  21
ATOM     21  C   UNL     1      -3.643  -1.348   3.688  0.00  0.00    +0.213 C 
ATOM     22  O   UNL     1      -2.981  -0.679   4.452  0.00  0.00    -0.276 OA
ATOM     23  N   UNL     1      -4.971  -1.475   3.881  0.00  0.00    -0.314 N 
ATOM     24  H   UNL     1      -5.501  -2.010   3.269  0.00  0.00    +0.149 HD
BRANCH  23  25
ATOM     25  C   UNL     1      -5.614  -0.804   5.013  0.00  0.00    +0.119 C 
BRANCH  25  26
ATOM     26  C   UNL     1      -7.113  -1.109   5.002  0.00  0.00    +0.103 C 
BRANCH  26  27
ATOM     27  N   UNL     1      -7.758  -0.437   6.138  0.00  0.00    -0.297 NA
ATOM     28  C   UNL     1      -7.302  -1.006   7.415  0.00  0.00    +0.112 C 
ATOM     29  C   UNL     1      -7.951  -0.239   8.570  0.00  0.00    +0.175 C 
ATOM     30  O   UNL     1      -9.374  -0.292   8.431  0.00  0.00    -0.377 OA
ATOM     31  C   UNL     1      -9.853   0.254   7.199  0.00  0.00    +0.175 C 
ATOM     32  C   UNL     1      -9.223  -0.507   6.030  0.00  0.00    +0.112 C 
ENDBRANCH  26  27
ENDBRANCH  25  26
ENDBRANCH  23  25
ENDBRANCH  20  21
ENDBRANCH  19  20
ENDBRANCH   5  19
TORSDOF 8
