REMARK  Name = ZINC36038470
REMARK  10 active torsions:
REMARK  status: ('A' for Active; 'I' for Inactive)
REMARK    1  A    between atoms: C_1  and  C_2
REMARK    2  A    between atoms: C_2  and  C_3
REMARK    3  A    between atoms: C_2  and  C_4
REMARK    4  A    between atoms: C_4  and  C_5
REMARK    5  A    between atoms: N_9  and  C_28
REMARK    6  A    between atoms: N_14  and  S_17
REMARK    7  A    between atoms: S_17  and  C_20
REMARK    8  A    between atoms: C_23  and  O_26
REMARK    9  A    between atoms: O_26  and  C_27
REMARK   10  A    between atoms: C_28  and  C_29
REMARK                            x       y       z     vdW  Elec       q    Type
REMARK                         _______ _______ _______ _____ _____    ______ ____
ROOT
ATOM      1  C   UNL     1      -0.204  -0.362   2.488  0.00  0.00    +0.019 C 
ATOM      2  C   UNL     1       0.459  -0.912   3.732  0.00  0.00    +0.200 C 
ATOM      3  O   UNL     1       0.919  -2.027   3.856  0.00  0.00    -0.277 OA
ATOM      4  N   UNL     1       0.452   0.048   4.681  0.00  0.00    -0.313 N 
ATOM      5  C   UNL     1      -0.196   1.252   4.153  0.00  0.00    +0.006 C 
ATOM      6  N   UNL     1      -0.215   1.108   2.680  0.00  0.00    +0.401 N 
ATOM      7  C   UNL     1      -1.627   1.354   4.677  0.00  0.00    +0.023 C 
ATOM      8  C   UNL     1      -1.602   1.462   6.205  0.00  0.00    +0.109 C 
ATOM      9  N   UNL     1      -0.729   2.581   6.585  0.00  0.00    -0.177 NA
ATOM     10  C   UNL     1       0.646   2.613   6.069  0.00  0.00    +0.109 C 
ATOM     11  C   UNL     1       0.602   2.495   4.542  0.00  0.00    +0.023 C 
ATOM     12  H   UNL     1       0.607   1.527   2.271  0.00  0.00    -0.082 HD
ATOM     13  H   UNL     1      -1.054   1.512   2.292  0.00  0.00    -0.082 HD
ENDROOT
BRANCH   9  14
ATOM     14  S   UNL     1      -1.285   3.785   7.577  0.00  0.00    +0.061 S 
ATOM     15  O   UNL     1      -0.486   4.930   7.313  0.00  0.00    -0.153 OA
ATOM     16  O   UNL     1      -2.700   3.797   7.447  0.00  0.00    -0.153 OA
BRANCH  14  17
ATOM     17  C   UNL     1      -0.935   3.298   9.234  0.00  0.00    +0.106 A 
ATOM     18  C   UNL     1      -1.861   2.557   9.946  0.00  0.00    +0.032 A 
ATOM     19  C   UNL     1      -1.589   2.175  11.245  0.00  0.00    +0.047 A 
ATOM     20  C   UNL     1      -0.387   2.534  11.836  0.00  0.00    +0.120 A 
ATOM     21  C   UNL     1       0.541   3.276  11.119  0.00  0.00    +0.047 A 
ATOM     22  C   UNL     1       0.267   3.652   9.819  0.00  0.00    +0.032 A 
BRANCH  20  23
ATOM     23  O   UNL     1      -0.117   2.159  13.114  0.00  0.00    -0.495 OA
ATOM     24  C   UNL     1       1.141   2.564  13.657  0.00  0.00    +0.277 C 
ENDBRANCH  20  23
ENDBRANCH  14  17
ENDBRANCH   9  14
BRANCH   1  25
ATOM     25  C   UNL     1       0.609  -0.731   1.245  0.00  0.00    -0.004 C 
BRANCH  25  27
ATOM     26  C   UNL     1       0.798  -0.420  -1.227  0.00  0.00    +0.007 C 
ATOM     27  C   UNL     1      -0.083  -0.173  -0.001  0.00  0.00    -0.018 C 
ATOM     28  C   UNL     1      -1.431  -0.872  -0.192  0.00  0.00    +0.007 C 
ENDBRANCH  25  27
ENDBRANCH   1  25
BRANCH   4  29
ATOM     29  C   UNL     1       1.006  -0.092   6.029  0.00  0.00    +0.109 C 
BRANCH  29  30
ATOM     30  C   UNL     1       2.480   0.320   6.020  0.00  0.00    +0.006 C 
ATOM     31  C   UNL     1       3.516  -0.755   6.356  0.00  0.00    +0.005 C 
ATOM     32  C   UNL     1       3.212   0.356   7.363  0.00  0.00    +0.005 C 
ENDBRANCH  29  30
ENDBRANCH   4  29
TORSDOF 7
