REMARK  Name = ZINC58881068
REMARK  7 active torsions:
REMARK  status: ('A' for Active; 'I' for Inactive)
REMARK    1  A    between atoms: C_1  and  N_2
REMARK    2  A    between atoms: N_2  and  C_3
REMARK    3  A    between atoms: N_2  and  C_4
REMARK    4  A    between atoms: C_4  and  C_5
REMARK    5  A    between atoms: C_5  and  N_6
REMARK    6  A    between atoms: N_9  and  C_12
REMARK    7  A    between atoms: C_19  and  O_21
REMARK                            x       y       z     vdW  Elec       q    Type
REMARK                         _______ _______ _______ _____ _____    ______ ____
ROOT
ATOM      1  N   UNL     1       0.508  -0.616   3.706  0.00  0.00    -0.302 NA
ATOM      2  C   UNL     1       1.862  -0.049   3.779  0.00  0.00    +0.099 C 
ATOM      3  C   UNL     1       2.595  -0.641   4.986  0.00  0.00    +0.100 C 
ATOM      4  N   UNL     1       1.837  -0.345   6.209  0.00  0.00    -0.293 NA
ATOM      5  C   UNL     1       0.482  -0.911   6.136  0.00  0.00    +0.100 C 
ATOM      6  C   UNL     1      -0.250  -0.320   4.930  0.00  0.00    +0.099 C 
ENDROOT
BRANCH   4   7
ATOM      7  C   UNL     1       2.547  -0.832   7.399  0.00  0.00    +0.108 C 
ATOM      8  C   UNL     1       3.942  -0.169   7.446  0.00  0.00    +0.187 C 
ATOM      9  S   UNL     1       3.651   1.200   8.649  0.00  0.00    -0.027 S 
ATOM     10  O   UNL     1       3.049   2.297   7.977  0.00  0.00    -0.174 OA
ATOM     11  O   UNL     1       4.825   1.405   9.422  0.00  0.00    -0.174 OA
ATOM     12  C   UNL     1       2.381   0.343   9.680  0.00  0.00    +0.198 C 
ATOM     13  C   UNL     1       1.692  -0.547   8.625  0.00  0.00    +0.154 C 
BRANCH  13  14
ATOM     14  O   UNL     1       1.347  -1.790   9.239  0.00  0.00    -0.389 OA
ATOM     15  H   UNL     1       0.800  -1.699  10.031  0.00  0.00    +0.210 HD
ENDBRANCH  13  14
ENDBRANCH   4   7
BRANCH   1  16
ATOM     16  C   UNL     1      -0.203  -0.129   2.516  0.00  0.00    +0.066 C 
BRANCH  16  17
ATOM     17  C   UNL     1       0.482  -0.667   1.258  0.00  0.00    -0.064 C 
BRANCH  17  19
ATOM     18  C   UNL     1      -0.101   1.281  -0.015  0.00  0.00    -0.097 C 
ATOM     19  N   UNL     1      -0.228  -0.180   0.068  0.00  0.00    +0.377 N 
ATOM     20  C   UNL     1       0.354  -0.791  -1.135  0.00  0.00    -0.097 C 
ATOM     21  H   UNL     1      -1.204  -0.430   0.133  0.00  0.00    -0.083 HD
ENDBRANCH  17  19
ENDBRANCH  16  17
ENDBRANCH   1  16
TORSDOF 5
