REMARK  Name = ZINC20549275
REMARK  8 active torsions:
REMARK  status: ('A' for Active; 'I' for Inactive)
REMARK    1  A    between atoms: C_1  and  C_2
REMARK    2  A    between atoms: C_2  and  C_3
REMARK    3  A    between atoms: C_3  and  C_5
REMARK    4  A    between atoms: C_3  and  C_6
REMARK    5  A    between atoms: C_6  and  N_7
REMARK    6  A    between atoms: N_7  and  C_8
REMARK    7  A    between atoms: C_8  and  C_9
REMARK    8  A    between atoms: C_9  and  N_15
REMARK                            x       y       z     vdW  Elec       q    Type
REMARK                         _______ _______ _______ _____ _____    ______ ____
ROOT
ATOM      1  C   UNL     1      -0.047   0.592   7.308  0.00  0.00    -0.081 C 
ATOM      2  C   UNL     1       0.077  -0.918   7.094  0.00  0.00    -0.014 C 
ATOM      3  C   UNL     1      -1.319  -1.543   7.050  0.00  0.00    -0.001 C 
ATOM      4  C   UNL     1      -2.040  -1.273   8.372  0.00  0.00    -0.000 C 
ATOM      5  C   UNL     1      -2.164   0.237   8.586  0.00  0.00    -0.001 C 
ATOM      6  C   UNL     1      -0.769   0.863   8.629  0.00  0.00    -0.014 C 
ENDROOT
BRANCH   1   7
ATOM      7  N   UNL     1       1.293   1.193   7.349  0.00  0.00    +0.382 N 
ATOM      8  C   UNL     1       1.229   2.592   7.790  0.00  0.00    -0.078 C 
ATOM      9  C   UNL     1       2.647   3.140   7.961  0.00  0.00    -0.019 C 
ATOM     10  C   UNL     1       3.393   3.039   6.627  0.00  0.00    -0.004 C 
ATOM     11  C   UNL     1       3.403   1.578   6.167  0.00  0.00    -0.019 C 
ATOM     12  C   UNL     1       1.963   1.076   6.048  0.00  0.00    -0.078 C 
ATOM     13  H   UNL     1       1.892   0.637   8.086  0.00  0.00    -0.081 HD
ENDBRANCH   1   7
BRANCH   1  14
ATOM     14  C   UNL     1      -0.846   1.206   6.156  0.00  0.00    -0.095 C 
BRANCH  14  15
ATOM     15  N   UNL     1      -1.027   2.644   6.397  0.00  0.00    +0.378 N 
ATOM     16  H   UNL     1      -0.040   3.099   6.570  0.00  0.00    -0.086 HD
ATOM     17  H   UNL     1      -1.653   2.775   7.292  0.00  0.00    -0.086 HD
BRANCH  15  18
ATOM     18  C   UNL     1      -1.671   3.294   5.248  0.00  0.00    -0.080 C 
BRANCH  18  19
ATOM     19  C   UNL     1      -1.843   4.787   5.537  0.00  0.00    -0.031 C 
ATOM     20  C   UNL     1      -2.814   4.972   6.704  0.00  0.00    +0.005 C 
BRANCH  19  22
ATOM     21  C   UNL     1      -2.453   6.995   4.539  0.00  0.00    +0.004 C 
ATOM     22  C   UNL     1      -2.399   5.485   4.294  0.00  0.00    -0.002 C 
ENDBRANCH  19  22
ENDBRANCH  18  19
ENDBRANCH  15  18
ENDBRANCH  14  15
ENDBRANCH   1  14
TORSDOF 6
