REMARK  Name = ZINC60343127
REMARK  12 active torsions:
REMARK  status: ('A' for Active; 'I' for Inactive)
REMARK    1  A    between atoms: C_1  and  C_2
REMARK    2  A    between atoms: C_2  and  C_4
REMARK    3  A    between atoms: C_2  and  N_27
REMARK    4  A    between atoms: N_10  and  C_11
REMARK    5  A    between atoms: C_11  and  C_12
REMARK    6  A    between atoms: C_21  and  S_23
REMARK    7  A    between atoms: S_23  and  N_26
REMARK    8  A    between atoms: C_28  and  O_30
REMARK    9  A    between atoms: O_30  and  C_31
REMARK   10  A    between atoms: C_31  and  C_32
REMARK   11  A    between atoms: C_31  and  C_33
REMARK   12  A    between atoms: C_31  and  C_34
REMARK                            x       y       z     vdW  Elec       q    Type
REMARK                         _______ _______ _______ _____ _____    ______ ____
ROOT
ATOM      1  C   UNL     1       0.840  -0.379  -1.292  0.00  0.00    -0.047 C 
ATOM      2  C   UNL     1       0.865  -1.903  -1.430  0.00  0.00    -0.014 C 
ATOM      3  C   UNL     1       1.581  -2.280  -2.730  0.00  0.00    -0.003 C 
ATOM      4  C   UNL     1       0.872  -1.603  -3.907  0.00  0.00    -0.019 C 
ATOM      5  C   UNL     1       0.847  -0.090  -3.677  0.00  0.00    -0.078 C 
ATOM      6  N   UNL     1       0.126   0.207  -2.433  0.00  0.00    +0.388 N 
ATOM      7  H   UNL     1      -0.804  -0.182  -2.483  0.00  0.00    -0.081 HD
ENDROOT
BRANCH   1   9
ATOM      8  C   UNL     1       0.904  -0.555   1.199  0.00  0.00    +0.026 C 
ATOM      9  C   UNL     1       0.126   0.003   0.006  0.00  0.00    +0.060 C 
BRANCH   9  10
ATOM     10  N   UNL     1      -1.228  -0.556   0.001  0.00  0.00    -0.280 N 
ATOM     11  C   UNL     1      -2.198   0.021   0.738  0.00  0.00    +0.401 C 
ATOM     12  O   UNL     1      -1.949   1.005   1.407  0.00  0.00    -0.226 OA
ATOM     13  H   UNL     1      -1.427  -1.341  -0.532  0.00  0.00    +0.152 HD
BRANCH  11  14
ATOM     14  O   UNL     1      -3.443  -0.493   0.734  0.00  0.00    -0.445 OA
BRANCH  14  15
ATOM     15  C   UNL     1      -4.421   0.169   1.538  0.00  0.00    +0.107 C 
ATOM     16  C   UNL     1      -4.572   1.617   1.068  0.00  0.00    +0.055 C 
ATOM     17  C   UNL     1      -5.763  -0.553   1.407  0.00  0.00    +0.055 C 
ATOM     18  C   UNL     1      -3.974   0.153   3.002  0.00  0.00    +0.055 C 
ENDBRANCH  14  15
ENDBRANCH  11  14
ENDBRANCH   9  10
ENDBRANCH   1   9
BRANCH   6  19
ATOM     19  C   UNL     1       0.036   1.662  -2.258  0.00  0.00    +0.020 C 
BRANCH  19  20
ATOM     20  C   UNL     1      -0.844   2.245  -3.334  0.00  0.00    +0.203 C 
ATOM     21  O   UNL     1      -1.346   1.518  -4.166  0.00  0.00    -0.277 OA
ATOM     22  N   UNL     1      -1.072   3.572  -3.373  0.00  0.00    -0.272 N 
ATOM     23  C   UNL     1      -0.518   4.548  -2.430  0.00  0.00    +0.118 C 
ATOM     24  C   UNL     1      -1.065   5.909  -2.890  0.00  0.00    +0.056 C 
ATOM     25  C   UNL     1      -1.915   5.589  -4.098  0.00  0.00    -0.023 A 
ATOM     26  C   UNL     1      -1.868   4.222  -4.321  0.00  0.00    +0.040 A 
ATOM     27  C   UNL     1      -2.579   3.685  -5.397  0.00  0.00    +0.026 A 
ATOM     28  C   UNL     1      -3.312   4.508  -6.225  0.00  0.00    +0.030 A 
ATOM     29  C   UNL     1      -3.350   5.871  -5.996  0.00  0.00    +0.105 A 
ATOM     30  C   UNL     1      -2.655   6.409  -4.928  0.00  0.00    +0.034 A 
BRANCH  29  31
ATOM     31  S   UNL     1      -4.288   6.919  -7.057  0.00  0.00    +0.056 S 
ATOM     32  O   UNL     1      -3.719   8.217  -6.954  0.00  0.00    -0.153 OA
ATOM     33  O   UNL     1      -4.409   6.237  -8.298  0.00  0.00    -0.153 OA
BRANCH  31  34
ATOM     34  N   UNL     1      -5.814   7.019  -6.422  0.00  0.00    -0.204 NA
ATOM     35  H   UNL     1      -6.342   7.822  -6.554  0.00  0.00    +0.144 HD
ATOM     36  H   UNL     1      -6.179   6.276  -5.917  0.00  0.00    +0.144 HD
ENDBRANCH  31  34
ENDBRANCH  29  31
ENDBRANCH  19  20
ENDBRANCH   6  19
TORSDOF 8
