REMARK  Name = ZINC00052195
REMARK  3 active torsions:
REMARK  status: ('A' for Active; 'I' for Inactive)
REMARK    1  A    between atoms: C_3  and  C_6
REMARK    2  A    between atoms: C_8  and  C_19
REMARK    3  A    between atoms: C_9  and  N_18
REMARK                            x       y       z     vdW  Elec       q    Type
REMARK                         _______ _______ _______ _____ _____    ______ ____
ROOT
ATOM      1  C   UNL     1       3.838   1.841  -0.521  0.00  0.00    +0.137 C 
ATOM      2  C   UNL     1       4.712   1.148  -1.529  0.00  0.00    +0.101 C 
ATOM      3  C   UNL     1       4.342  -0.046  -2.052  0.00  0.00    +0.198 C 
ATOM      4  O   UNL     1       3.197  -0.643  -1.688  0.00  0.00    -0.445 OA
ATOM      5  C   UNL     1       2.201   0.087  -1.153  0.00  0.00    +0.115 C 
ATOM      6  C   UNL     1       2.438   1.279  -0.575  0.00  0.00    +0.049 C 
ATOM      7  C   UNL     1       1.398   2.034  -0.000  0.00  0.00    +0.163 C 
ATOM      8  O   UNL     1       1.649   3.115   0.495  0.00  0.00    -0.292 OA
ATOM      9  C   UNL     1      -0.019   1.528   0.010  0.00  0.00    +0.080 C 
ATOM     10  C   UNL     1       0.002  -0.004   0.002  0.00  0.00    +0.016 C 
ATOM     11  C   UNL     1       0.798  -0.471  -1.218  0.00  0.00    +0.075 C 
ENDROOT
BRANCH   1  14
ATOM     12  C   UNL     1       5.279   1.962   2.869  0.00  0.00    +0.041 A 
ATOM     13  C   UNL     1       4.823   2.602   1.693  0.00  0.00    +0.045 A 
ATOM     14  C   UNL     1       4.408   1.632   0.858  0.00  0.00    +0.118 A 
ATOM     15  O   UNL     1       4.582   0.447   1.464  0.00  0.00    -0.467 OA
ATOM     16  C   UNL     1       5.116   0.640   2.682  0.00  0.00    +0.195 A 
ENDBRANCH   1  14
BRANCH   3  17
ATOM     17  N   UNL     1       5.155  -0.657  -2.974  0.00  0.00    -0.328 N 
ATOM     18  H   UNL     1       5.985  -0.234  -3.244  0.00  0.00    +0.145 HD
ATOM     19  H   UNL     1       4.900  -1.512  -3.354  0.00  0.00    +0.145 HD
ENDBRANCH   3  17
BRANCH   2  20
ATOM     20  C   UNL     1       5.944   1.754  -1.939  0.00  0.00    +0.101 C 
ATOM     21  N   UNL     1       6.920   2.234  -2.264  0.00  0.00    -0.191 NA
ENDBRANCH   2  20
TORSDOF 3
