REMARK  Name = ZINC20455745
REMARK  6 active torsions:
REMARK  status: ('A' for Active; 'I' for Inactive)
REMARK    1  A    between atoms: C_1  and  C_2
REMARK    2  A    between atoms: C_2  and  N_3
REMARK    3  A    between atoms: N_3  and  C_4
REMARK    4  A    between atoms: N_3  and  C_5
REMARK    5  A    between atoms: C_14  and  O_16
REMARK    6  A    between atoms: C_22  and  C_24
REMARK                            x       y       z     vdW  Elec       q    Type
REMARK                         _______ _______ _______ _____ _____    ______ ____
ROOT
ATOM      1  C   UNL     1       1.326   9.695  -0.490  0.00  0.00    -0.008 C 
ATOM      2  C   UNL     1       1.656   9.660  -1.968  0.00  0.00    -0.055 A 
ATOM      3  C   UNL     1       1.779  10.691  -2.884  0.00  0.00    +0.002 A 
ATOM      4  C   UNL     1       2.093  10.418  -4.201  0.00  0.00    +0.000 A 
ATOM      5  C   UNL     1       2.284   9.110  -4.607  0.00  0.00    +0.000 A 
ATOM      6  C   UNL     1       2.161   8.080  -3.695  0.00  0.00    +0.004 A 
ATOM      7  C   UNL     1       1.847   8.352  -2.373  0.00  0.00    -0.037 A 
ATOM      8  C   UNL     1       1.658   7.424  -1.197  0.00  0.00    +0.023 C 
ATOM      9  C   UNL     1       1.759   8.316   0.054  0.00  0.00    +0.116 C 
ATOM     10  C   UNL     1       2.757   6.366  -1.173  0.00  0.00    +0.033 C 
ATOM     11  C   UNL     1       2.581   5.478   0.064  0.00  0.00    +0.109 C 
ATOM     12  N   UNL     1       1.212   4.945   0.072  0.00  0.00    -0.297 N 
ATOM     13  C   UNL     1       0.086   5.883  -0.025  0.00  0.00    +0.109 C 
ATOM     14  C   UNL     1       0.281   6.768  -1.256  0.00  0.00    +0.033 C 
ATOM     15  C   UNL     1       0.994   3.618   0.161  0.00  0.00    +0.248 C 
ATOM     16  O   UNL     1       1.929   2.857   0.312  0.00  0.00    -0.270 OA
ENDROOT
BRANCH  15  17
ATOM     17  C   UNL     1      -0.384   3.088   0.074  0.00  0.00    +0.056 A 
ATOM     18  C   UNL     1      -1.424   3.689   0.793  0.00  0.00    +0.016 A 
ATOM     19  C   UNL     1      -2.695   3.156   0.678  0.00  0.00    +0.022 A 
ATOM     20  C   UNL     1      -2.896   2.052  -0.132  0.00  0.00    +0.133 A 
ATOM     21  N   UNL     1      -1.897   1.509  -0.803  0.00  0.00    -0.146 N 
ATOM     22  O   UNL     1      -2.151   0.384  -1.624  0.00  0.00    -0.164 OA
ATOM     23  C   UNL     1      -0.669   1.981  -0.726  0.00  0.00    +0.146 A 
ENDBRANCH  15  17
BRANCH   1  24
ATOM     24  N   UNL     1      -0.117   9.890  -0.295  0.00  0.00    +0.384 N 
ATOM     25  C   UNL     1      -0.602  11.041  -1.068  0.00  0.00    -0.095 C 
ATOM     26  H   UNL     1      -0.632   8.992  -0.666  0.00  0.00    -0.081 HD
BRANCH  24  28
ATOM     27  C   UNL     1      -1.941   9.832   1.338  0.00  0.00    -0.017 C 
ATOM     28  C   UNL     1      -0.439  10.039   1.131  0.00  0.00    -0.082 C 
ENDBRANCH  24  28
ENDBRANCH   1  24
BRANCH   9  29
ATOM     29  O   UNL     1       3.103   8.361   0.539  0.00  0.00    -0.392 OA
ATOM     30  H   UNL     1       3.565   7.456   0.961  0.00  0.00    +0.210 HD
ENDBRANCH   9  29
TORSDOF 4
