REMARK  Name = ZINC26300507
REMARK  8 active torsions:
REMARK  status: ('A' for Active; 'I' for Inactive)
REMARK    1  A    between atoms: C_1  and  C_2
REMARK    2  A    between atoms: C_9  and  C_16
REMARK    3  A    between atoms: C_11  and  O_15
REMARK    4  A    between atoms: C_16  and  N_17
REMARK    5  A    between atoms: N_17  and  C_18
REMARK    6  A    between atoms: N_17  and  C_19
REMARK    7  A    between atoms: C_19  and  C_20
REMARK    8  A    between atoms: N_22  and  C_23
REMARK                            x       y       z     vdW  Elec       q    Type
REMARK                         _______ _______ _______ _____ _____    ______ ____
ROOT
ATOM      1  C   UNL     1      -0.038   1.450   0.103  0.00  0.00    +0.109 C 
ATOM      2  C   UNL     1       0.229  -0.029  -0.007  0.00  0.00    +0.214 C 
ATOM      3  O   UNL     1       0.656  -0.644   0.954  0.00  0.00    -0.276 OA
ATOM      4  N   UNL     1       0.000  -0.657  -1.144  0.00  0.00    -0.286 N 
ATOM      5  C   UNL     1       0.106  -2.013  -1.205  0.00  0.00    +0.037 A 
ATOM      6  C   UNL     1       0.115  -2.768  -0.019  0.00  0.00    +0.024 A 
ATOM      7  C   UNL     1       0.220  -4.122  -0.067  0.00  0.00    +0.013 A 
ATOM      8  C   UNL     1       0.320  -4.775  -1.309  0.00  0.00    +0.019 A 
ATOM      9  C   UNL     1       0.429  -6.179  -1.380  0.00  0.00    -0.047 A 
ATOM     10  C   UNL     1       0.524  -6.771  -2.624  0.00  0.00    +0.090 A 
ATOM     11  C   UNL     1       0.510  -5.985  -3.767  0.00  0.00    +0.285 A 
ATOM     12  O   UNL     1       0.406  -4.653  -3.695  0.00  0.00    -0.425 OA
ATOM     13  C   UNL     1       0.311  -4.024  -2.506  0.00  0.00    +0.141 A 
ATOM     14  C   UNL     1       0.199  -2.646  -2.446  0.00  0.00    +0.070 A 
ATOM     15  H   UNL     1      -0.243  -0.153  -1.936  0.00  0.00    +0.155 HD
ENDROOT
BRANCH  11  16
ATOM     16  O   UNL     1       0.604  -6.575  -4.974  0.00  0.00    -0.480 OA
ATOM     17  H   UNL     1       0.587  -5.955  -5.717  0.00  0.00    +0.295 HD
ENDBRANCH  11  16
BRANCH   9  18
ATOM     18  C   UNL     1       0.443  -7.016  -0.127  0.00  0.00    -0.042 C 
BRANCH  18  19
ATOM     19  N   UNL     1      -0.917  -7.491   0.159  0.00  0.00    +0.386 N 
ATOM     20  C   UNL     1      -1.353  -8.400  -0.909  0.00  0.00    -0.095 C 
ATOM     21  H   UNL     1      -1.546  -6.704   0.208  0.00  0.00    -0.081 HD
BRANCH  19  22
ATOM     22  C   UNL     1      -0.927  -8.205   1.443  0.00  0.00    +0.019 C 
BRANCH  22  23
ATOM     23  C   UNL     1      -2.341  -8.586   1.796  0.00  0.00    +0.197 C 
ATOM     24  O   UNL     1      -3.252  -8.292   1.051  0.00  0.00    -0.278 OA
ATOM     25  N   UNL     1      -2.595  -9.254   2.939  0.00  0.00    -0.314 N 
ATOM     26  H   UNL     1      -1.866  -9.489   3.535  0.00  0.00    +0.149 HD
BRANCH  25  27
ATOM     27  C   UNL     1      -3.970  -9.624   3.282  0.00  0.00    +0.073 C 
ATOM     28  C   UNL     1      -4.420  -9.408   4.728  0.00  0.00    +0.024 C 
ATOM     29  C   UNL     1      -4.168 -10.825   4.209  0.00  0.00    +0.024 C 
ENDBRANCH  25  27
ENDBRANCH  22  23
ENDBRANCH  19  22
ENDBRANCH  18  19
ENDBRANCH   9  18
TORSDOF 6
