REMARK  Name = ZINC16904640
REMARK  5 active torsions:
REMARK  status: ('A' for Active; 'I' for Inactive)
REMARK    1  A    between atoms: C_1  and  C_2
REMARK    2  A    between atoms: C_5  and  N_9
REMARK    3  A    between atoms: C_6  and  O_8
REMARK    4  A    between atoms: C_15  and  C_16
REMARK    5  A    between atoms: N_20  and  C_21
REMARK                            x       y       z     vdW  Elec       q    Type
REMARK                         _______ _______ _______ _____ _____    ______ ____
ROOT
ATOM      1  N   UNL     1      -1.307   4.636   0.023  0.00  0.00    -0.222 NA
ATOM      2  C   UNL     1      -0.626   3.520  -0.112  0.00  0.00    +0.166 C 
ATOM      3  N   UNL     1       0.740   3.340  -0.086  0.00  0.00    -0.260 N 
ATOM      4  C   UNL     1       1.264   2.136  -0.240  0.00  0.00    +0.256 C 
ATOM      5  O   UNL     1       2.468   1.959  -0.220  0.00  0.00    -0.269 OA
ATOM      6  C   UNL     1       0.327   1.019  -0.438  0.00  0.00    +0.079 C 
ATOM      7  C   UNL     1       0.588  -0.307  -0.620  0.00  0.00    +0.046 C 
ATOM      8  S   UNL     1      -1.245   1.867  -0.382  0.00  0.00    -0.049 S 
ATOM      9  H   UNL     1       1.323   4.104   0.047  0.00  0.00    +0.157 HD
ENDROOT
BRANCH   1  14
ATOM     10  C   UNL     1      -6.937   4.578  -0.435  0.00  0.00    +0.044 C 
ATOM     11  C   UNL     1      -5.435   4.595  -0.315  0.00  0.00    -0.047 A 
ATOM     12  C   UNL     1      -4.803   3.702   0.531  0.00  0.00    +0.005 A 
ATOM     13  C   UNL     1      -3.427   3.706   0.644  0.00  0.00    +0.032 A 
ATOM     14  C   UNL     1      -2.672   4.623  -0.088  0.00  0.00    +0.108 A 
ATOM     15  C   UNL     1      -3.317   5.526  -0.943  0.00  0.00    +0.142 A 
ATOM     16  C   UNL     1      -4.696   5.505  -1.050  0.00  0.00    +0.051 A 
BRANCH  15  17
ATOM     17  O   UNL     1      -2.590   6.420  -1.665  0.00  0.00    -0.505 OA
ATOM     18  H   UNL     1      -2.320   6.095  -2.536  0.00  0.00    +0.292 HD
ENDBRANCH  15  17
ENDBRANCH   1  14
BRANCH   7  19
ATOM     19  C   UNL     1      -0.477  -1.237  -0.673  0.00  0.00    +0.043 A 
ATOM     20  C   UNL     1      -1.827  -0.937  -0.665  0.00  0.00    +0.027 A 
ATOM     21  C   UNL     1      -2.519  -2.150  -0.732  0.00  0.00    +0.020 A 
ATOM     22  C   UNL     1      -1.605  -3.149  -0.771  0.00  0.00    +0.086 A 
ATOM     23  N   UNL     1      -0.358  -2.607  -0.735  0.00  0.00    -0.350 N 
ATOM     24  C   UNL     1       0.900  -3.357  -0.759  0.00  0.00    +0.149 C 
ENDBRANCH   7  19
TORSDOF 3
