REMARK  Name = ZINC13565857
REMARK  6 active torsions:
REMARK  status: ('A' for Active; 'I' for Inactive)
REMARK    1  A    between atoms: C_1  and  C_2
REMARK    2  A    between atoms: C_3  and  C_23
REMARK    3  A    between atoms: N_10  and  C_11
REMARK    4  A    between atoms: C_11  and  C_12
REMARK    5  A    between atoms: C_15  and  C_18
REMARK    6  A    between atoms: C_21  and  C_22
REMARK                            x       y       z     vdW  Elec       q    Type
REMARK                         _______ _______ _______ _____ _____    ______ ____
ROOT
ATOM      1  C   UNL     1       0.002  -0.004   0.002  0.00  0.00    +0.046 C 
ATOM      2  C   UNL     1      -0.018   1.503   0.010  0.00  0.00    -0.026 A 
ATOM      3  C   UNL     1      -1.213   2.176   0.020  0.00  0.00    -0.032 A 
ATOM      4  C   UNL     1      -1.183   3.574   0.032  0.00  0.00    +0.063 A 
ATOM      5  C   UNL     1       0.061   4.237   0.023  0.00  0.00    +0.158 A 
ATOM      6  N   UNL     1      -0.211   5.578   0.033  0.00  0.00    -0.258 N 
ATOM      7  H   UNL     1       0.474   6.306   0.031  0.00  0.00    +0.191 HD
ATOM      8  N   UNL     1      -1.595   5.771   0.048  0.00  0.00    -0.157 NA
ATOM      9  C   UNL     1      -2.208   4.617   0.047  0.00  0.00    +0.150 A 
ATOM     10  N   UNL     1      -3.591   4.416   0.060  0.00  0.00    -0.323 N 
ATOM     11  N   UNL     1       1.185   3.532   0.009  0.00  0.00    -0.233 NA
ATOM     12  C   UNL     1       1.171   2.216   0.003  0.00  0.00    +0.044 A 
ATOM     13  C   UNL     1       2.478   1.467  -0.013  0.00  0.00    +0.066 C 
ATOM     14  C   UNL     1      -2.522   1.430   0.022  0.00  0.00    +0.045 C 
ATOM     15  H   UNL     1      -3.950   3.515   0.058  0.00  0.00    +0.148 HD
ENDROOT
BRANCH  10  16
ATOM     16  C   UNL     1      -4.498   5.566   0.076  0.00  0.00    +0.138 C 
BRANCH  16  17
ATOM     17  C   UNL     1      -5.925   5.080   0.087  0.00  0.00    -0.030 A 
ATOM     18  C   UNL     1      -6.590   4.871  -1.108  0.00  0.00    +0.006 A 
ATOM     19  C   UNL     1      -7.895   4.422  -1.105  0.00  0.00    +0.019 A 
ATOM     20  C   UNL     1      -8.546   4.189   0.108  0.00  0.00    +0.052 A 
ATOM     21  C   UNL     1      -7.870   4.407   1.310  0.00  0.00    +0.019 A 
ATOM     22  C   UNL     1      -6.564   4.851   1.292  0.00  0.00    +0.006 A 
BRANCH  20  23
ATOM     23  C   UNL     1      -9.902   3.727   0.119  0.00  0.00    +0.099 C 
ATOM     24  N   UNL     1     -10.977   3.361   0.127  0.00  0.00    -0.191 NA
ENDBRANCH  20  23
ENDBRANCH  16  17
ENDBRANCH  10  16
TORSDOF 3
