REMARK  Name = ZINC49789905
REMARK  11 active torsions:
REMARK  status: ('A' for Active; 'I' for Inactive)
REMARK    1  A    between atoms: C_1  and  N_2
REMARK    2  A    between atoms: N_2  and  C_3
REMARK    3  A    between atoms: N_2  and  C_4
REMARK    4  A    between atoms: C_4  and  C_6
REMARK    5  A    between atoms: C_4  and  C_20
REMARK    6  A    between atoms: C_6  and  N_7
REMARK    7  A    between atoms: N_10  and  N_11
REMARK    8  A    between atoms: N_11  and  C_12
REMARK    9  A    between atoms: C_16  and  C_18
REMARK   10  A    between atoms: C_25  and  O_26
REMARK   11  A    between atoms: O_26  and  C_27
REMARK                            x       y       z     vdW  Elec       q    Type
REMARK                         _______ _______ _______ _____ _____    ______ ____
ROOT
ATOM      1  N   UNL     1      -0.700  -2.599  -0.643  0.00  0.00    -0.299 N 
ATOM      2  C   UNL     1      -0.540  -3.936  -0.588  0.00  0.00    +0.316 C 
ATOM      3  O   UNL     1      -1.047  -4.571   0.317  0.00  0.00    -0.251 OA
ATOM      4  N   UNL     1       0.181  -4.569  -1.534  0.00  0.00    -0.220 N 
ATOM      5  H   UNL     1      -0.296  -2.092  -1.365  0.00  0.00    +0.150 HD
ATOM      6  H   UNL     1       0.296  -5.531  -1.494  0.00  0.00    +0.174 HD
ENDROOT
BRANCH   4   7
ATOM      7  N   UNL     1       0.764  -3.837  -2.576  0.00  0.00    -0.263 N 
ATOM      8  H   UNL     1       0.650  -2.874  -2.616  0.00  0.00    +0.170 HD
BRANCH   7   9
ATOM      9  C   UNL     1       1.512  -4.492  -3.557  0.00  0.00    +0.046 A 
ATOM     10  C   UNL     1       1.672  -5.872  -3.503  0.00  0.00    +0.024 A 
ATOM     11  C   UNL     1       2.411  -6.526  -4.471  0.00  0.00    +0.003 A 
ATOM     12  C   UNL     1       2.995  -5.814  -5.498  0.00  0.00    +0.019 A 
ATOM     13  C   UNL     1       2.840  -4.427  -5.563  0.00  0.00    +0.054 A 
ATOM     14  C   UNL     1       2.090  -3.768  -4.588  0.00  0.00    +0.043 A 
BRANCH  13  15
ATOM     15  C   UNL     1       3.445  -3.685  -6.628  0.00  0.00    +0.099 C 
ATOM     16  N   UNL     1       3.925  -3.097  -7.473  0.00  0.00    -0.191 NA
ENDBRANCH  13  15
ENDBRANCH   7   9
ENDBRANCH   4   7
BRANCH   1  17
ATOM     17  C   UNL     1      -1.484  -1.911   0.386  0.00  0.00    +0.095 C 
BRANCH  17  18
ATOM     18  C   UNL     1      -1.403  -0.400   0.163  0.00  0.00    -0.017 C 
BRANCH  18  19
ATOM     19  C   UNL     1      -2.080  -0.046  -1.136  0.00  0.00    -0.018 A 
ATOM     20  C   UNL     1      -1.335   0.071  -2.294  0.00  0.00    +0.005 A 
ATOM     21  C   UNL     1      -1.955   0.395  -3.486  0.00  0.00    +0.000 A 
ATOM     22  C   UNL     1      -3.322   0.603  -3.523  0.00  0.00    +0.004 A 
ATOM     23  C   UNL     1      -4.071   0.487  -2.369  0.00  0.00    +0.046 A 
ATOM     24  C   UNL     1      -3.452   0.156  -1.172  0.00  0.00    +0.122 A 
BRANCH  24  25
ATOM     25  O   UNL     1      -4.187   0.036  -0.035  0.00  0.00    -0.495 OA
ATOM     26  C   UNL     1      -5.594   0.258  -0.147  0.00  0.00    +0.277 C 
ENDBRANCH  24  25
ENDBRANCH  18  19
BRANCH  18  28
ATOM     27  C   UNL     1       0.083   1.470  -0.061  0.00  0.00    -0.096 C 
ATOM     28  N   UNL     1       0.006   0.013   0.109  0.00  0.00    +0.382 N 
ATOM     29  C   UNL     1       0.676  -0.371   1.359  0.00  0.00    -0.096 C 
ATOM     30  H   UNL     1       0.460  -0.441  -0.669  0.00  0.00    -0.082 HD
ENDBRANCH  18  28
ENDBRANCH  17  18
ENDBRANCH   1  17
TORSDOF 8
