REMARK  Name = ZINC37332469
REMARK  3 active torsions:
REMARK  status: ('A' for Active; 'I' for Inactive)
REMARK    1  A    between atoms: C_5  and  C_7
REMARK    2  A    between atoms: C_7  and  C_9
REMARK    3  A    between atoms: C_7  and  N_21
REMARK                            x       y       z     vdW  Elec       q    Type
REMARK                         _______ _______ _______ _____ _____    ______ ____
ROOT
ATOM      1  C   UNL     1       1.228  -2.186  -0.022  0.00  0.00    -0.009 C 
ENDROOT
BRANCH   1   2
ATOM      2  C   UNL     1       1.386  -2.577   1.425  0.00  0.00    -0.040 A 
ATOM      3  C   UNL     1       0.296  -3.047   2.135  0.00  0.00    +0.052 A 
ATOM      4  C   UNL     1       0.445  -3.406   3.464  0.00  0.00    +0.162 A 
ATOM      5  C   UNL     1       1.684  -3.293   4.080  0.00  0.00    +0.163 A 
ATOM      6  C   UNL     1       2.773  -2.822   3.367  0.00  0.00    +0.065 A 
ATOM      7  C   UNL     1       2.622  -2.470   2.037  0.00  0.00    +0.023 A 
ATOM      8 BR   UNL     1       4.108  -1.834   1.055  0.00  0.00    -0.050 Br
ATOM      9  O   UNL     1       1.821  -3.650   5.390  0.00  0.00    -0.488 OA
ATOM     10  C   UNL     1       1.155  -2.813   6.338  0.00  0.00    +0.232 C 
ATOM     11  C   UNL     1      -0.300  -3.225   6.494  0.00  0.00    +0.082 C 
ATOM     12  C   UNL     1      -1.100  -3.018   5.217  0.00  0.00    +0.232 C 
ATOM     13  O   UNL     1      -0.622  -3.872   4.176  0.00  0.00    -0.488 OA
ENDBRANCH   1   2
BRANCH   1  18
ATOM     14  C   UNL     1      -2.314  -2.847  -1.149  0.00  0.00    +0.000 A 
ATOM     15  C   UNL     1      -2.916  -1.627  -0.902  0.00  0.00    +0.003 A 
ATOM     16  C   UNL     1      -2.178  -0.587  -0.371  0.00  0.00    +0.038 A 
ATOM     17  C   UNL     1      -0.835  -0.767  -0.085  0.00  0.00    +0.125 A 
ATOM     18  C   UNL     1      -0.233  -1.989  -0.332  0.00  0.00    -0.022 A 
ATOM     19  C   UNL     1      -0.974  -3.028  -0.864  0.00  0.00    +0.005 A 
ATOM     20  F   UNL     1      -0.112   0.250   0.435  0.00  0.00    -0.205 F 
ENDBRANCH   1  18
BRANCH   1  21
ATOM     21  N   UNL     1       1.771  -3.249  -0.878  0.00  0.00    +0.385 N 
ATOM     22  H   UNL     1       1.665  -2.987  -1.847  0.00  0.00    -0.089 HD
ATOM     23  H   UNL     1       2.750  -3.381  -0.671  0.00  0.00    -0.089 HD
ATOM     24  H   UNL     1       1.272  -4.108  -0.706  0.00  0.00    -0.089 HD
ENDBRANCH   1  21
TORSDOF 3
