REMARK  Name = ZINC40234256
REMARK  8 active torsions:
REMARK  status: ('A' for Active; 'I' for Inactive)
REMARK    1  A    between atoms: C_1  and  C_2
REMARK    2  A    between atoms: N_4  and  C_5
REMARK    3  A    between atoms: C_5  and  C_6
REMARK    4  A    between atoms: C_6  and  N_7
REMARK    5  A    between atoms: C_8  and  C_10
REMARK    6  A    between atoms: C_13  and  C_15
REMARK    7  A    between atoms: C_16  and  C_17
REMARK    8  A    between atoms: C_17  and  N_18
REMARK                            x       y       z     vdW  Elec       q    Type
REMARK                         _______ _______ _______ _____ _____    ______ ____
ROOT
ATOM      1  C   UNL     1      -3.689  -6.307   0.003  0.00  0.00    +0.075 A 
ATOM      2  C   UNL     1      -4.758  -7.194   0.003  0.00  0.00    +0.022 A 
ATOM      3  C   UNL     1      -4.498  -8.534  -0.005  0.00  0.00    +0.025 A 
ATOM      4  C   UNL     1      -3.175  -8.957  -0.013  0.00  0.00    +0.063 A 
ATOM      5  S   UNL     1      -2.285  -7.410  -0.017  0.00  0.00    -0.075 S 
ENDROOT
BRANCH   1   7
ATOM      6  N   UNL     1      -2.551  -4.153   0.004  0.00  0.00    -0.309 N 
ATOM      7  C   UNL     1      -3.709  -4.843   0.011  0.00  0.00    +0.251 C 
ATOM      8  O   UNL     1      -4.772  -4.248   0.025  0.00  0.00    -0.270 OA
ATOM      9  H   UNL     1      -1.705  -4.627  -0.006  0.00  0.00    +0.149 HD
BRANCH   6  10
ATOM     10  C   UNL     1      -2.571  -2.688   0.012  0.00  0.00    +0.123 C 
BRANCH  10  11
ATOM     11  C   UNL     1      -1.136  -2.159   0.001  0.00  0.00    +0.123 C 
BRANCH  11  15
ATOM     12  C   UNL     1      -0.018   1.503   0.010  0.00  0.00    +0.109 C 
ATOM     13  C   UNL     1       0.002  -0.004   0.002  0.00  0.00    +0.210 C 
ATOM     14  O   UNL     1       1.060  -0.596  -0.011  0.00  0.00    -0.276 OA
ATOM     15  N   UNL     1      -1.156  -0.694   0.009  0.00  0.00    -0.314 N 
ATOM     16  H   UNL     1      -2.002  -0.220   0.020  0.00  0.00    +0.149 HD
ENDBRANCH  11  15
ENDBRANCH  10  11
ENDBRANCH   6  10
ENDBRANCH   1   7
BRANCH   4  17
ATOM     17  C   UNL     1      -2.658 -10.293  -0.023  0.00  0.00    -0.061 C 
ATOM     18  C   UNL     1      -2.234 -11.387  -0.030  0.00  0.00    -0.116 C 
BRANCH  18  19
ATOM     19  C   UNL     1      -1.702 -12.760  -0.040  0.00  0.00    +0.005 C 
BRANCH  19  20
ATOM     20  N   UNL     1      -0.234 -12.716  -0.046  0.00  0.00    +0.385 N 
ATOM     21  H   UNL     1       0.084 -12.226  -0.869  0.00  0.00    -0.089 HD
ATOM     22  H   UNL     1       0.091 -12.235   0.779  0.00  0.00    -0.089 HD
ATOM     23  H   UNL     1       0.130 -13.657  -0.053  0.00  0.00    -0.089 HD
ENDBRANCH  19  20
ENDBRANCH  18  19
ENDBRANCH   4  17
TORSDOF 7
