REMARK  Name = ZINC53862777
REMARK  10 active torsions:
REMARK  status: ('A' for Active; 'I' for Inactive)
REMARK    1  A    between atoms: C_1  and  C_2
REMARK    2  A    between atoms: C_2  and  C_3
REMARK    3  A    between atoms: C_3  and  C_4
REMARK    4  A    between atoms: C_8  and  N_23
REMARK    5  A    between atoms: C_10  and  C_13
REMARK    6  A    between atoms: C_13  and  N_14
REMARK    7  A    between atoms: N_14  and  C_15
REMARK    8  A    between atoms: N_14  and  C_16
REMARK    9  A    between atoms: C_19  and  O_22
REMARK   10  A    between atoms: N_23  and  C_24
REMARK                            x       y       z     vdW  Elec       q    Type
REMARK                         _______ _______ _______ _____ _____    ______ ____
ROOT
ATOM      1  C   UNL     1      -1.413  -2.063   0.004  0.00  0.00    -0.011 C 
ATOM      2  C   UNL     1      -0.784  -2.572   1.303  0.00  0.00    +0.002 C 
ATOM      3  C   UNL     1      -1.607  -2.080   2.495  0.00  0.00    -0.015 C 
ATOM      4  C   UNL     1      -3.038  -2.609   2.380  0.00  0.00    -0.068 C 
ATOM      5  C   UNL     1      -3.667  -2.100   1.082  0.00  0.00    -0.008 C 
ATOM      6  C   UNL     1      -2.844  -2.592  -0.110  0.00  0.00    +0.007 C 
ENDROOT
BRANCH   4   7
ATOM      7  N   UNL     1      -3.828  -2.136   3.525  0.00  0.00    +0.379 N 
ATOM      8  C   UNL     1      -3.295  -2.721   4.763  0.00  0.00    -0.100 C 
ATOM      9  H   UNL     1      -3.774  -1.130   3.579  0.00  0.00    -0.086 HD
ATOM     10  H   UNL     1      -4.790  -2.415   3.408  0.00  0.00    -0.086 HD
ENDBRANCH   4   7
BRANCH   1  11
ATOM     11  C   UNL     1      -1.433  -0.534   0.013  0.00  0.00    +0.003 C 
BRANCH  11  13
ATOM     12  C   UNL     1      -0.019   1.526   0.010  0.00  0.00    +0.004 C 
ATOM     13  C   UNL     1       0.002  -0.004   0.002  0.00  0.00    -0.003 C 
ENDBRANCH  11  13
ENDBRANCH   1  11
BRANCH   5  14
ATOM     14  C   UNL     1      -5.098  -2.629   0.967  0.00  0.00    +0.106 C 
BRANCH  14  15
ATOM     15  N   UNL     1      -5.740  -2.047  -0.214  0.00  0.00    -0.333 N 
ATOM     16  C   UNL     1      -5.646  -2.726  -1.509  0.00  0.00    +0.129 C 
BRANCH  15  17
ATOM     17  C   UNL     1      -6.443  -0.842  -0.106  0.00  0.00    +0.030 A 
ATOM     18  C   UNL     1      -6.528  -0.195   1.120  0.00  0.00    +0.026 A 
ATOM     19  C   UNL     1      -7.222   0.995   1.226  0.00  0.00    +0.047 A 
ATOM     20  C   UNL     1      -7.834   1.543   0.108  0.00  0.00    +0.117 A 
ATOM     21  C   UNL     1      -7.751   0.897  -1.116  0.00  0.00    +0.047 A 
ATOM     22  C   UNL     1      -7.052  -0.290  -1.225  0.00  0.00    +0.026 A 
BRANCH  20  23
ATOM     23  O   UNL     1      -8.517   2.714   0.213  0.00  0.00    -0.507 OA
ATOM     24  H   UNL     1      -7.976   3.500   0.059  0.00  0.00    +0.292 HD
ENDBRANCH  20  23
ENDBRANCH  15  17
ENDBRANCH  14  15
ENDBRANCH   5  14
TORSDOF 7
