REMARK  Name = ZINC44457179
REMARK  7 active torsions:
REMARK  status: ('A' for Active; 'I' for Inactive)
REMARK    1  A    between atoms: C_1  and  N_2
REMARK    2  A    between atoms: N_2  and  C_3
REMARK    3  A    between atoms: N_2  and  S_4
REMARK    4  A    between atoms: S_4  and  C_7
REMARK    5  A    between atoms: C_10  and  C_13
REMARK    6  A    between atoms: N_15  and  C_16
REMARK    7  A    between atoms: C_16  and  C_17
REMARK                            x       y       z     vdW  Elec       q    Type
REMARK                         _______ _______ _______ _____ _____    ______ ____
ROOT
ATOM      1  C   UNL     1      -1.884  -1.109  -1.669  0.00  0.00    +0.105 A 
ATOM      2  C   UNL     1      -2.675  -0.176  -2.316  0.00  0.00    +0.029 A 
ATOM      3  C   UNL     1      -3.041  -0.372  -3.632  0.00  0.00    +0.015 A 
ATOM      4  C   UNL     1      -2.613  -1.514  -4.310  0.00  0.00    +0.037 A 
ATOM      5  C   UNL     1      -1.816  -2.451  -3.651  0.00  0.00    +0.015 A 
ATOM      6  C   UNL     1      -1.452  -2.241  -2.337  0.00  0.00    +0.029 A 
ENDROOT
BRANCH   4   7
ATOM      7  C   UNL     1      -3.002  -1.730  -5.720  0.00  0.00    +0.244 C 
ATOM      8  O   UNL     1      -3.697  -0.912  -6.291  0.00  0.00    -0.270 OA
ATOM      9  N   UNL     1      -2.587  -2.834  -6.372  0.00  0.00    -0.311 N 
ATOM     10  H   UNL     1      -2.033  -3.487  -5.916  0.00  0.00    +0.149 HD
BRANCH   9  11
ATOM     11  C   UNL     1      -2.973  -3.049  -7.769  0.00  0.00    +0.109 C 
BRANCH  11  12
ATOM     12  C   UNL     1      -2.375  -4.366  -8.267  0.00  0.00    +0.029 C 
ATOM     13  C   UNL     1      -0.842  -4.254  -8.315  0.00  0.00    +0.029 C 
ATOM     14  C   UNL     1      -0.251  -5.444  -9.109  0.00  0.00    +0.166 C 
ATOM     15  S   UNL     1      -1.611  -5.869 -10.272  0.00  0.00    -0.031 S 
ATOM     16  O   UNL     1      -2.065  -7.186  -9.991  0.00  0.00    -0.174 OA
ATOM     17  O   UNL     1      -1.211  -5.535 -11.593  0.00  0.00    -0.174 OA
ATOM     18  C   UNL     1      -2.884  -4.663  -9.706  0.00  0.00    +0.171 C 
ENDBRANCH  11  12
ENDBRANCH   9  11
ENDBRANCH   4   7
BRANCH   1  19
ATOM     19  S   UNL     1      -1.421  -0.852   0.011  0.00  0.00    +0.060 S 
ATOM     20  O   UNL     1      -1.127  -2.132   0.552  0.00  0.00    -0.153 OA
ATOM     21  O   UNL     1      -2.401   0.008   0.576  0.00  0.00    -0.153 OA
BRANCH  19  23
ATOM     22  C   UNL     1      -0.018   1.461   0.010  0.00  0.00    +0.131 C 
ATOM     23  N   UNL     1       0.002  -0.004   0.002  0.00  0.00    -0.183 NA
ATOM     24  C   UNL     1       1.281  -0.719  -0.014  0.00  0.00    +0.131 C 
ENDBRANCH  19  23
ENDBRANCH   1  19
TORSDOF 5
