REMARK  Name = ZINC32134193
REMARK  7 active torsions:
REMARK  status: ('A' for Active; 'I' for Inactive)
REMARK    1  A    between atoms: C_1  and  N_2
REMARK    2  A    between atoms: N_2  and  C_3
REMARK    3  A    between atoms: C_3  and  C_4
REMARK    4  A    between atoms: C_4  and  C_6
REMARK    5  A    between atoms: C_4  and  O_22
REMARK    6  A    between atoms: C_9  and  O_12
REMARK    7  A    between atoms: O_12  and  C_13
REMARK                            x       y       z     vdW  Elec       q    Type
REMARK                         _______ _______ _______ _____ _____    ______ ____
ROOT
ATOM      1  C   UNL     1       5.886  -4.409   3.635  0.00  0.00    -0.021 A 
ATOM      2  C   UNL     1       6.801  -3.380   3.766  0.00  0.00    +0.010 A 
ATOM      3  C   UNL     1       6.498  -2.119   3.291  0.00  0.00    +0.046 A 
ATOM      4  C   UNL     1       5.274  -1.885   2.681  0.00  0.00    +0.128 A 
ATOM      5  C   UNL     1       4.355  -2.917   2.555  0.00  0.00    +0.046 A 
ATOM      6  C   UNL     1       4.665  -4.178   3.028  0.00  0.00    +0.010 A 
ENDROOT
BRANCH   1   7
ATOM      7  C   UNL     1       6.220  -5.783   4.154  0.00  0.00    +0.128 C 
BRANCH   7   8
ATOM      8  O   UNL     1       5.748  -6.768   3.233  0.00  0.00    -0.389 OA
ATOM      9  H   UNL     1       6.122  -6.777   2.198  0.00  0.00    +0.210 HD
ENDBRANCH   7   8
BRANCH   7  10
ATOM     10  C   UNL     1       5.547  -5.992   5.513  0.00  0.00    -0.046 C 
BRANCH  10  12
ATOM     11  C   UNL     1       5.340  -7.518   7.381  0.00  0.00    -0.100 C 
ATOM     12  N   UNL     1       5.968  -7.283   6.074  0.00  0.00    +0.379 N 
ATOM     13  H   UNL     1       7.061  -7.278   6.188  0.00  0.00    -0.086 HD
ATOM     14  H   UNL     1       5.675  -8.082   5.378  0.00  0.00    -0.086 HD
ENDBRANCH  10  12
ENDBRANCH   7  10
ENDBRANCH   1   7
BRANCH   4  15
ATOM     15  O   UNL     1       4.973  -0.645   2.212  0.00  0.00    -0.456 OA
BRANCH  15  16
ATOM     16  C   UNL     1       5.307  -0.350   0.928  0.00  0.00    +0.132 A 
ATOM     17  C   UNL     1       5.924  -1.306   0.135  0.00  0.00    +0.050 A 
ATOM     18  C   UNL     1       6.266  -1.008  -1.171  0.00  0.00    +0.053 A 
ATOM     19  C   UNL     1       5.991   0.246  -1.692  0.00  0.00    +0.166 A 
ATOM     20  C   UNL     1       5.371   1.207  -0.898  0.00  0.00    +0.170 A 
ATOM     21  C   UNL     1       5.030   0.907   0.411  0.00  0.00    +0.095 A 
ATOM     22  O   UNL     1       5.213   2.346  -1.634  0.00  0.00    -0.452 OA
ATOM     23  C   UNL     1       5.369   1.941  -3.007  0.00  0.00    +0.466 C 
ATOM     24  O   UNL     1       6.221   0.782  -2.927  0.00  0.00    -0.453 OA
ENDBRANCH  15  16
ENDBRANCH   4  15
TORSDOF 6
