REMARK  Name = ZINC36857640
REMARK  8 active torsions:
REMARK  status: ('A' for Active; 'I' for Inactive)
REMARK    1  A    between atoms: C_1  and  C_2
REMARK    2  A    between atoms: C_2  and  C_3
REMARK    3  A    between atoms: C_2  and  N_4
REMARK    4  A    between atoms: C_6  and  N_21
REMARK    5  A    between atoms: C_8  and  C_9
REMARK    6  A    between atoms: N_11  and  C_12
REMARK    7  A    between atoms: N_11  and  C_13
REMARK    8  A    between atoms: C_18  and  O_20
REMARK                            x       y       z     vdW  Elec       q    Type
REMARK                         _______ _______ _______ _____ _____    ______ ____
ROOT
ATOM      1  C   UNL     1       2.264  -2.267  -0.049  0.00  0.00    +0.263 C 
ATOM      2  O   UNL     1       3.277  -2.933  -0.157  0.00  0.00    -0.268 OA
ATOM      3  N   UNL     1       1.893  -1.796   1.159  0.00  0.00    -0.296 N 
ATOM      4  C   UNL     1       0.594  -1.138   1.321  0.00  0.00    +0.132 C 
ENDROOT
BRANCH   3   5
ATOM      5  C   UNL     1       2.789  -1.943   2.309  0.00  0.00    +0.086 C 
ATOM      6  C   UNL     1       2.079  -2.707   3.447  0.00  0.00    -0.057 C 
ATOM      7  N   UNL     1       2.555  -2.052   4.692  0.00  0.00    +0.382 N 
ATOM      8  C   UNL     1       2.592  -0.606   4.352  0.00  0.00    -0.049 C 
ATOM      9  C   UNL     1       3.128  -0.560   2.903  0.00  0.00    +0.116 C 
ATOM     10  H   UNL     1       1.909  -2.220   5.449  0.00  0.00    -0.086 HD
ATOM     11  H   UNL     1       3.478  -2.381   4.934  0.00  0.00    -0.086 HD
BRANCH   9  12
ATOM     12  O   UNL     1       4.542  -0.353   2.901  0.00  0.00    -0.392 OA
ATOM     13  H   UNL     1       4.815   0.501   3.264  0.00  0.00    +0.210 HD
ENDBRANCH   9  12
ENDBRANCH   3   5
BRANCH   1  18
ATOM     14  N   UNL     1       1.770  -2.275  -2.536  0.00  0.00    -0.338 N 
ATOM     15  C   UNL     1       0.761  -1.855  -3.339  0.00  0.00    +0.119 A 
ATOM     16  C   UNL     1      -0.201  -1.287  -2.573  0.00  0.00    +0.144 A 
ATOM     17  C   UNL     1       0.218  -1.352  -1.240  0.00  0.00    +0.065 A 
ATOM     18  C   UNL     1       1.447  -1.977  -1.232  0.00  0.00    +0.107 A 
BRANCH  14  20
ATOM     19  C   UNL     1       2.648  -4.316  -3.559  0.00  0.00    +0.030 C 
ATOM     20  C   UNL     1       2.995  -2.942  -2.982  0.00  0.00    +0.081 C 
ATOM     21  C   UNL     1       3.675  -2.093  -4.059  0.00  0.00    +0.030 C 
ENDBRANCH  14  20
BRANCH  16  22
ATOM     22  N   UNL     1      -1.469  -0.701  -3.060  0.00  0.00    +0.058 N 
ATOM     23  O   UNL     1      -1.721  -0.702  -4.242  0.00  0.00    -0.126 OA
ATOM     24  O   UNL     1      -2.254  -0.220  -2.275  0.00  0.00    -0.126 OA
ENDBRANCH  16  22
ENDBRANCH   1  18
TORSDOF 5
