REMARK  Name = ZINC35382001
REMARK  4 active torsions:
REMARK  status: ('A' for Active; 'I' for Inactive)
REMARK    1  A    between atoms: C_1  and  C_2
REMARK    2  A    between atoms: C_6  and  C_7
REMARK    3  A    between atoms: C_7  and  C_9
REMARK    4  A    between atoms: C_7  and  N_20
REMARK                            x       y       z     vdW  Elec       q    Type
REMARK                         _______ _______ _______ _____ _____    ______ ____
ROOT
ATOM      1  C   UNL     1       0.030  -0.179   2.581  0.00  0.00    -0.005 C 
ENDROOT
BRANCH   1   2
ATOM      2  C   UNL     1       1.410  -0.333   3.166  0.00  0.00    -0.035 A 
ATOM      3  C   UNL     1       1.720  -1.450   3.918  0.00  0.00    +0.053 A 
ATOM      4  C   UNL     1       2.989  -1.595   4.457  0.00  0.00    +0.162 A 
ATOM      5  C   UNL     1       3.950  -0.615   4.236  0.00  0.00    +0.163 A 
ATOM      6  C   UNL     1       3.634   0.504   3.482  0.00  0.00    +0.069 A 
ATOM      7  C   UNL     1       2.367   0.641   2.943  0.00  0.00    +0.047 A 
ATOM      8 CL   UNL     1       1.975   2.040   1.993  0.00  0.00    -0.083 Cl
ATOM      9  O   UNL     1       5.205  -0.742   4.749  0.00  0.00    -0.485 OA
ATOM     10  C   UNL     1       5.374  -1.692   5.807  0.00  0.00    +0.270 C 
ATOM     11  C   UNL     1       4.664  -2.991   5.405  0.00  0.00    +0.270 C 
ATOM     12  O   UNL     1       3.278  -2.699   5.199  0.00  0.00    -0.485 OA
ENDBRANCH   1   2
BRANCH   1  18
ATOM     13  C   UNL     1      -0.018   1.503   0.010  0.00  0.00    +0.044 C 
ATOM     14  C   UNL     1       0.002  -0.004   0.002  0.00  0.00    -0.042 A 
ATOM     15  C   UNL     1       0.006  -0.699  -1.193  0.00  0.00    +0.011 A 
ATOM     16  C   UNL     1       0.024  -2.054  -1.165  0.00  0.00    +0.045 A 
ATOM     17  S   UNL     1       0.037  -2.387   0.589  0.00  0.00    -0.103 S 
ATOM     18  C   UNL     1       0.023  -0.698   1.166  0.00  0.00    -0.017 A 
ENDBRANCH   1  18
BRANCH   1  19
ATOM     19  N   UNL     1      -0.932  -0.942   3.388  0.00  0.00    +0.386 N 
ATOM     20  H   UNL     1      -0.927  -0.594   4.335  0.00  0.00    -0.089 HD
ATOM     21  H   UNL     1      -1.856  -0.839   2.996  0.00  0.00    -0.089 HD
ATOM     22  H   UNL     1      -0.673  -1.917   3.386  0.00  0.00    -0.089 HD
ENDBRANCH   1  19
TORSDOF 3
