REMARK  Name = ZINC37705495
REMARK  7 active torsions:
REMARK  status: ('A' for Active; 'I' for Inactive)
REMARK    1  A    between atoms: C_1  and  C_2
REMARK    2  A    between atoms: C_2  and  C_4
REMARK    3  A    between atoms: C_2  and  N_20
REMARK    4  A    between atoms: C_7  and  O_10
REMARK    5  A    between atoms: O_10  and  C_11
REMARK    6  A    between atoms: C_11  and  C_12
REMARK    7  A    between atoms: N_20  and  C_21
REMARK                            x       y       z     vdW  Elec       q    Type
REMARK                         _______ _______ _______ _____ _____    ______ ____
ROOT
ATOM      1  C   UNL     1       0.731  -0.503   1.223  0.00  0.00    -0.061 A 
ATOM      2  C   UNL     1       0.080  -0.558   2.441  0.00  0.00    +0.005 A 
ATOM      3  C   UNL     1       0.746  -1.015   3.562  0.00  0.00    +0.046 A 
ATOM      4  C   UNL     1       2.069  -1.419   3.464  0.00  0.00    +0.121 A 
ATOM      5  C   UNL     1       2.720  -1.364   2.240  0.00  0.00    +0.046 A 
ATOM      6  C   UNL     1       2.048  -0.911   1.122  0.00  0.00    +0.005 A 
ENDROOT
BRANCH   1   8
ATOM      7  C   UNL     1      -0.019   1.526   0.010  0.00  0.00    -0.009 C 
ATOM      8  C   UNL     1       0.002  -0.004   0.002  0.00  0.00    -0.044 C 
BRANCH   8   9
ATOM      9  N   UNL     1      -1.376  -0.512   0.012  0.00  0.00    +0.382 N 
ATOM     10  C   UNL     1      -2.050  -0.126  -1.234  0.00  0.00    -0.100 C 
ATOM     11  H   UNL     1      -1.363  -1.518   0.090  0.00  0.00    -0.085 HD
ATOM     12  H   UNL     1      -1.873  -0.121   0.799  0.00  0.00    -0.085 HD
ENDBRANCH   8   9
ENDBRANCH   1   8
BRANCH   4  13
ATOM     13  O   UNL     1       2.727  -1.869   4.565  0.00  0.00    -0.487 OA
BRANCH  13  14
ATOM     14  C   UNL     1       4.087  -2.268   4.390  0.00  0.00    +0.265 C 
BRANCH  14  15
ATOM     15  C   UNL     1       4.648  -2.734   5.710  0.00  0.00    +0.004 A 
ATOM     16  C   UNL     1       3.851  -2.728   6.839  0.00  0.00    +0.011 A 
ATOM     17  C   UNL     1       4.364  -3.155   8.050  0.00  0.00    +0.039 A 
ATOM     18  C   UNL     1       5.676  -3.588   8.131  0.00  0.00    +0.124 A 
ATOM     19  C   UNL     1       6.474  -3.594   7.000  0.00  0.00    +0.054 A 
ATOM     20  C   UNL     1       5.957  -3.172   5.788  0.00  0.00    +0.027 A 
ATOM     21 BR   UNL     1       7.044  -3.186   4.241  0.00  0.00    -0.050 Br
ATOM     22  F   UNL     1       6.178  -4.005   9.314  0.00  0.00    -0.205 F 
ENDBRANCH  14  15
ENDBRANCH  13  14
ENDBRANCH   4  13
TORSDOF 5
