REMARK  Name = ZINC58378000
REMARK  5 active torsions:
REMARK  status: ('A' for Active; 'I' for Inactive)
REMARK    1  A    between atoms: C_1  and  C_2
REMARK    2  A    between atoms: C_2  and  C_4
REMARK    3  A    between atoms: C_2  and  N_16
REMARK    4  A    between atoms: N_6  and  C_7
REMARK    5  A    between atoms: C_12  and  N_13
REMARK                            x       y       z     vdW  Elec       q    Type
REMARK                         _______ _______ _______ _____ _____    ______ ____
ROOT
ATOM      1  C   UNL     1       0.159   1.032   0.355  0.00  0.00    -0.004 C 
ATOM      2  C   UNL     1      -0.489  -0.351   0.262  0.00  0.00    +0.016 C 
ENDROOT
BRANCH   2   3
ATOM      3  N   UNL     1      -0.148  -0.965  -1.028  0.00  0.00    +0.388 N 
ATOM      4  C   UNL     1      -0.510  -0.033  -2.093  0.00  0.00    -0.076 C 
ATOM      5  C   UNL     1       0.411  -0.242  -3.275  0.00  0.00    +0.000 C 
ATOM      6  C   UNL     1      -0.239  -1.228  -4.262  0.00  0.00    +0.107 C 
ATOM      7  N   UNL     1      -0.920  -2.326  -3.546  0.00  0.00    -0.288 N 
ATOM      8  C   UNL     1      -0.342  -2.970  -2.385  0.00  0.00    +0.091 C 
ATOM      9  C   UNL     1      -0.779  -2.227  -1.101  0.00  0.00    -0.059 C 
ATOM     10  C   UNL     1      -2.122  -2.744  -3.990  0.00  0.00    +0.300 C 
ATOM     11  O   UNL     1      -2.583  -2.286  -5.018  0.00  0.00    -0.253 OA
ATOM     12  N   UNL     1      -2.813  -3.668  -3.294  0.00  0.00    -0.313 N 
ATOM     13  H   UNL     1      -2.480  -3.979  -2.437  0.00  0.00    +0.146 HD
ATOM     14  H   UNL     1      -3.642  -4.023  -3.650  0.00  0.00    +0.146 HD
ATOM     15  H   UNL     1       0.851  -1.106  -1.057  0.00  0.00    -0.081 HD
ENDBRANCH   2   3
BRANCH   2  16
ATOM     16  C   UNL     1       0.019  -1.220   1.383  0.00  0.00    +0.203 C 
ATOM     17  O   UNL     1       0.930  -1.995   1.184  0.00  0.00    -0.277 OA
ATOM     18  N   UNL     1      -0.539  -1.137   2.607  0.00  0.00    -0.285 N 
ATOM     19  H   UNL     1      -1.225  -0.474   2.783  0.00  0.00    +0.155 HD
BRANCH  18  20
ATOM     20  C   UNL     1      -0.130  -2.007   3.623  0.00  0.00    +0.064 A 
ATOM     21  C   UNL     1       1.203  -2.384   3.722  0.00  0.00    +0.025 A 
ATOM     22  C   UNL     1       1.603  -3.243   4.726  0.00  0.00    +0.002 A 
ATOM     23  C   UNL     1       0.679  -3.728   5.633  0.00  0.00    +0.002 A 
ATOM     24  C   UNL     1      -0.649  -3.356   5.537  0.00  0.00    +0.034 A 
ATOM     25  C   UNL     1      -1.055  -2.492   4.538  0.00  0.00    +0.147 A 
BRANCH  25  26
ATOM     26  N   UNL     1      -2.476  -2.088   4.441  0.00  0.00    +0.058 N 
ATOM     27  O   UNL     1      -3.260  -2.425   5.296  0.00  0.00    -0.126 OA
ATOM     28  O   UNL     1      -2.852  -1.421   3.505  0.00  0.00    -0.126 OA
ENDBRANCH  25  26
ENDBRANCH  18  20
ENDBRANCH   2  16
TORSDOF 4
