REMARK  Name = ZINC40091447
REMARK  5 active torsions:
REMARK  status: ('A' for Active; 'I' for Inactive)
REMARK    1  A    between atoms: C_1  and  C_2
REMARK    2  A    between atoms: C_2  and  C_4
REMARK    3  A    between atoms: C_2  and  N_12
REMARK    4  A    between atoms: N_15  and  C_16
REMARK    5  A    between atoms: C_16  and  C_17
REMARK                            x       y       z     vdW  Elec       q    Type
REMARK                         _______ _______ _______ _____ _____    ______ ____
ROOT
ATOM      1  N   UNL     1      -1.432  -0.727  -0.126  0.00  0.00    -0.293 N 
ATOM      2  C   UNL     1      -1.942  -0.787  -1.372  0.00  0.00    +0.300 C 
ATOM      3  O   UNL     1      -1.244  -0.510  -2.329  0.00  0.00    -0.253 OA
ATOM      4  N   UNL     1      -3.226  -1.154  -1.558  0.00  0.00    -0.295 N 
ATOM      5  H   UNL     1      -1.989  -0.947   0.637  0.00  0.00    +0.151 HD
ATOM      6  H   UNL     1      -3.782  -1.374  -0.795  0.00  0.00    +0.151 HD
ENDROOT
BRANCH   1   8
ATOM      7  C   UNL     1       0.042   1.193   0.225  0.00  0.00    +0.033 C 
ATOM      8  C   UNL     1      -0.037  -0.328   0.076  0.00  0.00    +0.104 C 
BRANCH   8   9
ATOM      9  C   UNL     1       0.497  -0.983   1.323  0.00  0.00    +0.010 A 
ATOM     10  C   UNL     1      -0.365  -1.325   2.348  0.00  0.00    +0.046 A 
ATOM     11  C   UNL     1       0.126  -1.927   3.494  0.00  0.00    +0.124 A 
ATOM     12  C   UNL     1       1.481  -2.188   3.613  0.00  0.00    +0.041 A 
ATOM     13  C   UNL     1       2.343  -1.846   2.588  0.00  0.00    +0.041 A 
ATOM     14  C   UNL     1       1.851  -1.248   1.440  0.00  0.00    +0.128 A 
ATOM     15  F   UNL     1       2.693  -0.919   0.436  0.00  0.00    -0.205 F 
ATOM     16  F   UNL     1      -0.717  -2.261   4.495  0.00  0.00    -0.205 F 
ENDBRANCH   8   9
ENDBRANCH   1   8
BRANCH   4  17
ATOM     17  C   UNL     1      -3.780  -1.219  -2.912  0.00  0.00    +0.141 C 
BRANCH  17  18
ATOM     18  C   UNL     1      -5.222  -1.652  -2.845  0.00  0.00    -0.026 A 
ATOM     19  C   UNL     1      -5.563  -2.997  -2.890  0.00  0.00    +0.023 A 
ATOM     20  C   UNL     1      -6.893  -3.361  -2.825  0.00  0.00    +0.084 A 
ATOM     21  N   UNL     1      -7.840  -2.447  -2.721  0.00  0.00    -0.350 N 
ATOM     22  C   UNL     1      -7.556  -1.155  -2.675  0.00  0.00    +0.099 A 
ATOM     23  C   UNL     1      -6.236  -0.718  -2.730  0.00  0.00    +0.047 A 
ATOM     24  N   UNL     1      -8.585  -0.227  -2.565  0.00  0.00    -0.312 N 
ATOM     25  C   UNL     1      -8.315   1.217  -2.651  0.00  0.00    +0.134 C 
ATOM     26  C   UNL     1      -9.278   1.829  -3.674  0.00  0.00    +0.178 C 
ATOM     27  O   UNL     1     -10.617   1.452  -3.344  0.00  0.00    -0.377 OA
ATOM     28  C   UNL     1     -10.859   0.044  -3.398  0.00  0.00    +0.178 C 
ATOM     29  C   UNL     1      -9.977  -0.660  -2.366  0.00  0.00    +0.134 C 
ATOM     30  H   UNL     1      -8.767  -2.730  -2.677  0.00  0.00    +0.166 HD
ENDBRANCH  17  18
ENDBRANCH   4  17
TORSDOF 4
