REMARK  Name = ZINC53714452
REMARK  5 active torsions:
REMARK  status: ('A' for Active; 'I' for Inactive)
REMARK    1  A    between atoms: C_1  and  N_2
REMARK    2  A    between atoms: N_2  and  C_3
REMARK    3  A    between atoms: C_3  and  C_5
REMARK    4  A    between atoms: C_3  and  C_16
REMARK    5  A    between atoms: N_14  and  C_15
REMARK                            x       y       z     vdW  Elec       q    Type
REMARK                         _______ _______ _______ _____ _____    ______ ____
ROOT
ATOM      1  C   UNL     1       0.713  -0.491   1.192  0.00  0.00    -0.038 C 
ENDROOT
BRANCH   1   2
ATOM      2  C   UNL     1      -0.059  -0.109   2.429  0.00  0.00    -0.058 A 
ATOM      3  C   UNL     1      -1.440  -0.200   2.434  0.00  0.00    +0.004 A 
ATOM      4  C   UNL     1      -2.155   0.148   3.564  0.00  0.00    +0.030 A 
ATOM      5  C   UNL     1      -1.485   0.588   4.695  0.00  0.00    +0.090 A 
ATOM      6  C   UNL     1      -0.093   0.679   4.691  0.00  0.00    +0.157 A 
ATOM      7  C   UNL     1       0.615   0.323   3.554  0.00  0.00    +0.050 A 
ATOM      8  O   UNL     1       0.284   1.132   5.912  0.00  0.00    -0.407 OA
ATOM      9  C   UNL     1      -0.808   1.324   6.668  0.00  0.00    +0.421 A 
ATOM     10  O   UNL     1      -0.806   1.726   7.815  0.00  0.00    -0.223 OA
ATOM     11  N   UNL     1      -1.908   1.002   5.958  0.00  0.00    -0.277 N 
ATOM     12  C   UNL     1      -3.294   1.074   6.427  0.00  0.00    +0.156 C 
ENDBRANCH   1   2
BRANCH   1  13
ATOM     13  C   UNL     1       0.842  -2.014   1.121  0.00  0.00    -0.021 C 
ATOM     14  C   UNL     1       1.525  -2.517   2.410  0.00  0.00    +0.002 C 
ATOM     15  C   UNL     1       1.201  -3.976   2.583  0.00  0.00    +0.000 C 
ATOM     16  C   UNL     1       2.287  -4.895   1.990  0.00  0.00    +0.000 C 
ATOM     17  C   UNL     1       2.812  -4.399   0.630  0.00  0.00    +0.000 C 
ATOM     18  C   UNL     1       1.711  -3.894  -0.263  0.00  0.00    +0.000 C 
ATOM     19  C   UNL     1       1.589  -2.368  -0.076  0.00  0.00    +0.002 C 
ENDBRANCH   1  13
BRANCH   1  21
ATOM     20  C   UNL     1      -0.018   1.465   0.010  0.00  0.00    -0.100 C 
ATOM     21  N   UNL     1       0.002  -0.004   0.002  0.00  0.00    +0.382 N 
ATOM     22  H   UNL     1      -0.945  -0.353   0.009  0.00  0.00    -0.085 HD
ATOM     23  H   UNL     1       0.474  -0.330  -0.828  0.00  0.00    -0.085 HD
ENDBRANCH   1  21
TORSDOF 3
