REMARK  Name = ZINC13639786
REMARK  8 active torsions:
REMARK  status: ('A' for Active; 'I' for Inactive)
REMARK    1  A    between atoms: C_1  and  C_2
REMARK    2  A    between atoms: C_2  and  C_3
REMARK    3  A    between atoms: C_3  and  O_4
REMARK    4  A    between atoms: O_4  and  C_5
REMARK    5  A    between atoms: C_5  and  C_7
REMARK    6  A    between atoms: C_20  and  C_23
REMARK    7  A    between atoms: C_26  and  O_30
REMARK    8  A    between atoms: C_28  and  O_29
REMARK                            x       y       z     vdW  Elec       q    Type
REMARK                         _______ _______ _______ _____ _____    ______ ____
ROOT
ATOM      1  C   UNL     1      -1.237   3.133   0.030  0.00  0.00    +0.059 A 
ATOM      2  C   UNL     1      -1.207   1.735   0.017  0.00  0.00    +0.017 A 
ATOM      3  C   UNL     1      -0.013   1.076   0.008  0.00  0.00    +0.024 A 
ATOM      4  C   UNL     1       1.189   1.782   0.000  0.00  0.00    +0.031 A 
ATOM      5  C   UNL     1       1.163   3.184   0.020  0.00  0.00    -0.019 A 
ATOM      6  C   UNL     1      -0.037   3.851   0.029  0.00  0.00    +0.021 A 
ATOM      7  C   UNL     1       2.463   3.890   0.038  0.00  0.00    +0.049 C 
ATOM      8  C   UNL     1       2.618   5.270  -0.489  0.00  0.00    -0.023 C 
ATOM      9  C   UNL     1       3.848   5.404  -0.969  0.00  0.00    -0.030 C 
ATOM     10  C   UNL     1       4.612   4.086  -0.826  0.00  0.00    +0.033 C 
ATOM     11  C   UNL     1       3.467   3.064  -0.820  0.00  0.00    +0.029 C 
ATOM     12  C   UNL     1       3.693   1.776  -0.050  0.00  0.00    +0.108 C 
ATOM     13  N   UNL     1       2.390   1.077  -0.050  0.00  0.00    -0.336 N 
ATOM     14  H   UNL     1       2.371   0.107  -0.085  0.00  0.00    +0.147 HD
ENDROOT
BRANCH  12  15
ATOM     15  C   UNL     1       4.736   0.934  -0.738  0.00  0.00    +0.015 A 
ATOM     16  C   UNL     1       4.349  -0.061  -1.616  0.00  0.00    +0.012 A 
ATOM     17  C   UNL     1       5.303  -0.832  -2.253  0.00  0.00    +0.046 A 
ATOM     18  C   UNL     1       6.651  -0.616  -2.004  0.00  0.00    +0.120 A 
ATOM     19  C   UNL     1       7.041   0.378  -1.120  0.00  0.00    +0.091 A 
ATOM     20  C   UNL     1       6.082   1.154  -0.486  0.00  0.00    +0.125 A 
BRANCH  20  21
ATOM     21  O   UNL     1       6.461   2.129   0.381  0.00  0.00    -0.506 OA
ATOM     22  H   UNL     1       6.541   1.831   1.298  0.00  0.00    +0.292 HD
ENDBRANCH  20  21
BRANCH  18  23
ATOM     23  O   UNL     1       7.589  -1.377  -2.627  0.00  0.00    -0.507 OA
ATOM     24  H   UNL     1       7.831  -2.178  -2.142  0.00  0.00    +0.292 HD
ENDBRANCH  18  23
ENDBRANCH  12  15
BRANCH   1  25
ATOM     25  C   UNL     1      -2.527   3.846   0.038  0.00  0.00    +0.339 C 
ATOM     26  O   UNL     1      -2.550   5.061   0.044  0.00  0.00    -0.245 OA
BRANCH  25  27
ATOM     27  O   UNL     1      -3.682   3.151   0.040  0.00  0.00    -0.461 OA
BRANCH  27  28
ATOM     28  C   UNL     1      -4.914   3.919   0.048  0.00  0.00    +0.232 C 
BRANCH  28  30
ATOM     29  C   UNL     1      -7.408   3.773   0.057  0.00  0.00    +0.007 C 
ATOM     30  C   UNL     1      -6.109   2.964   0.048  0.00  0.00    +0.038 C 
ENDBRANCH  28  30
ENDBRANCH  27  28
ENDBRANCH  25  27
ENDBRANCH   1  25
TORSDOF 7
