REMARK  Name = ZINC37581137
REMARK  7 active torsions:
REMARK  status: ('A' for Active; 'I' for Inactive)
REMARK    1  A    between atoms: C_2  and  C_18
REMARK    2  A    between atoms: C_5  and  S_8
REMARK    3  A    between atoms: S_8  and  N_11
REMARK    4  A    between atoms: N_11  and  C_12
REMARK    5  A    between atoms: C_12  and  C_13
REMARK    6  A    between atoms: C_19  and  C_20
REMARK    7  A    between atoms: C_20  and  N_21
REMARK                            x       y       z     vdW  Elec       q    Type
REMARK                         _______ _______ _______ _____ _____    ______ ____
ROOT
ATOM      1  C   UNL     1      -0.017   1.377   0.010  0.00  0.00    +0.039 A 
ATOM      2  C   UNL     1       1.184   2.088   0.002  0.00  0.00    +0.028 A 
ATOM      3  C   UNL     1       2.397   1.399  -0.013  0.00  0.00    +0.039 A 
ATOM      4  C   UNL     1       2.403   0.018  -0.021  0.00  0.00    +0.070 A 
ATOM      5  C   UNL     1       1.209  -0.683  -0.014  0.00  0.00    +0.142 A 
ATOM      6  C   UNL     1       0.002  -0.004   0.002  0.00  0.00    +0.070 A 
ATOM      7 CL   UNL     1      -1.490  -0.891   0.012  0.00  0.00    -0.081 Cl
ATOM      8 CL   UNL     1       3.911  -0.842  -0.040  0.00  0.00    -0.081 Cl
ENDROOT
BRANCH   5   9
ATOM      9  S   UNL     1       1.225  -2.445  -0.024  0.00  0.00    +0.061 S 
ATOM     10  O   UNL     1      -0.022  -2.859  -0.565  0.00  0.00    -0.153 OA
ATOM     11  O   UNL     1       2.468  -2.836  -0.589  0.00  0.00    -0.153 OA
BRANCH   9  12
ATOM     12  N   UNL     1       1.244  -2.943   1.555  0.00  0.00    -0.181 NA
ATOM     13  H   UNL     1       2.013  -3.421   1.904  0.00  0.00    +0.148 HD
BRANCH  12  14
ATOM     14  C   UNL     1       0.099  -2.663   2.426  0.00  0.00    +0.219 C 
BRANCH  14  15
ATOM     15  C   UNL     1       0.192  -3.528   3.685  0.00  0.00    +0.404 C 
ATOM     16  F   UNL     1       1.379  -3.235   4.365  0.00  0.00    -0.169 F 
ATOM     17  F   UNL     1      -0.900  -3.260   4.516  0.00  0.00    -0.169 F 
ATOM     18  F   UNL     1       0.183  -4.879   3.323  0.00  0.00    -0.169 F 
ENDBRANCH  14  15
ENDBRANCH  12  14
ENDBRANCH   9  12
ENDBRANCH   5   9
BRANCH   2  19
ATOM     19  C   UNL     1       1.171   3.520   0.009  0.00  0.00    -0.068 C 
ATOM     20  C   UNL     1       1.160   4.694   0.015  0.00  0.00    -0.117 C 
BRANCH  20  21
ATOM     21  C   UNL     1       1.147   6.166   0.023  0.00  0.00    +0.005 C 
BRANCH  21  22
ATOM     22  N   UNL     1       2.527   6.668   0.013  0.00  0.00    +0.385 N 
ATOM     23  H   UNL     1       2.518   7.677   0.018  0.00  0.00    -0.089 HD
ATOM     24  H   UNL     1       3.014   6.332   0.830  0.00  0.00    -0.089 HD
ATOM     25  H   UNL     1       2.998   6.340  -0.818  0.00  0.00    -0.089 HD
ENDBRANCH  21  22
ENDBRANCH  20  21
ENDBRANCH   2  19
TORSDOF 7
