REMARK  Name = ZINC29623212
REMARK  9 active torsions:
REMARK  status: ('A' for Active; 'I' for Inactive)
REMARK    1  A    between atoms: C_1  and  C_2
REMARK    2  A    between atoms: C_2  and  C_3
REMARK    3  A    between atoms: C_3  and  C_5
REMARK    4  A    between atoms: C_3  and  N_20
REMARK    5  A    between atoms: C_5  and  N_6
REMARK    6  A    between atoms: N_6  and  C_7
REMARK    7  A    between atoms: C_10  and  S_16
REMARK    8  A    between atoms: C_12  and  N_13
REMARK    9  A    between atoms: S_16  and  N_19
REMARK                            x       y       z     vdW  Elec       q    Type
REMARK                         _______ _______ _______ _____ _____    ______ ____
ROOT
ATOM      1  C   UNL     1       1.262   0.757  -0.228  0.00  0.00    +0.058 A 
ATOM      2  C   UNL     1       0.145  -0.044  -0.028  0.00  0.00    +0.027 A 
ATOM      3  C   UNL     1      -1.120   0.503  -0.116  0.00  0.00    +0.030 A 
ATOM      4  C   UNL     1      -1.275   1.849  -0.392  0.00  0.00    +0.107 A 
ATOM      5  C   UNL     1      -0.165   2.650  -0.591  0.00  0.00    +0.063 A 
ATOM      6  C   UNL     1       1.103   2.108  -0.510  0.00  0.00    +0.149 A 
ENDROOT
BRANCH   6   7
ATOM      7  N   UNL     1       2.290   2.965  -0.723  0.00  0.00    +0.058 N 
ATOM      8  O   UNL     1       2.300   4.107  -0.300  0.00  0.00    -0.126 OA
ATOM      9  O   UNL     1       3.257   2.529  -1.321  0.00  0.00    -0.126 OA
ENDBRANCH   6   7
BRANCH   4  10
ATOM     10  S   UNL     1      -2.890   2.545  -0.496  0.00  0.00    +0.056 S 
ATOM     11  O   UNL     1      -3.744   1.705   0.268  0.00  0.00    -0.153 OA
ATOM     12  O   UNL     1      -2.752   3.934  -0.231  0.00  0.00    -0.153 OA
BRANCH  10  13
ATOM     13  N   UNL     1      -3.381   2.410  -2.072  0.00  0.00    -0.204 NA
ATOM     14  H   UNL     1      -4.389   2.835  -2.180  0.00  0.00    +0.144 HD
ATOM     15  H   UNL     1      -3.397   1.349  -2.361  0.00  0.00    +0.144 HD
ENDBRANCH  10  13
ENDBRANCH   4  10
BRANCH   1  16
ATOM     16  N   UNL     1       2.543   0.206  -0.144  0.00  0.00    -0.344 N 
ATOM     17  H   UNL     1       3.423   0.823  -0.376  0.00  0.00    +0.146 HD
BRANCH  16  18
ATOM     18  C   UNL     1       2.713  -1.194   0.252  0.00  0.00    +0.086 C 
BRANCH  18  19
ATOM     19  C   UNL     1       4.203  -1.543   0.264  0.00  0.00    -0.052 C 
BRANCH  19  20
ATOM     20  N   UNL     1       4.920  -0.598   1.130  0.00  0.00    +0.383 N 
ATOM     21  C   UNL     1       4.871  -1.033   2.549  0.00  0.00    -0.078 C 
ATOM     22  C   UNL     1       6.058  -0.275   3.194  0.00  0.00    -0.020 C 
ATOM     23  C   UNL     1       7.134  -0.310   2.084  0.00  0.00    -0.020 C 
ATOM     24  C   UNL     1       6.355  -0.539   0.776  0.00  0.00    -0.078 C 
ATOM     25  H   UNL     1       4.428   0.375   0.983  0.00  0.00    -0.081 HD
ENDBRANCH  19  20
BRANCH  19  27
ATOM     26  C   UNL     1       5.872  -3.339   0.746  0.00  0.00    +0.002 C 
ATOM     27  C   UNL     1       4.389  -2.965   0.797  0.00  0.00    -0.017 C 
ENDBRANCH  19  27
ENDBRANCH  18  19
ENDBRANCH  16  18
ENDBRANCH   1  16
TORSDOF 8
