REMARK  Name = ZINC63821899
REMARK  4 active torsions:
REMARK  status: ('A' for Active; 'I' for Inactive)
REMARK    1  A    between atoms: C_1  and  C_2
REMARK    2  A    between atoms: C_8  and  C_10
REMARK    3  A    between atoms: C_10  and  C_11
REMARK    4  A    between atoms: C_11  and  N_12
REMARK                            x       y       z     vdW  Elec       q    Type
REMARK                         _______ _______ _______ _____ _____    ______ ____
ROOT
ATOM      1  N   UNL     1       0.129  -7.537   3.766  0.00  0.00    -0.299 N 
ATOM      2  C   UNL     1       0.143  -8.868   3.554  0.00  0.00    +0.302 C 
ATOM      3  O   UNL     1       0.049  -9.303   2.422  0.00  0.00    -0.253 OA
ATOM      4  N   UNL     1       0.261  -9.715   4.595  0.00  0.00    -0.283 N 
ATOM      5  C   UNL     1       0.254  -9.189   5.963  0.00  0.00    +0.114 C 
ATOM      6  C   UNL     1       1.552  -9.605   6.680  0.00  0.00    +0.052 C 
ATOM      7  C   UNL     1       1.764 -11.067   6.375  0.00  0.00    -0.035 C 
ATOM      8  C   UNL     1       1.988 -12.106   7.170  0.00  0.00    +0.001 A 
ATOM      9  C   UNL     1       2.219 -12.197   8.621  0.00  0.00    +0.030 A 
ATOM     10  C   UNL     1       2.398 -13.449   9.122  0.00  0.00    +0.042 A 
ATOM     11  C   UNL     1       2.370 -14.605   8.334  0.00  0.00    +0.022 A 
ATOM     12  C   UNL     1       2.173 -14.613   6.992  0.00  0.00    +0.027 A 
ATOM     13  C   UNL     1       1.980 -13.355   6.349  0.00  0.00    +0.043 A 
ATOM     14  N   UNL     1       1.796 -13.072   5.093  0.00  0.00    -0.376 N 
ATOM     15  C   UNL     1       1.726 -11.617   4.954  0.00  0.00    +0.124 C 
ATOM     16  C   UNL     1       0.391 -11.160   4.346  0.00  0.00    +0.138 C 
ATOM     17 CL   UNL     1       2.676 -13.621  10.827  0.00  0.00    -0.084 Cl
ATOM     18  H   UNL     1       0.130  -7.191   4.672  0.00  0.00    +0.150 HD
ATOM     19  H   UNL     1       1.718 -13.715   4.372  0.00  0.00    +0.160 HD
ENDROOT
BRANCH   1  20
ATOM     20  C   UNL     1       0.111  -6.613   2.629  0.00  0.00    +0.115 C 
BRANCH  20  21
ATOM     21  C   UNL     1       0.098  -5.172   3.143  0.00  0.00    +0.115 C 
BRANCH  21  29
ATOM     22  C   UNL     1       0.002   1.502   0.008  0.00  0.00    +0.066 C 
ATOM     23  C   UNL     1       0.019  -0.005   0.000  0.00  0.00    +0.047 A 
ATOM     24  C   UNL     1       0.020  -0.707  -1.160  0.00  0.00    +0.071 A 
ATOM     25  S   UNL     1       0.043  -2.379  -0.536  0.00  0.00    -0.060 S 
ATOM     26  C   UNL     1       0.049  -2.015   1.107  0.00  0.00    +0.165 A 
ATOM     27  N   UNL     1       0.039  -0.700   1.122  0.00  0.00    -0.230 NA
ATOM     28  N   UNL     1       0.066  -2.891   2.186  0.00  0.00    -0.265 N 
ATOM     29  C   UNL     1       0.080  -4.222   1.973  0.00  0.00    +0.220 C 
ATOM     30  O   UNL     1       0.078  -4.655   0.840  0.00  0.00    -0.275 OA
ATOM     31  H   UNL     1       0.067  -2.545   3.092  0.00  0.00    +0.157 HD
ENDBRANCH  21  29
ENDBRANCH  20  21
ENDBRANCH   1  20
TORSDOF 3
