REMARK  Name = ZINC54556027
REMARK  11 active torsions:
REMARK  status: ('A' for Active; 'I' for Inactive)
REMARK    1  A    between atoms: C_1  and  C_2
REMARK    2  A    between atoms: C_2  and  C_3
REMARK    3  A    between atoms: C_4  and  C_24
REMARK    4  A    between atoms: N_6  and  C_9
REMARK    5  A    between atoms: C_7  and  C_8
REMARK    6  A    between atoms: C_12  and  C_21
REMARK    7  A    between atoms: C_16  and  N_18
REMARK    8  A    between atoms: N_18  and  C_19
REMARK    9  A    between atoms: C_19  and  C_20
REMARK   10  A    between atoms: C_21  and  C_22
REMARK   11  A    between atoms: C_21  and  C_23
REMARK                            x       y       z     vdW  Elec       q    Type
REMARK                         _______ _______ _______ _____ _____    ______ ____
ROOT
ATOM      1  C   UNL     1       3.563  -1.536  -3.174  0.00  0.00    +0.094 C 
ATOM      2  C   UNL     1       3.898  -0.624  -4.356  0.00  0.00    +0.029 C 
ATOM      3  C   UNL     1       5.256  -1.020  -4.939  0.00  0.00    -0.007 C 
ATOM      4  C   UNL     1       5.201  -2.473  -5.416  0.00  0.00    +0.002 C 
ATOM      5  C   UNL     1       4.867  -3.386  -4.234  0.00  0.00    -0.013 C 
ATOM      6  C   UNL     1       3.509  -2.989  -3.652  0.00  0.00    -0.047 C 
ENDROOT
BRANCH   1  10
ATOM      7  C   UNL     1       0.707  -0.490  -1.238  0.00  0.00    -0.004 A 
ATOM      8  C   UNL     1       0.109  -0.760  -2.473  0.00  0.00    +0.063 A 
ATOM      9  N   UNL     1       1.040  -1.160  -3.300  0.00  0.00    -0.176 NA
ATOM     10  N   UNL     1       2.263  -1.157  -2.616  0.00  0.00    -0.267 N 
ATOM     11  C   UNL     1       2.033  -0.737  -1.355  0.00  0.00    +0.040 A 
ATOM     12  C   UNL     1       3.066  -0.575  -0.270  0.00  0.00    +0.065 C 
ATOM     13  C   UNL     1      -1.356  -0.615  -2.795  0.00  0.00    +0.068 C 
BRANCH   7  15
ATOM     14  C   UNL     1      -0.019   1.526   0.010  0.00  0.00    +0.009 C 
ATOM     15  C   UNL     1       0.002  -0.004   0.002  0.00  0.00    +0.035 C 
ENDBRANCH   7  15
ENDBRANCH   1  10
BRANCH   6  16
ATOM     16  N   UNL     1       2.474  -3.127  -4.685  0.00  0.00    +0.382 N 
ATOM     17  H   UNL     1       1.593  -2.788  -4.326  0.00  0.00    -0.085 HD
ATOM     18  H   UNL     1       2.736  -2.588  -5.497  0.00  0.00    -0.085 HD
BRANCH  16  19
ATOM     19  C   UNL     1       2.338  -4.541  -5.057  0.00  0.00    -0.086 C 
ATOM     20  C   UNL     1       1.260  -4.684  -6.133  0.00  0.00    -0.017 C 
ENDBRANCH  16  19
ENDBRANCH   6  16
BRANCH   3  21
ATOM     21  C   UNL     1       5.590  -0.108  -6.120  0.00  0.00    -0.014 C 
ATOM     22  C   UNL     1       5.645   1.345  -5.643  0.00  0.00    +0.007 C 
ATOM     23  C   UNL     1       6.948  -0.504  -6.703  0.00  0.00    +0.007 C 
ENDBRANCH   3  21
TORSDOF 5
