REMARK  Name = ZINC37731825
REMARK  4 active torsions:
REMARK  status: ('A' for Active; 'I' for Inactive)
REMARK    1  A    between atoms: C_5  and  N_7
REMARK    2  A    between atoms: N_7  and  S_8
REMARK    3  A    between atoms: S_8  and  C_11
REMARK    4  A    between atoms: C_12  and  C_17
REMARK                            x       y       z     vdW  Elec       q    Type
REMARK                         _______ _______ _______ _____ _____    ______ ____
ROOT
ATOM      1  S   UNL     1      -0.183  -2.929  -0.012  0.00  0.00    +0.109 S 
ATOM      2  O   UNL     1      -0.802  -2.671   1.241  0.00  0.00    -0.147 OA
ATOM      3  O   UNL     1      -0.826  -2.658  -1.250  0.00  0.00    -0.147 OA
ENDROOT
BRANCH   1   4
ATOM      4  C   UNL     1       0.235  -4.640  -0.025  0.00  0.00    +0.207 A 
ATOM      5  C   UNL     1       0.892  -5.328  -1.072  0.00  0.00    +0.125 A 
ATOM      6  C   UNL     1       1.023  -6.646  -0.674  0.00  0.00    +0.120 A 
ATOM      7  N   UNL     1       0.476  -6.752   0.546  0.00  0.00    -0.305 N 
ATOM      8  N   UNL     1      -0.002  -5.495   0.931  0.00  0.00    -0.282 N 
ATOM      9  H   UNL     1       0.424  -7.564   1.074  0.00  0.00    +0.186 HD
ATOM     10  H   UNL     1      -0.440  -5.292   1.772  0.00  0.00    +0.188 HD
BRANCH   5  11
ATOM     11  C   UNL     1       1.350  -4.750  -2.345  0.00  0.00    +0.391 C 
ATOM     12  O   UNL     1       1.909  -5.457  -3.172  0.00  0.00    -0.240 OA
ATOM     13  O   UNL     1       1.171  -3.562  -2.576  0.00  0.00    -0.240 OA
ENDBRANCH   5  11
ENDBRANCH   1   4
BRANCH   1  14
ATOM     14  N   UNL     1       1.238  -2.078  -0.021  0.00  0.00    -0.095 NA
BRANCH  14  19
ATOM     15  C   UNL     1      -0.017   1.377   0.010  0.00  0.00    +0.002 A 
ATOM     16  C   UNL     1       1.171   2.086   0.002  0.00  0.00    +0.001 A 
ATOM     17  C   UNL     1       2.380   1.416  -0.013  0.00  0.00    +0.016 A 
ATOM     18  C   UNL     1       2.406   0.035  -0.021  0.00  0.00    +0.038 A 
ATOM     19  C   UNL     1       1.215  -0.681  -0.013  0.00  0.00    +0.087 A 
ATOM     20  C   UNL     1       0.002  -0.004   0.002  0.00  0.00    +0.028 A 
ATOM     21  I   UNL     1       4.239  -0.979  -0.044  0.00  0.00    -0.042 I 
ENDBRANCH  14  19
ENDBRANCH   1  14
TORSDOF 4
