REMARK  Name = ZINC05210011
REMARK  7 active torsions:
REMARK  status: ('A' for Active; 'I' for Inactive)
REMARK    1  A    between atoms: C_1  and  O_2
REMARK    2  A    between atoms: O_2  and  C_3
REMARK    3  A    between atoms: C_3  and  C_5
REMARK    4  A    between atoms: C_10  and  O_11
REMARK    5  A    between atoms: O_11  and  C_12
REMARK    6  A    between atoms: C_12  and  C_13
REMARK    7  A    between atoms: N_14  and  N_15
REMARK                            x       y       z     vdW  Elec       q    Type
REMARK                         _______ _______ _______ _____ _____    ______ ____
ROOT
ATOM      1  C   UNL     1      -6.025  -1.829   0.050  0.00  0.00    +0.121 C 
ATOM      2  N   UNL     1      -7.235  -2.284   0.059  0.00  0.00    -0.294 N 
ATOM      3  N   UNL     1      -5.798  -0.462   0.055  0.00  0.00    -0.344 N 
ATOM      4  H   UNL     1      -4.891  -0.120   0.048  0.00  0.00    +0.143 HD
ATOM      5  H   UNL     1      -6.548   0.154   0.066  0.00  0.00    +0.143 HD
ATOM      6  H   UNL     1      -7.394  -3.241   0.055  0.00  0.00    +0.186 HD
ENDROOT
BRANCH   2   7
ATOM      7  N   UNL     1      -8.318  -1.395   0.074  0.00  0.00    -0.242 N 
ATOM      8  C   UNL     1      -9.617  -1.883   0.084  0.00  0.00    +0.138 A 
ATOM      9  C   UNL     1     -10.688  -0.994   0.093  0.00  0.00    +0.045 A 
ATOM     10  C   UNL     1     -11.978  -1.494   0.103  0.00  0.00    +0.006 A 
ATOM     11  C   UNL     1     -12.155  -2.871   0.103  0.00  0.00    +0.040 A 
ATOM     12  C   UNL     1     -11.047  -3.697   0.094  0.00  0.00    +0.131 A 
ATOM     13  N   UNL     1      -9.827  -3.192   0.079  0.00  0.00    -0.219 NA
ATOM     14 CL   UNL     1     -11.261  -5.419   0.094  0.00  0.00    -0.062 Cl
ATOM     15  H   UNL     1      -8.159  -0.438   0.078  0.00  0.00    +0.174 HD
ENDBRANCH   2   7
BRANCH   1  16
ATOM     16  C   UNL     1      -4.860  -2.785   0.034  0.00  0.00    +0.299 C 
BRANCH  16  17
ATOM     17  O   UNL     1      -3.637  -2.047   0.026  0.00  0.00    -0.484 OA
BRANCH  17  23
ATOM     18  C   UNL     1      -1.247  -2.105   0.003  0.00  0.00    +0.101 A 
ATOM     19  C   UNL     1      -0.068  -2.854  -0.007  0.00  0.00    +0.018 A 
ATOM     20  C   UNL     1      -0.128  -4.231  -0.014  0.00  0.00    +0.001 A 
ATOM     21  C   UNL     1      -1.354  -4.877  -0.012  0.00  0.00    +0.004 A 
ATOM     22  C   UNL     1      -2.527  -4.149  -0.002  0.00  0.00    +0.046 A 
ATOM     23  C   UNL     1      -2.485  -2.763   0.011  0.00  0.00    +0.135 A 
BRANCH  18  24
ATOM     24  C   UNL     1      -1.190  -0.632   0.010  0.00  0.00    +0.342 C 
ATOM     25  O   UNL     1      -2.218   0.016   0.023  0.00  0.00    -0.245 OA
BRANCH  24  27
ATOM     26  C   UNL     1      -0.017   1.425   0.010  0.00  0.00    +0.280 C 
ATOM     27  O   UNL     1       0.002  -0.004   0.002  0.00  0.00    -0.464 OA
ENDBRANCH  24  27
ENDBRANCH  18  24
ENDBRANCH  17  23
ENDBRANCH  16  17
ENDBRANCH   1  16
TORSDOF 6
