REMARK  Name = ZINC55080649
REMARK  8 active torsions:
REMARK  status: ('A' for Active; 'I' for Inactive)
REMARK    1  A    between atoms: C_1  and  C_2
REMARK    2  A    between atoms: C_2  and  C_3
REMARK    3  A    between atoms: C_3  and  C_5
REMARK    4  A    between atoms: C_3  and  N_6
REMARK    5  A    between atoms: C_13  and  C_20
REMARK    6  A    between atoms: C_14  and  C_19
REMARK    7  A    between atoms: C_15  and  C_18
REMARK    8  A    between atoms: C_20  and  N_22
REMARK                            x       y       z     vdW  Elec       q    Type
REMARK                         _______ _______ _______ _____ _____    ______ ____
ROOT
ATOM      1  N   UNL     1       2.423  -0.304   0.991  0.00  0.00    +0.383 N 
ATOM      2  C   UNL     1       2.596   1.150   1.101  0.00  0.00    -0.059 C 
ATOM      3  C   UNL     1       4.074   1.504   0.908  0.00  0.00    +0.088 C 
ATOM      4  N   UNL     1       4.870   0.724   1.867  0.00  0.00    -0.317 N 
ATOM      5  C   UNL     1       4.642  -0.728   1.938  0.00  0.00    +0.088 C 
ATOM      6  C   UNL     1       3.137  -0.977   2.083  0.00  0.00    -0.059 C 
ATOM      7  C   UNL     1       5.807   1.337   2.680  0.00  0.00    +0.153 A 
ATOM      8  C   UNL     1       7.159   1.391   2.289  0.00  0.00    +0.049 A 
ATOM      9  C   UNL     1       8.060   2.026   3.154  0.00  0.00    -0.015 A 
ATOM     10  C   UNL     1       7.561   2.557   4.332  0.00  0.00    +0.064 A 
ATOM     11  N   UNL     1       6.277   2.458   4.614  0.00  0.00    -0.152 NA
ATOM     12  N   UNL     1       5.439   1.885   3.830  0.00  0.00    -0.133 NA
ATOM     13  C   UNL     1       8.490   3.251   5.296  0.00  0.00    +0.068 C 
ATOM     14  C   UNL     1       9.524   2.128   2.814  0.00  0.00    +0.046 C 
ATOM     15  H   UNL     1       2.793  -0.618   0.106  0.00  0.00    -0.081 HD
ENDROOT
BRANCH   1  16
ATOM     16  C   UNL     1       0.994  -0.633   1.067  0.00  0.00    -0.072 C 
ATOM     17  C   UNL     1       0.465  -0.292   2.462  0.00  0.00    -0.013 C 
BRANCH  16  19
ATOM     18  C   UNL     1       1.200  -2.442  -0.644  0.00  0.00    +0.002 C 
ATOM     19  C   UNL     1       0.799  -2.127   0.798  0.00  0.00    -0.019 C 
ENDBRANCH  16  19
ENDBRANCH   1  16
BRANCH   8  20
ATOM     20  C   UNL     1       7.611   0.800   1.016  0.00  0.00    +0.081 C 
ATOM     21  S   UNL     1       7.735   1.776  -0.385  0.00  0.00    -0.035 S 
BRANCH  20  22
ATOM     22  N   UNL     1       7.926  -0.509   0.955  0.00  0.00    -0.352 N 
ATOM     23  H   UNL     1       7.787  -1.078   1.728  0.00  0.00    +0.143 HD
ATOM     24  H   UNL     1       8.291  -0.882   0.138  0.00  0.00    +0.143 HD
ENDBRANCH  20  22
ENDBRANCH   8  20
TORSDOF 4
