REMARK  Name = ZINC62858471
REMARK  6 active torsions:
REMARK  status: ('A' for Active; 'I' for Inactive)
REMARK    1  A    between atoms: C_1  and  C_2
REMARK    2  A    between atoms: C_2  and  C_3
REMARK    3  A    between atoms: C_3  and  C_9
REMARK    4  A    between atoms: N_11  and  C_12
REMARK    5  A    between atoms: C_15  and  C_19
REMARK    6  A    between atoms: C_16  and  O_18
REMARK                            x       y       z     vdW  Elec       q    Type
REMARK                         _______ _______ _______ _____ _____    ______ ____
ROOT
ATOM      1  C   UNL     1       0.732  -0.021  -2.672  0.00  0.00    +0.222 C 
ATOM      2  O   UNL     1       0.690  -0.787  -3.612  0.00  0.00    -0.275 OA
ATOM      3  N   UNL     1       0.194   1.210  -2.783  0.00  0.00    -0.285 N 
ATOM      4  H   UNL     1       0.139   1.786  -2.004  0.00  0.00    +0.155 HD
ENDROOT
BRANCH   1   5
ATOM      5  C   UNL     1       1.385  -0.445  -1.382  0.00  0.00    +0.032 C 
ATOM      6  C   UNL     1       2.332   0.658  -0.900  0.00  0.00    +0.012 C 
ATOM      7  C   UNL     1       3.449   0.845  -1.931  0.00  0.00    -0.018 C 
ATOM      8  C   UNL     1       4.171  -0.488  -2.141  0.00  0.00    -0.083 C 
ATOM      9  N   UNL     1       3.218  -1.493  -2.627  0.00  0.00    +0.380 N 
ATOM     10  C   UNL     1       2.184  -1.730  -1.613  0.00  0.00    -0.066 C 
ATOM     11  H   UNL     1       2.785  -1.162  -3.476  0.00  0.00    -0.086 HD
ATOM     12  H   UNL     1       3.707  -2.355  -2.815  0.00  0.00    -0.086 HD
BRANCH   5  14
ATOM     13  C   UNL     1      -0.694  -1.722  -0.848  0.00  0.00    +0.005 C 
ATOM     14  C   UNL     1       0.310  -0.694  -0.323  0.00  0.00    +0.011 C 
ENDBRANCH   5  14
ENDBRANCH   1   5
BRANCH   3  15
ATOM     15  C   UNL     1      -0.281   1.655  -4.014  0.00  0.00    +0.037 A 
ATOM     16  C   UNL     1      -0.912   0.762  -4.878  0.00  0.00    +0.024 A 
ATOM     17  C   UNL     1      -1.382   1.186  -6.087  0.00  0.00    +0.020 A 
ATOM     18  C   UNL     1      -1.232   2.526  -6.468  0.00  0.00    +0.105 A 
ATOM     19  C   UNL     1      -0.597   3.430  -5.600  0.00  0.00    +0.133 A 
ATOM     20  C   UNL     1      -0.130   2.988  -4.374  0.00  0.00    +0.069 A 
BRANCH  18  21
ATOM     21  C   UNL     1      -1.737   2.983  -7.769  0.00  0.00    +0.390 C 
ATOM     22  O   UNL     1      -2.289   2.194  -8.523  0.00  0.00    -0.240 OA
ATOM     23  O   UNL     1      -1.604   4.154  -8.099  0.00  0.00    -0.240 OA
ENDBRANCH  18  21
BRANCH  19  24
ATOM     24  O   UNL     1      -0.446   4.729  -5.959  0.00  0.00    -0.506 OA
ATOM     25  H   UNL     1      -1.181   5.298  -5.694  0.00  0.00    +0.292 HD
ENDBRANCH  19  24
ENDBRANCH   3  15
TORSDOF 5
