REMARK  Name = ZINC12296481
REMARK  9 active torsions:
REMARK  status: ('A' for Active; 'I' for Inactive)
REMARK    1  A    between atoms: C_1  and  C_2
REMARK    2  A    between atoms: N_6  and  O_7
REMARK    3  A    between atoms: O_7  and  C_8
REMARK    4  A    between atoms: C_8  and  C_9
REMARK    5  A    between atoms: N_11  and  C_12
REMARK    6  A    between atoms: C_12  and  C_13
REMARK    7  A    between atoms: C_25  and  C_34
REMARK    8  A    between atoms: C_30  and  C_31
REMARK    9  A    between atoms: C_30  and  O_33
REMARK                            x       y       z     vdW  Elec       q    Type
REMARK                         _______ _______ _______ _____ _____    ______ ____
ROOT
ATOM      1  C   UNL     1       3.154   5.185  -2.060  0.00  0.00    +0.016 C 
ATOM      2  C   UNL     1       1.642   5.043  -2.243  0.00  0.00    -0.007 C 
ATOM      3  C   UNL     1       1.370   5.328  -3.699  0.00  0.00    +0.017 C 
ATOM      4  C   UNL     1      -0.006   5.952  -3.925  0.00  0.00    +0.059 C 
ATOM      5  C   UNL     1      -0.100   7.186  -3.047  0.00  0.00    +0.080 C 
ATOM      6  N   UNL     1      -0.434   8.343  -3.523  0.00  0.00    -0.089 NA
ATOM      7  C   UNL     1       0.214   6.987  -1.618  0.00  0.00    +0.026 C 
ATOM      8  C   UNL     1       1.006   5.983  -1.268  0.00  0.00    -0.062 C 
ATOM      9  C   UNL     1       1.292   5.754   0.207  0.00  0.00    +0.031 C 
ATOM     10  C   UNL     1       0.940   4.296   0.524  0.00  0.00    +0.008 C 
ATOM     11  C   UNL     1       1.704   3.356  -0.411  0.00  0.00    -0.003 C 
ATOM     12  C   UNL     1       1.296   3.603  -1.864  0.00  0.00    +0.002 C 
ATOM     13  C   UNL     1       2.094   2.649  -2.760  0.00  0.00    +0.005 C 
ATOM     14  C   UNL     1       1.716   1.213  -2.410  0.00  0.00    +0.011 C 
ATOM     15  C   UNL     1       2.097   0.893  -0.962  0.00  0.00    +0.011 C 
ATOM     16  C   UNL     1       1.474   1.921  -0.002  0.00  0.00    +0.002 C 
ATOM     17  C   UNL     1      -0.019   1.542   0.011  0.00  0.00    +0.008 C 
ATOM     18  C   UNL     1       0.002  -0.004   0.002  0.00  0.00    +0.049 C 
ATOM     19  C   UNL     1       1.361  -0.422  -0.591  0.00  0.00    +0.132 C 
ATOM     20  C   UNL     1       3.612   0.774  -0.785  0.00  0.00    +0.015 C 
ENDROOT
BRANCH  19  21
ATOM     21  C   UNL     1       2.139  -1.172   0.409  0.00  0.00    -0.070 C 
ATOM     22  C   UNL     1       2.760  -1.770   1.206  0.00  0.00    +0.007 C 
ENDBRANCH  19  21
BRANCH  19  23
ATOM     23  O   UNL     1       1.162  -1.220  -1.759  0.00  0.00    -0.376 OA
ATOM     24  H   UNL     1       0.684  -2.045  -1.595  0.00  0.00    +0.211 HD
ENDBRANCH  19  23
BRANCH   6  25
ATOM     25  O   UNL     1      -0.726   8.485  -4.901  0.00  0.00    -0.384 OA
BRANCH  25  26
ATOM     26  C   UNL     1      -1.080   9.815  -5.286  0.00  0.00    +0.358 C 
BRANCH  26  27
ATOM     27  C   UNL     1      -1.368   9.849  -6.765  0.00  0.00    +0.254 C 
ATOM     28  O   UNL     1      -1.280   8.835  -7.424  0.00  0.00    -0.272 OA
ATOM     29  N   UNL     1      -1.725  11.007  -7.355  0.00  0.00    -0.302 N 
ATOM     30  H   UNL     1      -1.796  11.819  -6.828  0.00  0.00    +0.149 HD
BRANCH  29  31
ATOM     31  C   UNL     1      -2.005  11.041  -8.793  0.00  0.00    +0.229 C 
BRANCH  31  32
ATOM     32  C   UNL     1      -2.378  12.443  -9.199  0.00  0.00    +0.373 C 
ATOM     33  O   UNL     1      -2.407  13.324  -8.373  0.00  0.00    -0.245 OA
ATOM     34  O   UNL     1      -2.679  12.714 -10.479  0.00  0.00    -0.245 OA
ENDBRANCH  31  32
ENDBRANCH  29  31
ENDBRANCH  26  27
ENDBRANCH  25  26
ENDBRANCH   6  25
TORSDOF 7
