REMARK  Name = ZINC62188099
REMARK  11 active torsions:
REMARK  status: ('A' for Active; 'I' for Inactive)
REMARK    1  A    between atoms: C_1  and  C_2
REMARK    2  A    between atoms: C_2  and  N_3
REMARK    3  A    between atoms: N_3  and  C_4
REMARK    4  A    between atoms: N_3  and  C_6
REMARK    5  A    between atoms: C_4  and  C_5
REMARK    6  A    between atoms: C_6  and  C_7
REMARK    7  A    between atoms: C_9  and  N_23
REMARK    8  A    between atoms: C_12  and  C_22
REMARK    9  A    between atoms: C_14  and  C_21
REMARK   10  A    between atoms: C_18  and  C_19
REMARK   11  A    between atoms: C_18  and  C_20
REMARK                            x       y       z     vdW  Elec       q    Type
REMARK                         _______ _______ _______ _____ _____    ______ ____
ROOT
ATOM      1  C   UNL     1      -1.152  -2.426  -0.785  0.00  0.00    +0.005 C 
ATOM      2  C   UNL     1      -1.767  -1.255  -0.015  0.00  0.00    -0.035 C 
ATOM      3  C   UNL     1      -1.352  -1.327   1.433  0.00  0.00    -0.017 A 
ATOM      4  C   UNL     1      -1.475  -0.192   2.218  0.00  0.00    -0.045 A 
ATOM      5  C   UNL     1      -1.108  -0.222   3.549  0.00  0.00    +0.007 A 
ATOM      6  C   UNL     1      -0.616  -1.389   4.104  0.00  0.00    -0.047 A 
ATOM      7  C   UNL     1      -0.490  -2.522   3.327  0.00  0.00    +0.049 A 
ATOM      8  C   UNL     1      -0.857  -2.495   1.985  0.00  0.00    +0.123 A 
ATOM      9  O   UNL     1      -0.708  -3.627   1.249  0.00  0.00    -0.486 OA
ATOM     10  C   UNL     1      -1.410  -3.714   0.007  0.00  0.00    +0.105 C 
ATOM     11  C   UNL     1      -0.904  -4.919  -0.789  0.00  0.00    +0.055 C 
ATOM     12  C   UNL     1      -2.909  -3.864   0.273  0.00  0.00    +0.055 C 
ATOM     13  C   UNL     1      -0.217  -1.423   5.557  0.00  0.00    +0.044 C 
ATOM     14  C   UNL     1      -2.012   1.081   1.617  0.00  0.00    +0.044 C 
ENDROOT
BRANCH   2  15
ATOM     15  N   UNL     1      -3.231  -1.325  -0.107  0.00  0.00    +0.383 N 
ATOM     16  H   UNL     1      -3.508  -2.260  -0.367  0.00  0.00    -0.089 HD
ATOM     17  H   UNL     1      -3.636  -1.092   0.787  0.00  0.00    -0.089 HD
ATOM     18  H   UNL     1      -3.556  -0.672  -0.804  0.00  0.00    -0.089 HD
ENDBRANCH   2  15
BRANCH   1  19
ATOM     19  C   UNL     1       0.355  -2.208  -0.938  0.00  0.00    -0.073 C 
BRANCH  19  20
ATOM     20  N   UNL     1       0.596  -1.029  -1.781  0.00  0.00    +0.380 N 
ATOM     21  H   UNL     1       0.113  -0.233  -1.392  0.00  0.00    -0.082 HD
BRANCH  20  23
ATOM     22  C   UNL     1       2.525  -0.331  -0.443  0.00  0.00    -0.017 C 
ATOM     23  C   UNL     1       2.037  -0.750  -1.831  0.00  0.00    -0.082 C 
ENDBRANCH  20  23
BRANCH  20  24
ATOM     24  C   UNL     1       0.099  -1.288  -3.139  0.00  0.00    -0.082 C 
ATOM     25  C   UNL     1       0.210  -0.011  -3.974  0.00  0.00    -0.017 C 
ENDBRANCH  20  24
ENDBRANCH  19  20
ENDBRANCH   1  19
TORSDOF 5
