REMARK  Name = ZINC42246958
REMARK  7 active torsions:
REMARK  status: ('A' for Active; 'I' for Inactive)
REMARK    1  A    between atoms: C_1  and  C_2
REMARK    2  A    between atoms: C_8  and  N_10
REMARK    3  A    between atoms: N_10  and  C_11
REMARK    4  A    between atoms: N_10  and  C_12
REMARK    5  A    between atoms: C_12  and  C_13
REMARK    6  A    between atoms: C_13  and  C_15
REMARK    7  A    between atoms: C_13  and  O_24
REMARK                            x       y       z     vdW  Elec       q    Type
REMARK                         _______ _______ _______ _____ _____    ______ ____
ROOT
ATOM      1  C   UNL     1       4.425  -0.459   2.443  0.00  0.00    +0.128 C 
ENDROOT
BRANCH   1   2
ATOM      2  C   UNL     1       5.112  -1.155   3.590  0.00  0.00    -0.017 A 
ATOM      3  C   UNL     1       5.536  -2.464   3.448  0.00  0.00    +0.010 A 
ATOM      4  C   UNL     1       6.167  -3.106   4.497  0.00  0.00    +0.050 A 
ATOM      5  C   UNL     1       6.376  -2.440   5.694  0.00  0.00    +0.166 A 
ATOM      6  C   UNL     1       5.950  -1.122   5.836  0.00  0.00    +0.167 A 
ATOM      7  C   UNL     1       5.323  -0.482   4.779  0.00  0.00    +0.055 A 
ATOM      8  O   UNL     1       6.268  -0.694   7.092  0.00  0.00    -0.453 OA
ATOM      9  C   UNL     1       6.526  -1.889   7.852  0.00  0.00    +0.466 C 
ATOM     10  O   UNL     1       6.962  -2.837   6.861  0.00  0.00    -0.453 OA
ENDBRANCH   1   2
BRANCH   1  11
ATOM     11  O   UNL     1       4.989  -0.906   1.208  0.00  0.00    -0.389 OA
ATOM     12  H   UNL     1       4.902  -1.858   1.058  0.00  0.00    +0.210 HD
ENDBRANCH   1  11
BRANCH   1  13
ATOM     13  C   UNL     1       2.931  -0.786   2.470  0.00  0.00    -0.042 C 
BRANCH  13  14
ATOM     14  N   UNL     1       2.261  -0.107   1.353  0.00  0.00    +0.382 N 
ATOM     15  C   UNL     1       2.345   1.347   1.542  0.00  0.00    -0.096 C 
ATOM     16  H   UNL     1       2.713  -0.360   0.486  0.00  0.00    -0.082 HD
BRANCH  14  23
ATOM     17  C   UNL     1       1.406  -2.244  -0.409  0.00  0.00    +0.006 C 
ATOM     18  C   UNL     1       0.761  -2.002   0.956  0.00  0.00    -0.028 C 
ATOM     19  C   UNL     1      -0.708  -2.426   0.908  0.00  0.00    +0.002 C 
ATOM     20  C   UNL     1      -1.354  -2.184   2.274  0.00  0.00    +0.000 C 
ATOM     21  C   UNL     1      -1.264  -0.698   2.625  0.00  0.00    -0.002 C 
ATOM     22  C   UNL     1       0.205  -0.273   2.672  0.00  0.00    -0.015 C 
ATOM     23  C   UNL     1       0.851  -0.515   1.307  0.00  0.00    -0.066 C 
ENDBRANCH  14  23
ENDBRANCH  13  14
ENDBRANCH   1  13
TORSDOF 5
