REMARK  Name = ZINC40076708
REMARK  9 active torsions:
REMARK  status: ('A' for Active; 'I' for Inactive)
REMARK    1  A    between atoms: C_1  and  O_2
REMARK    2  A    between atoms: O_2  and  C_3
REMARK    3  A    between atoms: C_5  and  C_11
REMARK    4  A    between atoms: C_8  and  O_9
REMARK    5  A    between atoms: C_13  and  C_22
REMARK    6  A    between atoms: N_17  and  C_18
REMARK    7  A    between atoms: C_18  and  C_19
REMARK    8  A    between atoms: C_19  and  O_20
REMARK    9  A    between atoms: C_22  and  C_24
REMARK                            x       y       z     vdW  Elec       q    Type
REMARK                         _______ _______ _______ _____ _____    ______ ____
ROOT
ATOM      1  C   UNL     1       2.637   0.248   4.035  0.00  0.00    +0.145 C 
ATOM      2  C   UNL     1       4.085   0.592   3.776  0.00  0.00    +0.076 C 
ATOM      3  C   UNL     1       4.796   0.101   4.818  0.00  0.00    +0.249 C 
ATOM      4  C   UNL     1       3.874  -0.560   5.766  0.00  0.00    +0.288 C 
ATOM      5  O   UNL     1       4.208  -1.099   6.802  0.00  0.00    -0.266 OA
ATOM      6  N   UNL     1       2.609  -0.476   5.312  0.00  0.00    -0.281 N 
ATOM      7  O   UNL     1       6.137   0.200   4.969  0.00  0.00    -0.282 OA
ENDROOT
BRANCH   1  10
ATOM      8  C   UNL     1       0.657  -0.949   1.049  0.00  0.00    +0.163 A 
ATOM      9  C   UNL     1       1.145  -0.144   2.066  0.00  0.00    +0.055 A 
ATOM     10  C   UNL     1       2.108  -0.629   2.930  0.00  0.00    -0.018 A 
ATOM     11  C   UNL     1       2.587  -1.918   2.783  0.00  0.00    +0.025 A 
ATOM     12  C   UNL     1       2.104  -2.727   1.770  0.00  0.00    +0.063 A 
ATOM     13  C   UNL     1       1.134  -2.248   0.904  0.00  0.00    +0.173 A 
ATOM     14 BR   UNL     1       2.763  -4.488   1.571  0.00  0.00    -0.046 Br
BRANCH   8  16
ATOM     15  C   UNL     1      -0.654   0.903   0.336  0.00  0.00    +0.277 C 
ATOM     16  O   UNL     1      -0.291  -0.472   0.197  0.00  0.00    -0.491 OA
ENDBRANCH   8  16
BRANCH  13  17
ATOM     17  O   UNL     1       0.654  -3.043  -0.089  0.00  0.00    -0.503 OA
ATOM     18  H   UNL     1       1.149  -2.980  -0.918  0.00  0.00    +0.292 HD
ENDBRANCH  13  17
ENDBRANCH   1  10
BRANCH   2  19
ATOM     19  C   UNL     1       4.618   1.318   2.619  0.00  0.00    +0.195 C 
ATOM     20  O   UNL     1       5.447   0.792   1.900  0.00  0.00    -0.287 OA
BRANCH  19  21
ATOM     21  C   UNL     1       4.149   2.689   2.327  0.00  0.00    +0.022 A 
ATOM     22  C   UNL     1       3.290   3.340   3.215  0.00  0.00    +0.013 A 
ATOM     23  C   UNL     1       2.856   4.619   2.936  0.00  0.00    +0.021 A 
ATOM     24  C   UNL     1       3.269   5.257   1.778  0.00  0.00    +0.041 A 
ATOM     25  C   UNL     1       4.122   4.616   0.894  0.00  0.00    +0.021 A 
ATOM     26  C   UNL     1       4.567   3.340   1.164  0.00  0.00    +0.013 A 
ATOM     27 CL   UNL     1       2.718   6.867   1.434  0.00  0.00    -0.084 Cl
ENDBRANCH  19  21
ENDBRANCH   2  19
BRANCH   6  28
ATOM     28  C   UNL     1       1.417  -1.012   5.973  0.00  0.00    +0.137 C 
BRANCH  28  29
ATOM     29  C   UNL     1       1.172  -2.446   5.499  0.00  0.00    +0.175 C 
BRANCH  29  30
ATOM     30  O   UNL     1       2.249  -3.280   5.929  0.00  0.00    -0.393 OA
ATOM     31  H   UNL     1       2.160  -4.205   5.663  0.00  0.00    +0.209 HD
ENDBRANCH  29  30
ENDBRANCH  28  29
ENDBRANCH   6  28
TORSDOF 8
