REMARK  Name = ZINC59180939
REMARK  8 active torsions:
REMARK  status: ('A' for Active; 'I' for Inactive)
REMARK    1  A    between atoms: C_1  and  C_2
REMARK    2  A    between atoms: C_2  and  C_3
REMARK    3  A    between atoms: C_2  and  C_4
REMARK    4  A    between atoms: C_2  and  C_5
REMARK    5  A    between atoms: C_8  and  C_10
REMARK    6  A    between atoms: C_10  and  N_11
REMARK    7  A    between atoms: N_11  and  C_12
REMARK    8  A    between atoms: C_18  and  C_20
REMARK                            x       y       z     vdW  Elec       q    Type
REMARK                         _______ _______ _______ _____ _____    ______ ____
ROOT
ATOM      1  N   UNL     1       2.323  -3.549  -4.588  0.00  0.00    +0.384 N 
ATOM      2  H   UNL     1       3.204  -3.403  -4.118  0.00  0.00    -0.085 HD
ATOM      3  H   UNL     1       1.714  -4.098  -4.000  0.00  0.00    -0.085 HD
ENDROOT
BRANCH   1   4
ATOM      4  C   UNL     1       2.555  -4.260  -5.852  0.00  0.00    -0.060 C 
ATOM      5  C   UNL     1       1.213  -4.553  -6.526  0.00  0.00    -0.015 C 
ATOM      6  C   UNL     1       1.454  -5.294  -7.843  0.00  0.00    -0.002 C 
ATOM      7  C   UNL     1       2.182  -6.610  -7.562  0.00  0.00    +0.000 C 
ATOM      8  C   UNL     1       3.524  -6.317  -6.888  0.00  0.00    +0.010 C 
ATOM      9  C   UNL     1       3.283  -5.576  -5.571  0.00  0.00    +0.079 C 
BRANCH   9  10
ATOM     10  C   UNL     1       4.625  -5.283  -4.897  0.00  0.00    +0.391 C 
ATOM     11  F   UNL     1       4.400  -4.737  -3.629  0.00  0.00    -0.171 F 
ATOM     12  F   UNL     1       5.353  -6.471  -4.772  0.00  0.00    -0.171 F 
ATOM     13  F   UNL     1       5.348  -4.373  -5.675  0.00  0.00    -0.171 F 
ENDBRANCH   9  10
ENDBRANCH   1   4
BRANCH   1  14
ATOM     14  C   UNL     1       1.696  -2.250  -4.865  0.00  0.00    -0.037 C 
BRANCH  14  18
ATOM     15  C   UNL     1       0.611  -0.480  -1.321  0.00  0.00    +0.084 A 
ATOM     16  N   UNL     1       1.799  -0.159  -1.770  0.00  0.00    -0.252 NA
ATOM     17  C   UNL     1       2.265  -0.660  -2.897  0.00  0.00    +0.120 A 
ATOM     18  C   UNL     1       1.458  -1.520  -3.568  0.00  0.00    -0.007 A 
ATOM     19  S   UNL     1       0.038  -1.553  -2.485  0.00  0.00    -0.078 S 
BRANCH  15  21
ATOM     20  C   UNL     1      -0.234   1.513  -0.112  0.00  0.00    +0.017 C 
ATOM     21  C   UNL     1      -0.074  -0.008  -0.065  0.00  0.00    +0.011 C 
ATOM     22  C   UNL     1       0.769  -0.394   1.152  0.00  0.00    +0.017 C 
ATOM     23  C   UNL     1      -1.452  -0.663   0.041  0.00  0.00    +0.017 C 
ENDBRANCH  15  21
ENDBRANCH  14  18
ENDBRANCH   1  14
TORSDOF 5
