REMARK  Name = ZINC52131788
REMARK  4 active torsions:
REMARK  status: ('A' for Active; 'I' for Inactive)
REMARK    1  A    between atoms: C_4  and  C_7
REMARK    2  A    between atoms: N_12  and  C_13
REMARK    3  A    between atoms: C_13  and  C_14
REMARK    4  A    between atoms: N_16  and  C_17
REMARK                            x       y       z     vdW  Elec       q    Type
REMARK                         _______ _______ _______ _____ _____    ______ ____
ROOT
ATOM      1  C   UNL     1       2.148  -2.430  -3.703  0.00  0.00    +0.019 C 
ENDROOT
BRANCH   1   6
ATOM      2  C   UNL     1       2.746  -0.453  -2.469  0.00  0.00    -0.065 C 
ATOM      3  C   UNL     1       4.205   0.042  -2.392  0.00  0.00    -0.017 C 
ATOM      4  C   UNL     1       4.955  -1.173  -1.786  0.00  0.00    -0.020 C 
ATOM      5  C   UNL     1       4.198  -2.361  -2.429  0.00  0.00    -0.078 C 
ATOM      6  N   UNL     1       2.781  -1.927  -2.477  0.00  0.00    +0.387 N 
ATOM      7  H   UNL     1       2.289  -2.283  -1.671  0.00  0.00    -0.081 HD
BRANCH   2  11
ATOM      8  C   UNL     1      -0.277   1.534  -0.095  0.00  0.00    +0.000 C 
ATOM      9  C   UNL     1       1.156   2.067  -0.030  0.00  0.00    +0.000 C 
ATOM     10  C   UNL     1       1.939   1.572  -1.248  0.00  0.00    +0.002 C 
ATOM     11  C   UNL     1       1.963   0.042  -1.251  0.00  0.00    -0.025 C 
ATOM     12  C   UNL     1       0.530  -0.491  -1.316  0.00  0.00    +0.002 C 
ATOM     13  C   UNL     1      -0.253   0.005  -0.098  0.00  0.00    +0.000 C 
ENDBRANCH   2  11
ENDBRANCH   1   6
BRANCH   1  14
ATOM     14  C   UNL     1       2.076  -3.935  -3.651  0.00  0.00    +0.197 C 
ATOM     15  O   UNL     1       2.510  -4.529  -2.687  0.00  0.00    -0.278 OA
ATOM     16  N   UNL     1       1.530  -4.620  -4.675  0.00  0.00    -0.306 N 
ATOM     17  H   UNL     1       1.184  -4.144  -5.446  0.00  0.00    +0.149 HD
BRANCH  16  18
ATOM     18  C   UNL     1       1.461  -6.082  -4.624  0.00  0.00    +0.159 C 
ATOM     19  C   UNL     1       1.186  -6.633  -6.025  0.00  0.00    +0.032 C 
ATOM     20  C   UNL     1       0.277  -5.698  -6.802  0.00  0.00    +0.004 C 
ATOM     21  C   UNL     1      -1.130  -5.605  -6.241  0.00  0.00    +0.019 C 
ATOM     22  C   UNL     1      -1.127  -4.932  -4.867  0.00  0.00    +0.104 C 
ATOM     23  N   UNL     1      -0.879  -5.958  -3.841  0.00  0.00    -0.314 N 
ATOM     24  C   UNL     1       0.333  -6.506  -3.707  0.00  0.00    +0.233 C 
ATOM     25  O   UNL     1       0.530  -7.347  -2.855  0.00  0.00    -0.274 OA
ATOM     26  H   UNL     1      -1.600  -6.237  -3.255  0.00  0.00    +0.149 HD
ENDBRANCH  16  18
ENDBRANCH   1  14
TORSDOF 4
