REMARK  Name = ZINC57239518
REMARK  9 active torsions:
REMARK  status: ('A' for Active; 'I' for Inactive)
REMARK    1  A    between atoms: C_1  and  C_2
REMARK    2  A    between atoms: N_8  and  C_9
REMARK    3  A    between atoms: C_12  and  C_15
REMARK    4  A    between atoms: N_17  and  C_18
REMARK    5  A    between atoms: N_17  and  C_25
REMARK    6  A    between atoms: C_18  and  C_19
REMARK    7  A    between atoms: N_22  and  C_24
REMARK    8  A    between atoms: C_25  and  C_26
REMARK    9  A    between atoms: C_25  and  C_27
REMARK                            x       y       z     vdW  Elec       q    Type
REMARK                         _______ _______ _______ _____ _____    ______ ____
ROOT
ATOM      1  C   UNL     1       0.695   0.150   2.422  0.00  0.00    +0.051 A 
ATOM      2  C   UNL     1      -0.443   0.812   2.870  0.00  0.00    +0.027 A 
ATOM      3  C   UNL     1      -0.721   0.872   4.218  0.00  0.00    +0.015 A 
ATOM      4  C   UNL     1       0.143   0.266   5.135  0.00  0.00    +0.037 A 
ATOM      5  C   UNL     1       1.285  -0.398   4.680  0.00  0.00    +0.015 A 
ATOM      6  C   UNL     1       1.554  -0.458   3.331  0.00  0.00    +0.027 A 
ENDROOT
BRANCH   1  14
ATOM      7  C   UNL     1       3.316   1.171   1.125  0.00  0.00    +0.065 C 
ATOM      8  C   UNL     1       2.134   0.538   0.438  0.00  0.00    +0.041 A 
ATOM      9  C   UNL     1       2.021   0.302  -0.865  0.00  0.00    +0.109 A 
ATOM     10  N   UNL     1       0.786  -0.289  -1.086  0.00  0.00    -0.312 N 
ATOM     11  H   UNL     1       0.435  -0.571  -1.945  0.00  0.00    +0.170 HD
ATOM     12  C   UNL     1       0.160  -0.406   0.102  0.00  0.00    +0.331 A 
ATOM     13  O   UNL     1      -0.946  -0.882   0.283  0.00  0.00    -0.246 OA
ATOM     14  N   UNL     1       0.973   0.091   1.055  0.00  0.00    -0.266 N 
ENDBRANCH   1  14
BRANCH   4  15
ATOM     15  C   UNL     1      -0.151   0.329   6.580  0.00  0.00    +0.247 C 
ATOM     16  O   UNL     1      -0.689   1.313   7.049  0.00  0.00    -0.270 OA
ATOM     17  N   UNL     1       0.177  -0.705   7.379  0.00  0.00    -0.291 N 
BRANCH  17  18
ATOM     18  C   UNL     1       0.703  -1.943   6.798  0.00  0.00    +0.071 C 
ATOM     19  C   UNL     1       2.100  -2.216   7.358  0.00  0.00    +0.028 C 
ATOM     20  C   UNL     1      -0.224  -3.107   7.151  0.00  0.00    +0.028 C 
ENDBRANCH  17  18
BRANCH  17  21
ATOM     21  C   UNL     1       0.007  -0.592   8.830  0.00  0.00    +0.146 C 
BRANCH  21  22
ATOM     22  C   UNL     1      -1.424  -0.896   9.194  0.00  0.00    +0.007 A 
ATOM     23  C   UNL     1      -2.498  -0.003   9.124  0.00  0.00    +0.139 A 
ATOM     24  N   UNL     1      -3.576  -0.629   9.519  0.00  0.00    -0.180 NA
ATOM     25  N   UNL     1      -3.222  -1.943   9.853  0.00  0.00    -0.274 N 
ATOM     26  C   UNL     1      -1.897  -2.083   9.639  0.00  0.00    +0.113 A 
ATOM     27  C   UNL     1      -4.131  -2.983  10.341  0.00  0.00    +0.172 C 
ENDBRANCH  21  22
ENDBRANCH  17  21
ENDBRANCH   4  15
TORSDOF 5
