REMARK  Name = ZINC58021338
REMARK  7 active torsions:
REMARK  status: ('A' for Active; 'I' for Inactive)
REMARK    1  A    between atoms: C_1  and  C_2
REMARK    2  A    between atoms: C_2  and  C_3
REMARK    3  A    between atoms: C_2  and  O_4
REMARK    4  A    between atoms: O_4  and  C_5
REMARK    5  A    between atoms: C_8  and  C_11
REMARK    6  A    between atoms: C_16  and  C_19
REMARK    7  A    between atoms: C_19  and  N_20
REMARK                            x       y       z     vdW  Elec       q    Type
REMARK                         _______ _______ _______ _____ _____    ______ ____
ROOT
ATOM      1  C   UNL     1       6.264  -0.828  -0.945  0.00  0.00    +0.064 A 
ATOM      2  C   UNL     1       6.845  -1.781  -0.190  0.00  0.00    +0.075 A 
ATOM      3  S   UNL     1       8.581  -1.463  -0.463  0.00  0.00    -0.055 S 
ATOM      4  C   UNL     1       8.403  -0.082  -1.565  0.00  0.00    +0.200 A 
ATOM      5  N   UNL     1       7.041   0.057  -1.667  0.00  0.00    -0.274 N 
ATOM      6  C   UNL     1       6.885   1.127  -2.528  0.00  0.00    +0.121 A 
ATOM      7  N   UNL     1       8.071   1.540  -2.874  0.00  0.00    -0.135 NA
ATOM      8  N   UNL     1       8.974   0.827  -2.297  0.00  0.00    -0.122 NA
ENDROOT
BRANCH   1  12
ATOM      9  C   UNL     1       2.026  -0.553  -1.118  0.00  0.00    +0.121 A 
ATOM     10  C   UNL     1       2.687  -0.308   0.078  0.00  0.00    +0.046 A 
ATOM     11  C   UNL     1       4.062  -0.396   0.138  0.00  0.00    +0.013 A 
ATOM     12  C   UNL     1       4.789  -0.733  -1.005  0.00  0.00    -0.000 A 
ATOM     13  C   UNL     1       4.120  -0.978  -2.205  0.00  0.00    +0.013 A 
ATOM     14  C   UNL     1       2.745  -0.893  -2.256  0.00  0.00    +0.046 A 
BRANCH   9  15
ATOM     15  O   UNL     1       0.671  -0.465  -1.174  0.00  0.00    -0.489 OA
BRANCH  15  17
ATOM     16  C   UNL     1      -0.044   1.273   0.346  0.00  0.00    +0.051 C 
ATOM     17  C   UNL     1      -0.015  -0.229   0.058  0.00  0.00    +0.167 C 
ATOM     18  C   UNL     1      -1.447  -0.756  -0.047  0.00  0.00    +0.051 C 
ENDBRANCH  15  17
ENDBRANCH   9  15
ENDBRANCH   1  12
BRANCH   6  19
ATOM     19  C   UNL     1       5.574   1.713  -2.985  0.00  0.00    -0.008 C 
BRANCH  19  20
ATOM     20  N   UNL     1       5.160   2.772  -2.055  0.00  0.00    +0.383 N 
ATOM     21  H   UNL     1       5.050   2.384  -1.131  0.00  0.00    -0.089 HD
ATOM     22  H   UNL     1       5.863   3.495  -2.035  0.00  0.00    -0.089 HD
ATOM     23  H   UNL     1       4.282   3.164  -2.362  0.00  0.00    -0.089 HD
ENDBRANCH  19  20
ENDBRANCH   6  19
TORSDOF 5
