REMARK  Name = ZINC13197188
REMARK  4 active torsions:
REMARK  status: ('A' for Active; 'I' for Inactive)
REMARK    1  A    between atoms: C_6  and  S_7
REMARK    2  A    between atoms: S_7  and  O_10
REMARK    3  A    between atoms: O_10  and  C_11
REMARK    4  A    between atoms: C_16  and  C_17
REMARK                            x       y       z     vdW  Elec       q    Type
REMARK                         _______ _______ _______ _____ _____    ______ ____
ROOT
ATOM      1  S   UNL     1      -1.514  -0.902   0.012  0.00  0.00    +0.151 S 
ATOM      2  O   UNL     1      -1.223  -2.183   0.553  0.00  0.00    -0.131 OA
ATOM      3  O   UNL     1      -2.493  -0.041   0.577  0.00  0.00    -0.131 OA
ENDROOT
BRANCH   1   9
ATOM      4  C   UNL     1      -0.017   1.380   0.010  0.00  0.00    +0.033 A 
ATOM      5  C   UNL     1       1.167   2.093   0.002  0.00  0.00    +0.030 A 
ATOM      6  C   UNL     1       2.378   1.419  -0.013  0.00  0.00    +0.067 A 
ATOM      7  C   UNL     1       2.397   0.022  -0.021  0.00  0.00    +0.069 A 
ATOM      8  C   UNL     1       1.204  -0.684  -0.014  0.00  0.00    +0.058 A 
ATOM      9  C   UNL     1       0.002  -0.004   0.002  0.00  0.00    +0.130 A 
ATOM     10  N   UNL     1       3.736  -0.362  -0.035  0.00  0.00    -0.306 N 
ATOM     11  H   UNL     1       4.064  -1.275  -0.043  0.00  0.00    +0.170 HD
ATOM     12  C   UNL     1       4.496   0.749  -0.035  0.00  0.00    +0.325 A 
ATOM     13  O   UNL     1       5.713   0.766  -0.047  0.00  0.00    -0.247 OA
ATOM     14  N   UNL     1       3.706   1.839  -0.023  0.00  0.00    -0.306 N 
ATOM     15  H   UNL     1       4.010   2.760  -0.020  0.00  0.00    +0.170 HD
ENDBRANCH   1   9
BRANCH   1  16
ATOM     16  O   UNL     1      -1.915  -1.123  -1.439  0.00  0.00    -0.341 OA
BRANCH  16  17
ATOM     17  C   UNL     1      -1.189  -2.077  -2.073  0.00  0.00    +0.171 A 
ATOM     18  C   UNL     1      -0.021  -1.735  -2.740  0.00  0.00    +0.050 A 
ATOM     19  C   UNL     1       0.718  -2.706  -3.385  0.00  0.00    +0.018 A 
ATOM     20  C   UNL     1       0.302  -4.028  -3.372  0.00  0.00    +0.014 A 
ATOM     21  C   UNL     1      -0.855  -4.387  -2.716  0.00  0.00    +0.033 A 
ATOM     22  C   UNL     1      -1.611  -3.415  -2.053  0.00  0.00    +0.109 A 
ATOM     23  I   UNL     1       1.438  -5.488  -4.357  0.00  0.00    -0.044 I 
BRANCH  22  24
ATOM     24  C   UNL     1      -2.844  -3.791  -1.344  0.00  0.00    +0.390 C 
ATOM     25  O   UNL     1      -3.208  -4.959  -1.329  0.00  0.00    -0.240 OA
ATOM     26  O   UNL     1      -3.505  -2.937  -0.770  0.00  0.00    -0.240 OA
ENDBRANCH  22  24
ENDBRANCH  16  17
ENDBRANCH   1  16
TORSDOF 4
