REMARK  Name = ZINC43258092
REMARK  6 active torsions:
REMARK  status: ('A' for Active; 'I' for Inactive)
REMARK    1  A    between atoms: C_1  and  C_2
REMARK    2  A    between atoms: N_10  and  C_11
REMARK    3  A    between atoms: C_11  and  C_12
REMARK    4  A    between atoms: C_12  and  N_18
REMARK    5  A    between atoms: N_18  and  C_19
REMARK    6  A    between atoms: N_18  and  C_20
REMARK                            x       y       z     vdW  Elec       q    Type
REMARK                         _______ _______ _______ _____ _____    ______ ____
ROOT
ATOM      1  C   UNL     1      -5.382  -6.270  -3.831  0.00  0.00    +0.066 C 
ATOM      2  C   UNL     1      -4.159  -6.046  -2.979  0.00  0.00    +0.047 A 
ATOM      3  C   UNL     1      -3.132  -5.271  -3.405  0.00  0.00    +0.071 A 
ATOM      4  S   UNL     1      -2.025  -5.389  -2.009  0.00  0.00    -0.060 S 
ATOM      5  C   UNL     1      -2.970  -6.395  -1.047  0.00  0.00    +0.166 A 
ATOM      6  N   UNL     1      -4.043  -6.592  -1.782  0.00  0.00    -0.230 NA
ATOM      7  N   UNL     1      -2.688  -6.894   0.220  0.00  0.00    -0.248 N 
ATOM      8  C   UNL     1      -1.527  -6.575   0.826  0.00  0.00    +0.305 C 
ATOM      9  O   UNL     1      -0.727  -5.853   0.265  0.00  0.00    -0.252 OA
ATOM     10  N   UNL     1      -1.254  -7.059   2.054  0.00  0.00    -0.300 N 
ATOM     11  H   UNL     1      -3.327  -7.470   0.668  0.00  0.00    +0.158 HD
ATOM     12  H   UNL     1      -1.893  -7.635   2.502  0.00  0.00    +0.150 HD
ENDROOT
BRANCH  10  13
ATOM     13  C   UNL     1       0.008  -6.713   2.713  0.00  0.00    +0.094 C 
BRANCH  13  14
ATOM     14  C   UNL     1       0.007  -7.267   4.139  0.00  0.00    -0.050 C 
ATOM     15  C   UNL     1       1.267  -6.796   4.870  0.00  0.00    -0.010 C 
ATOM     16  C   UNL     1       2.506  -7.301   4.127  0.00  0.00    -0.001 C 
ATOM     17  C   UNL     1       2.484  -8.830   4.081  0.00  0.00    -0.000 C 
ATOM     18  C   UNL     1       1.225  -9.301   3.350  0.00  0.00    -0.001 C 
ATOM     19  C   UNL     1      -0.014  -8.796   4.093  0.00  0.00    -0.010 C 
BRANCH  14  20
ATOM     20  N   UNL     1      -1.182  -6.782   4.852  0.00  0.00    +0.381 N 
ATOM     21  C   UNL     1      -1.165  -7.285   6.232  0.00  0.00    -0.096 C 
ATOM     22  C   UNL     1      -1.180  -5.313   4.867  0.00  0.00    -0.096 C 
ATOM     23  H   UNL     1      -2.013  -7.112   4.384  0.00  0.00    -0.082 HD
ENDBRANCH  14  20
ENDBRANCH  13  14
ENDBRANCH  10  13
TORSDOF 3
