REMARK  Name = ZINC12224609
REMARK  4 active torsions:
REMARK  status: ('A' for Active; 'I' for Inactive)
REMARK    1  A    between atoms: C_1  and  C_2
REMARK    2  A    between atoms: C_2  and  C_7
REMARK    3  A    between atoms: N_9  and  C_10
REMARK    4  A    between atoms: C_10  and  C_11
REMARK                            x       y       z     vdW  Elec       q    Type
REMARK                         _______ _______ _______ _____ _____    ______ ____
ROOT
ATOM      1  C   UNL     1      -5.137   1.444   3.578  0.00  0.00    -0.014 A 
ATOM      2  C   UNL     1      -6.296   1.839   2.923  0.00  0.00    +0.010 A 
ATOM      3  C   UNL     1      -7.205   2.626   3.607  0.00  0.00    +0.042 A 
ATOM      4  C   UNL     1      -6.929   2.993   4.921  0.00  0.00    +0.099 A 
ATOM      5  C   UNL     1      -4.930   1.840   4.884  0.00  0.00    +0.089 A 
ATOM      6  N   UNL     1      -7.833   3.783   5.620  0.00  0.00    -0.312 N 
ATOM      7  C   UNL     1      -8.100   5.038   4.903  0.00  0.00    +0.134 C 
ATOM      8  C   UNL     1      -9.143   5.849   5.676  0.00  0.00    +0.178 C 
ATOM      9  O   UNL     1      -8.673   6.076   7.007  0.00  0.00    -0.377 OA
ATOM     10  C   UNL     1      -8.403   4.875   7.735  0.00  0.00    +0.178 C 
ATOM     11  C   UNL     1      -7.353   4.054   6.983  0.00  0.00    +0.134 C 
ATOM     12  N   UNL     1      -5.797   2.618   5.585  0.00  0.00    -0.349 N 
ATOM     13  H   UNL     1      -5.613   2.905   6.553  0.00  0.00    +0.167 HD
ENDROOT
BRANCH   1  14
ATOM     14  C   UNL     1      -4.119   0.586   2.872  0.00  0.00    +0.141 C 
BRANCH  14  17
ATOM     15  C   UNL     1      -2.136   0.891   1.489  0.00  0.00    +0.222 C 
ATOM     16  O   UNL     1      -2.033  -0.316   1.422  0.00  0.00    -0.275 OA
ATOM     17  N   UNL     1      -3.146   1.443   2.190  0.00  0.00    -0.311 N 
ATOM     18  H   UNL     1      -3.229   2.408   2.244  0.00  0.00    +0.149 HD
BRANCH  15  20
ATOM     19  C   UNL     1      -0.801   3.086   1.498  0.00  0.00    +0.024 C 
ATOM     20  C   UNL     1      -1.136   1.773   0.788  0.00  0.00    +0.079 C 
ATOM     21  C   UNL     1      -0.013   1.086   0.008  0.00  0.00    +0.058 C 
ATOM     22  C   UNL     1      -1.150   1.781  -0.743  0.00  0.00    +0.133 C 
ATOM     23 CL   UNL     1      -0.772   3.338  -1.571  0.00  0.00    -0.100 Cl
ATOM     24 CL   UNL     1      -2.363   0.735  -1.570  0.00  0.00    -0.100 Cl
ENDBRANCH  15  20
ENDBRANCH  14  17
ENDBRANCH   1  14
TORSDOF 3
