REMARK  Name = ZINC37840278
REMARK  8 active torsions:
REMARK  status: ('A' for Active; 'I' for Inactive)
REMARK    1  A    between atoms: C_1  and  C_2
REMARK    2  A    between atoms: C_3  and  S_9
REMARK    3  A    between atoms: C_4  and  C_8
REMARK    4  A    between atoms: S_9  and  N_12
REMARK    5  A    between atoms: N_12  and  C_13
REMARK    6  A    between atoms: N_12  and  C_16
REMARK    7  A    between atoms: C_13  and  C_14
REMARK    8  A    between atoms: C_14  and  O_15
REMARK                            x       y       z     vdW  Elec       q    Type
REMARK                         _______ _______ _______ _____ _____    ______ ____
ROOT
ATOM      1  N   UNL     1       1.552  -0.203  -3.132  0.00  0.00    -0.170 NA
ENDROOT
BRANCH   1   2
ATOM      2  C   UNL     1       2.076   1.159  -2.998  0.00  0.00    +0.102 C 
ATOM      3  C   UNL     1       2.306   1.766  -4.392  0.00  0.00    +0.045 C 
ATOM      4  C   UNL     1       3.147   3.060  -4.272  0.00  0.00    +0.167 C 
ATOM      5  S   UNL     1       4.136   2.758  -2.751  0.00  0.00    -0.029 S 
ATOM      6  O   UNL     1       3.786   3.727  -1.772  0.00  0.00    -0.174 OA
ATOM      7  O   UNL     1       5.500   2.590  -3.112  0.00  0.00    -0.174 OA
ATOM      8  C   UNL     1       3.441   1.126  -2.254  0.00  0.00    +0.186 C 
ENDBRANCH   1   2
BRANCH   1   9
ATOM      9  S   UNL     1       0.160  -0.636  -2.347  0.00  0.00    +0.065 S 
ATOM     10  O   UNL     1      -0.305  -1.825  -2.971  0.00  0.00    -0.153 OA
ATOM     11  O   UNL     1      -0.636   0.538  -2.255  0.00  0.00    -0.153 OA
BRANCH   9  14
ATOM     12  C   UNL     1       0.356   1.243   0.340  0.00  0.00    +0.067 C 
ATOM     13  C   UNL     1       0.662  -0.233   0.360  0.00  0.00    +0.060 A 
ATOM     14  C   UNL     1       0.606  -1.073  -0.700  0.00  0.00    +0.148 A 
ATOM     15  C   UNL     1       0.963  -2.350  -0.255  0.00  0.00    +0.086 A 
ATOM     16  N   UNL     1       1.225  -2.279   1.025  0.00  0.00    -0.177 NA
ATOM     17  N   UNL     1       1.047  -0.952   1.435  0.00  0.00    -0.280 N 
ATOM     18  H   UNL     1       1.175  -0.610   2.333  0.00  0.00    +0.189 HD
ATOM     19  C   UNL     1       1.034  -3.593  -1.104  0.00  0.00    +0.069 C 
ENDBRANCH   9  14
ENDBRANCH   1   9
BRANCH   1  20
ATOM     20  C   UNL     1       2.260  -1.182  -3.961  0.00  0.00    +0.137 C 
BRANCH  20  21
ATOM     21  C   UNL     1       1.456  -1.448  -5.235  0.00  0.00    +0.173 C 
BRANCH  21  22
ATOM     22  O   UNL     1       1.418  -0.262  -6.031  0.00  0.00    -0.394 OA
ATOM     23  H   UNL     1       0.923  -0.358  -6.856  0.00  0.00    +0.209 HD
ENDBRANCH  21  22
ENDBRANCH  20  21
ENDBRANCH   1  20
TORSDOF 6
