REMARK  Name = ZINC09380532
REMARK  14 active torsions:
REMARK  status: ('A' for Active; 'I' for Inactive)
REMARK    1  A    between atoms: C_1  and  C_2
REMARK    2  A    between atoms: C_2  and  N_59
REMARK    3  A    between atoms: C_3  and  C_4
REMARK    4  A    between atoms: C_3  and  N_59
REMARK    5  A    between atoms: C_5  and  C_6
REMARK    6  A    between atoms: C_5  and  N_59
REMARK    7  A    between atoms: C_6  and  N_7
REMARK    8  A    between atoms: C_8  and  C_24
REMARK    9  A    between atoms: C_10  and  C_15
REMARK   10  A    between atoms: C_11  and  O_14
REMARK   11  A    between atoms: C_15  and  C_17
REMARK   12  A    between atoms: C_27  and  O_32
REMARK   13  A    between atoms: C_28  and  O_30
REMARK   14  A    between atoms: O_30  and  C_31
REMARK                            x       y       z     vdW  Elec       q    Type
REMARK                         _______ _______ _______ _____ _____    ______ ____
ROOT
ATOM      1  N   UNL     1       0.674   2.690   2.019  0.00  0.00    -0.285 N 
ATOM      2  C   UNL     1       1.245   3.990   2.389  0.00  0.00    +0.144 C 
ATOM      3  C   UNL     1       0.761   4.279   3.791  0.00  0.00    +0.071 C 
ATOM      4  C   UNL     1      -0.002   3.227   4.165  0.00  0.00    +0.188 C 
ATOM      5  C   UNL     1      -0.052   2.245   3.061  0.00  0.00    +0.282 C 
ATOM      6  O   UNL     1      -0.658   1.193   3.090  0.00  0.00    -0.267 OA
ENDROOT
BRANCH   2   7
ATOM      7  C   UNL     1       2.750   3.921   2.361  0.00  0.00    -0.019 A 
ATOM      8  C   UNL     1       3.398   2.797   2.838  0.00  0.00    +0.009 A 
ATOM      9  C   UNL     1       4.779   2.727   2.809  0.00  0.00    +0.049 A 
ATOM     10  C   UNL     1       5.516   3.789   2.312  0.00  0.00    +0.158 A 
ATOM     11  C   UNL     1       4.864   4.923   1.837  0.00  0.00    +0.162 A 
ATOM     12  C   UNL     1       3.480   4.985   1.864  0.00  0.00    +0.055 A 
BRANCH  11  13
ATOM     13  O   UNL     1       5.584   5.968   1.348  0.00  0.00    -0.491 OA
ATOM     14  C   UNL     1       4.856   7.142   0.981  0.00  0.00    +0.277 C 
ENDBRANCH  11  13
BRANCH  10  15
ATOM     15  O   UNL     1       6.875   3.724   2.289  0.00  0.00    -0.503 OA
ATOM     16  H   UNL     1       7.298   4.061   3.090  0.00  0.00    +0.292 HD
ENDBRANCH  10  15
ENDBRANCH   2   7
BRANCH   4  17
ATOM     17  O   UNL     1      -0.622   3.094   5.360  0.00  0.00    -0.502 OA
ATOM     18  H   UNL     1      -1.121   2.227   5.383  0.00  0.00    +0.292 HD
ENDBRANCH   4  17
BRANCH   3  19
ATOM     19  C   UNL     1       1.065   5.469   4.593  0.00  0.00    +0.195 C 
ATOM     20  O   UNL     1       1.738   5.367   5.601  0.00  0.00    -0.287 OA
BRANCH  19  21
ATOM     21  C   UNL     1       0.553   6.791   4.176  0.00  0.00    +0.022 A 
ATOM     22  C   UNL     1      -0.301   6.898   3.075  0.00  0.00    +0.013 A 
ATOM     23  C   UNL     1      -0.780   8.133   2.696  0.00  0.00    +0.021 A 
ATOM     24  C   UNL     1      -0.407   9.269   3.396  0.00  0.00    +0.041 A 
ATOM     25  C   UNL     1       0.444   9.171   4.485  0.00  0.00    +0.021 A 
ATOM     26  C   UNL     1       0.925   7.940   4.878  0.00  0.00    +0.013 A 
ATOM     27 CL   UNL     1      -1.009  10.823   2.907  0.00  0.00    -0.084 Cl
ENDBRANCH  19  21
ENDBRANCH   3  19
BRANCH   1  28
ATOM     28  C   UNL     1       0.865   1.996   0.743  0.00  0.00    +0.090 C 
BRANCH  28  29
ATOM     29  C   UNL     1      -0.237   2.413  -0.234  0.00  0.00    -0.060 C 
BRANCH  29  30
ATOM     30  N   UNL     1      -0.018   1.722  -1.522  0.00  0.00    +0.380 N 
ATOM     31  H   UNL     1       0.951   1.878  -1.824  0.00  0.00    -0.082 HD
BRANCH  30  33
ATOM     32  C   UNL     1      -1.686  -0.004  -0.930  0.00  0.00    -0.017 C 
ATOM     33  C   UNL     1      -0.244   0.270  -1.361  0.00  0.00    -0.082 C 
ENDBRANCH  30  33
BRANCH  30  34
ATOM     34  C   UNL     1      -0.934   2.264  -2.548  0.00  0.00    -0.082 C 
ATOM     35  C   UNL     1      -0.480   1.771  -3.923  0.00  0.00    -0.017 C 
ENDBRANCH  30  34
ENDBRANCH  29  30
ENDBRANCH  28  29
ENDBRANCH   1  28
TORSDOF 11
