REMARK  Name = ZINC67304685
REMARK  5 active torsions:
REMARK  status: ('A' for Active; 'I' for Inactive)
REMARK    1  A    between atoms: C_1  and  C_2
REMARK    2  A    between atoms: C_2  and  C_7
REMARK    3  A    between atoms: N_9  and  C_10
REMARK    4  A    between atoms: C_10  and  C_11
REMARK    5  A    between atoms: N_15  and  C_16
REMARK                            x       y       z     vdW  Elec       q    Type
REMARK                         _______ _______ _______ _____ _____    ______ ____
ROOT
ATOM      1  C   UNL     1      -3.473  -1.168  -1.383  0.00  0.00    +0.180 C 
ENDROOT
BRANCH   1   2
ATOM      2  C   UNL     1      -4.255  -0.418  -2.430  0.00  0.00    +0.149 A 
ATOM      3  N   UNL     1      -3.759   0.417  -3.286  0.00  0.00    -0.157 NA
ATOM      4  N   UNL     1      -4.807   0.899  -4.083  0.00  0.00    -0.254 N 
ATOM      5  C   UNL     1      -5.942   0.307  -3.654  0.00  0.00    +0.176 A 
ATOM      6  N   UNL     1      -5.609  -0.513  -2.637  0.00  0.00    -0.303 N 
ATOM      7  S   UNL     1      -7.513   0.547  -4.290  0.00  0.00    -0.011 S 
ATOM      8  H   UNL     1      -4.731   1.539  -4.808  0.00  0.00    +0.191 HD
BRANCH   6   9
ATOM      9  C   UNL     1      -6.535  -1.358  -1.879  0.00  0.00    +0.091 C 
ATOM     10  C   UNL     1      -7.915  -1.616  -2.487  0.00  0.00    +0.027 C 
ATOM     11  C   UNL     1      -7.773  -0.689  -1.279  0.00  0.00    +0.027 C 
ENDBRANCH   6   9
ENDBRANCH   1   2
BRANCH   1  14
ATOM     12  C   UNL     1      -1.163  -1.352  -0.630  0.00  0.00    +0.219 C 
ATOM     13  O   UNL     1      -1.529  -2.151   0.205  0.00  0.00    -0.275 OA
ATOM     14  N   UNL     1      -2.058  -0.801  -1.475  0.00  0.00    -0.308 N 
ATOM     15  H   UNL     1      -1.764  -0.162  -2.143  0.00  0.00    +0.149 HD
BRANCH  12  17
ATOM     16  C   UNL     1       0.459   0.531  -0.515  0.00  0.00    +0.021 C 
ATOM     17  C   UNL     1       0.293  -0.975  -0.725  0.00  0.00    +0.044 C 
ATOM     18  C   UNL     1       0.857  -1.382  -2.102  0.00  0.00    +0.016 C 
ATOM     19  C   UNL     1       2.299  -1.857  -1.797  0.00  0.00    +0.001 C 
ATOM     20  C   UNL     1       2.137  -2.596  -0.445  0.00  0.00    +0.001 C 
ATOM     21  C   UNL     1       1.107  -1.747   0.329  0.00  0.00    +0.016 C 
ENDBRANCH  12  17
ENDBRANCH   1  14
TORSDOF 4
