REMARK  Name = ZINC67334988
REMARK  8 active torsions:
REMARK  status: ('A' for Active; 'I' for Inactive)
REMARK    1  A    between atoms: C_1  and  C_2
REMARK    2  A    between atoms: C_2  and  C_3
REMARK    3  A    between atoms: C_2  and  C_4
REMARK    4  A    between atoms: C_4  and  N_5
REMARK    5  A    between atoms: C_6  and  C_8
REMARK    6  A    between atoms: C_9  and  N_27
REMARK    7  A    between atoms: C_10  and  C_13
REMARK    8  A    between atoms: N_18  and  C_21
REMARK                            x       y       z     vdW  Elec       q    Type
REMARK                         _______ _______ _______ _____ _____    ______ ____
ROOT
ATOM      1  C   UNL     1      -0.673  -0.423   4.866  0.00  0.00    +0.156 A 
ATOM      2  C   UNL     1      -0.402  -0.957   6.124  0.00  0.00    +0.076 A 
ATOM      3  C   UNL     1      -0.663  -0.072   7.171  0.00  0.00    +0.115 A 
ATOM      4  S   UNL     1      -1.242   1.360   6.285  0.00  0.00    +0.019 S 
ATOM      5  N   UNL     1      -1.125   0.809   4.769  0.00  0.00    -0.203 NA
ENDROOT
BRANCH   3   6
ATOM      6  C   UNL     1      -0.504  -0.269   8.614  0.00  0.00    +0.256 C 
ATOM      7  O   UNL     1       0.471  -0.858   9.044  0.00  0.00    -0.269 OA
ATOM      8  N   UNL     1      -1.437   0.201   9.465  0.00  0.00    -0.301 N 
ATOM      9  C   UNL     1      -2.567   1.007   8.978  0.00  0.00    +0.089 C 
ATOM     10  C   UNL     1      -3.864   0.413   9.537  0.00  0.00    -0.059 C 
ATOM     11  N   UNL     1      -3.769   0.323  10.999  0.00  0.00    +0.384 N 
ATOM     12  C   UNL     1      -2.709  -0.620  11.375  0.00  0.00    -0.059 C 
ATOM     13  C   UNL     1      -1.357  -0.082  10.906  0.00  0.00    +0.089 C 
ATOM     14  H   UNL     1      -3.557   1.234  11.378  0.00  0.00    -0.081 HD
BRANCH  11  15
ATOM     15  C   UNL     1      -5.052  -0.143  11.544  0.00  0.00    -0.068 C 
ATOM     16  C   UNL     1      -6.157   0.845  11.163  0.00  0.00    -0.015 C 
ATOM     17  C   UNL     1      -7.492   0.360  11.730  0.00  0.00    -0.002 C 
ATOM     18  C   UNL     1      -7.396   0.265  13.254  0.00  0.00    -0.000 C 
ATOM     19  C   UNL     1      -6.291  -0.722  13.634  0.00  0.00    -0.002 C 
ATOM     20  C   UNL     1      -4.955  -0.237  13.068  0.00  0.00    -0.015 C 
ENDBRANCH  11  15
ENDBRANCH   3   6
BRANCH   1  22
ATOM     21  N   UNL     1      -0.818  -0.752   2.448  0.00  0.00    -0.310 N 
ATOM     22  C   UNL     1      -0.451  -1.231   3.653  0.00  0.00    +0.265 C 
ATOM     23  O   UNL     1       0.064  -2.329   3.740  0.00  0.00    -0.268 OA
ATOM     24  H   UNL     1      -1.229   0.124   2.379  0.00  0.00    +0.149 HD
BRANCH  21  25
ATOM     25  C   UNL     1      -0.597  -1.555   1.242  0.00  0.00    +0.107 C 
BRANCH  25  27
ATOM     26  C   UNL     1      -0.254   0.475  -0.174  0.00  0.00    +0.009 C 
ATOM     27  C   UNL     1      -1.099  -0.786   0.018  0.00  0.00    -0.000 C 
ATOM     28  C   UNL     1      -0.983  -1.672  -1.223  0.00  0.00    +0.009 C 
ENDBRANCH  25  27
ENDBRANCH  21  25
ENDBRANCH   1  22
BRANCH   2  29
ATOM     29  N   UNL     1       0.081  -2.245   6.317  0.00  0.00    -0.355 N 
ATOM     30  H   UNL     1       0.347  -2.782   5.555  0.00  0.00    +0.142 HD
ATOM     31  H   UNL     1       0.152  -2.606   7.215  0.00  0.00    +0.142 HD
ENDBRANCH   2  29
TORSDOF 6
