REMARK  Name = ZINC51145841
REMARK  8 active torsions:
REMARK  status: ('A' for Active; 'I' for Inactive)
REMARK    1  A    between atoms: C_1  and  N_2
REMARK    2  A    between atoms: N_2  and  C_3
REMARK    3  A    between atoms: N_2  and  C_15
REMARK    4  A    between atoms: C_3  and  C_4
REMARK    5  A    between atoms: C_7  and  N_13
REMARK    6  A    between atoms: C_8  and  N_10
REMARK    7  A    between atoms: N_13  and  N_14
REMARK    8  A    between atoms: C_15  and  C_16
REMARK                            x       y       z     vdW  Elec       q    Type
REMARK                         _______ _______ _______ _____ _____    ______ ____
ROOT
ATOM      1  C   UNL     1      -2.317  -0.148  -1.172  0.00  0.00    -0.062 A 
ATOM      2  C   UNL     1      -2.789   1.136  -1.382  0.00  0.00    +0.004 A 
ATOM      3  C   UNL     1      -3.173   1.534  -2.647  0.00  0.00    +0.026 A 
ATOM      4  C   UNL     1      -3.085   0.644  -3.710  0.00  0.00    +0.071 A 
ATOM      5  C   UNL     1      -2.611  -0.644  -3.496  0.00  0.00    +0.148 A 
ATOM      6  C   UNL     1      -2.224  -1.034  -2.229  0.00  0.00    +0.036 A 
ENDROOT
BRANCH   5   7
ATOM      7  N   UNL     1      -2.517  -1.596  -4.626  0.00  0.00    +0.058 N 
ATOM      8  O   UNL     1      -3.366  -1.599  -5.487  0.00  0.00    -0.126 OA
ATOM      9  O   UNL     1      -1.591  -2.370  -4.688  0.00  0.00    -0.126 OA
ENDBRANCH   5   7
BRANCH   4  10
ATOM     10  N   UNL     1      -3.473   1.043  -4.991  0.00  0.00    -0.281 N 
ATOM     11  H   UNL     1      -3.338   0.449  -5.746  0.00  0.00    +0.166 HD
BRANCH  10  12
ATOM     12  N   UNL     1      -4.044   2.270  -5.181  0.00  0.00    -0.256 NA
ATOM     13  H   UNL     1      -3.445   3.004  -4.833  0.00  0.00    +0.140 HD
ATOM     14  H   UNL     1      -4.270   2.417  -6.153  0.00  0.00    +0.140 HD
ENDBRANCH  10  12
ENDBRANCH   4  10
BRANCH   1  15
ATOM     15  C   UNL     1      -1.898  -0.579   0.210  0.00  0.00    -0.043 C 
BRANCH  15  17
ATOM     16  C   UNL     1      -0.269   1.174   0.372  0.00  0.00    -0.095 C 
ATOM     17  N   UNL     1      -0.473  -0.280   0.405  0.00  0.00    +0.383 N 
ATOM     18  H   UNL     1       0.065  -0.712  -0.332  0.00  0.00    -0.081 HD
BRANCH  17  19
ATOM     19  C   UNL     1      -0.036  -0.807   1.704  0.00  0.00    -0.042 C 
BRANCH  19  20
ATOM     20  C   UNL     1       1.451  -0.611   1.852  0.00  0.00    -0.056 A 
ATOM     21  C   UNL     1       2.333  -1.583   1.419  0.00  0.00    +0.024 A 
ATOM     22  C   UNL     1       3.665  -1.374   1.567  0.00  0.00    +0.055 A 
ATOM     23  S   UNL     1       3.703   0.236   2.337  0.00  0.00    -0.090 S 
ATOM     24  C   UNL     1       1.942   0.524   2.405  0.00  0.00    +0.048 A 
ATOM     25 BR   UNL     1       5.108  -2.497   1.083  0.00  0.00    -0.043 Br
ENDBRANCH  19  20
ENDBRANCH  17  19
ENDBRANCH  15  17
ENDBRANCH   1  15
TORSDOF 7
