REMARK  Name = ZINC12468216
REMARK  5 active torsions:
REMARK  status: ('A' for Active; 'I' for Inactive)
REMARK    1  A    between atoms: C_6  and  C_7
REMARK    2  A    between atoms: C_10  and  C_28
REMARK    3  A    between atoms: C_15  and  C_17
REMARK    4  A    between atoms: N_19  and  C_20
REMARK    5  A    between atoms: C_20  and  C_21
REMARK                            x       y       z     vdW  Elec       q    Type
REMARK                         _______ _______ _______ _____ _____    ______ ____
ROOT
ATOM      1  C   UNL     1      -1.293  -0.775   0.010  0.00  0.00    +0.104 C 
ATOM      2  C   UNL     1      -1.616  -1.254  -1.409  0.00  0.00    +0.063 C 
ATOM      3  C   UNL     1      -2.966  -1.980  -1.421  0.00  0.00    +0.215 C 
ATOM      4  N   UNL     1      -2.976  -2.980  -0.349  0.00  0.00    -0.238 N 
ATOM      5  C   UNL     1      -2.124  -2.955   0.719  0.00  0.00    +0.119 A 
ATOM      6  C   UNL     1      -2.404  -4.015   1.503  0.00  0.00    +0.078 A 
ATOM      7  C   UNL     1      -3.469  -4.722   0.901  0.00  0.00    +0.149 A 
ATOM      8  N   UNL     1      -3.805  -4.092  -0.211  0.00  0.00    -0.164 NA
ATOM      9  N   UNL     1      -1.162  -1.954   0.889  0.00  0.00    -0.322 N 
ATOM     10  H   UNL     1      -0.450  -2.030   1.544  0.00  0.00    +0.148 HD
ENDROOT
BRANCH   1  16
ATOM     11  C   UNL     1      -0.017   1.378   0.010  0.00  0.00    +0.006 A 
ATOM     12  C   UNL     1       1.171   2.086   0.002  0.00  0.00    +0.015 A 
ATOM     13  C   UNL     1       2.378   1.411  -0.013  0.00  0.00    +0.018 A 
ATOM     14  C   UNL     1       2.396   0.027  -0.021  0.00  0.00    +0.015 A 
ATOM     15  C   UNL     1       1.208  -0.679  -0.013  0.00  0.00    +0.006 A 
ATOM     16  C   UNL     1       0.002  -0.004   0.002  0.00  0.00    -0.027 A 
ATOM     17 BR   UNL     1       4.003   2.378  -0.024  0.00  0.00    -0.050 Br
ENDBRANCH   1  16
BRANCH   7  18
ATOM     18  C   UNL     1      -4.097  -5.953   1.424  0.00  0.00    +0.264 C 
ATOM     19  O   UNL     1      -3.700  -6.444   2.463  0.00  0.00    -0.268 OA
ATOM     20  N   UNL     1      -5.110  -6.532   0.749  0.00  0.00    -0.308 N 
ATOM     21  H   UNL     1      -5.426  -6.140  -0.080  0.00  0.00    +0.149 HD
BRANCH  20  22
ATOM     22  C   UNL     1      -5.732  -7.752   1.267  0.00  0.00    +0.136 C 
BRANCH  22  23
ATOM     23  C   UNL     1      -6.847  -8.198   0.319  0.00  0.00    +0.135 C 
ATOM     24  C   UNL     1      -7.589  -9.413   0.917  0.00  0.00    +0.035 C 
ATOM     25  C   UNL     1      -7.843 -10.294  -0.336  0.00  0.00    +0.031 C 
ATOM     26  C   UNL     1      -6.571  -9.996  -1.168  0.00  0.00    +0.160 C 
ATOM     27  O   UNL     1      -6.285  -8.606  -0.934  0.00  0.00    -0.375 OA
ENDBRANCH  22  23
ENDBRANCH  20  22
ENDBRANCH   7  18
BRANCH   3  28
ATOM     28  C   UNL     1      -3.165  -2.671  -2.772  0.00  0.00    +0.412 C 
ATOM     29  F   UNL     1      -2.137  -3.597  -2.978  0.00  0.00    -0.168 F 
ATOM     30  F   UNL     1      -4.397  -3.332  -2.780  0.00  0.00    -0.168 F 
ATOM     31  F   UNL     1      -3.142  -1.714  -3.792  0.00  0.00    -0.168 F 
ENDBRANCH   3  28
TORSDOF 5
