REMARK  Name = ZINC62870482
REMARK  5 active torsions:
REMARK  status: ('A' for Active; 'I' for Inactive)
REMARK    1  A    between atoms: C_1  and  C_2
REMARK    2  A    between atoms: C_2  and  C_18
REMARK    3  A    between atoms: C_8  and  C_10
REMARK    4  A    between atoms: C_10  and  C_11
REMARK    5  A    between atoms: C_11  and  C_12
REMARK                            x       y       z     vdW  Elec       q    Type
REMARK                         _______ _______ _______ _____ _____    ______ ____
ROOT
ATOM      1  C   UNL     1      -0.019   1.526   0.010  0.00  0.00    +0.024 C 
ATOM      2  C   UNL     1       0.002  -0.004   0.002  0.00  0.00    +0.085 C 
ATOM      3  C   UNL     1       0.722  -0.498  -1.255  0.00  0.00    +0.021 C 
ATOM      4  C   UNL     1       2.147   0.059  -1.281  0.00  0.00    +0.020 C 
ATOM      5  C   UNL     1       2.912  -0.448  -0.055  0.00  0.00    +0.108 C 
ATOM      6  N   UNL     1       2.151  -0.103   1.154  0.00  0.00    -0.300 N 
ATOM      7  C   UNL     1       0.743  -0.512   1.243  0.00  0.00    +0.125 C 
ATOM      8  C   UNL     1       2.734   0.576   2.161  0.00  0.00    +0.216 C 
ATOM      9  O   UNL     1       2.095   0.856   3.154  0.00  0.00    -0.276 OA
ENDROOT
BRANCH   2  10
ATOM     10  C   UNL     1      -1.411  -0.526   0.011  0.00  0.00    +0.363 C 
ATOM     11  O   UNL     1      -2.174  -0.237  -0.895  0.00  0.00    -0.246 OA
ATOM     12  O   UNL     1      -1.793  -1.238   0.925  0.00  0.00    -0.246 OA
ENDBRANCH   2  10
BRANCH   8  13
ATOM     13  C   UNL     1       4.179   0.989   2.055  0.00  0.00    +0.096 C 
BRANCH  13  14
ATOM     14  C   UNL     1       4.590   1.740   3.323  0.00  0.00    +0.012 C 
BRANCH  14  15
ATOM     15  C   UNL     1       6.058   2.159   3.215  0.00  0.00    -0.014 C 
ATOM     16  C   UNL     1       6.946   0.911   3.189  0.00  0.00    -0.016 C 
ATOM     17  C   UNL     1       8.415   1.338   3.161  0.00  0.00    -0.082 C 
ATOM     18  N   UNL     1       8.720   2.133   4.357  0.00  0.00    +0.379 N 
ATOM     19  C   UNL     1       7.924   3.366   4.352  0.00  0.00    -0.082 C 
ATOM     20  C   UNL     1       6.436   3.017   4.426  0.00  0.00    -0.016 C 
ATOM     21  H   UNL     1       8.500   1.595   5.182  0.00  0.00    -0.086 HD
ATOM     22  H   UNL     1       9.701   2.367   4.362  0.00  0.00    -0.086 HD
ENDBRANCH  14  15
ENDBRANCH  13  14
ENDBRANCH   8  13
TORSDOF 4
