REMARK  Name = ZINC44054062
REMARK  6 active torsions:
REMARK  status: ('A' for Active; 'I' for Inactive)
REMARK    1  A    between atoms: C_1  and  C_2
REMARK    2  A    between atoms: C_2  and  N_3
REMARK    3  A    between atoms: N_3  and  C_4
REMARK    4  A    between atoms: C_10  and  O_12
REMARK    5  A    between atoms: O_12  and  C_13
REMARK    6  A    between atoms: C_17  and  C_19
REMARK                            x       y       z     vdW  Elec       q    Type
REMARK                         _______ _______ _______ _____ _____    ______ ____
ROOT
ATOM      1  C   UNL     1       0.577  -2.159  -1.216  0.00  0.00    -0.030 C 
ATOM      2  C   UNL     1       1.422  -2.655  -0.041  0.00  0.00    -0.007 C 
ATOM      3  C   UNL     1       1.660  -4.160  -0.184  0.00  0.00    +0.063 C 
ATOM      4  C   UNL     1       2.391  -4.438  -1.498  0.00  0.00    +0.173 C 
ATOM      5  C   UNL     1       1.551  -3.938  -2.675  0.00  0.00    +0.107 C 
ATOM      6  C   UNL     1       1.314  -2.433  -2.528  0.00  0.00    +0.165 C 
ATOM      7  O   UNL     1       3.657  -3.757  -1.493  0.00  0.00    -0.346 OA
ATOM      8  C   UNL     1       4.609  -4.752  -1.044  0.00  0.00    +0.191 C 
ATOM      9  C   UNL     1       4.050  -6.040  -1.697  0.00  0.00    +0.191 C 
ATOM     10  O   UNL     1       2.622  -5.845  -1.634  0.00  0.00    -0.346 OA
ENDROOT
BRANCH   1  11
ATOM     11  N   UNL     1       0.346  -0.715  -1.077  0.00  0.00    +0.383 N 
ATOM     12  H   UNL     1      -0.141  -0.372  -1.891  0.00  0.00    -0.085 HD
ATOM     13  H   UNL     1       1.232  -0.239  -0.990  0.00  0.00    -0.085 HD
BRANCH  11  15
ATOM     14  C   UNL     1      -0.706   1.042   0.266  0.00  0.00    -0.017 C 
ATOM     15  C   UNL     1      -0.465  -0.462   0.121  0.00  0.00    -0.085 C 
ENDBRANCH  11  15
ENDBRANCH   1  11
BRANCH   6  16
ATOM     16  O   UNL     1       0.525  -1.966  -3.624  0.00  0.00    -0.490 OA
BRANCH  16  17
ATOM     17  C   UNL     1       1.185  -1.646  -4.768  0.00  0.00    +0.121 A 
ATOM     18  C   UNL     1       0.499  -1.077  -5.831  0.00  0.00    +0.045 A 
ATOM     19  C   UNL     1       1.173  -0.751  -6.992  0.00  0.00    +0.004 A 
ATOM     20  C   UNL     1       2.530  -0.993  -7.095  0.00  0.00    +0.003 A 
ATOM     21  C   UNL     1       3.217  -1.561  -6.038  0.00  0.00    -0.047 A 
ATOM     22  C   UNL     1       2.548  -1.883  -4.872  0.00  0.00    +0.049 A 
ATOM     23  C   UNL     1       4.696  -1.823  -6.154  0.00  0.00    +0.044 C 
ENDBRANCH  16  17
ENDBRANCH   6  16
TORSDOF 4
