REMARK  Name = ZINC23674126
REMARK  8 active torsions:
REMARK  status: ('A' for Active; 'I' for Inactive)
REMARK    1  A    between atoms: C_1  and  C_2
REMARK    2  A    between atoms: C_2  and  O_3
REMARK    3  A    between atoms: O_3  and  C_4
REMARK    4  A    between atoms: C_11  and  C_18
REMARK    5  A    between atoms: C_13  and  O_14
REMARK    6  A    between atoms: C_18  and  S_19
REMARK    7  A    between atoms: S_19  and  C_20
REMARK    8  A    between atoms: C_22  and  N_27
REMARK                            x       y       z     vdW  Elec       q    Type
REMARK                         _______ _______ _______ _____ _____    ______ ____
ROOT
ATOM      1  C   UNL     1       2.448   5.042  -0.664  0.00  0.00    +0.405 C 
ATOM      2  O   UNL     1       1.462   5.530  -1.179  0.00  0.00    -0.226 OA
ATOM      3  N   UNL     1       2.353   3.873   0.000  0.00  0.00    -0.251 N 
ATOM      4  C   UNL     1       1.145   3.175   0.016  0.00  0.00    +0.040 A 
ATOM      5  C   UNL     1       1.150   1.780   0.004  0.00  0.00    +0.024 A 
ATOM      6  C   UNL     1      -0.023   1.085   0.018  0.00  0.00    +0.013 A 
ATOM      7  C   UNL     1      -1.241   1.775   0.040  0.00  0.00    +0.022 A 
ATOM      8  C   UNL     1      -2.515   1.054   0.063  0.00  0.00    -0.020 A 
ATOM      9  C   UNL     1      -3.663   1.780   0.090  0.00  0.00    +0.092 A 
ATOM     10  C   UNL     1      -3.602   3.188   0.102  0.00  0.00    +0.285 A 
ATOM     11  O   UNL     1      -2.431   3.844   0.087  0.00  0.00    -0.425 OA
ATOM     12  C   UNL     1      -1.254   3.182   0.059  0.00  0.00    +0.141 A 
ATOM     13  C   UNL     1      -0.052   3.874   0.044  0.00  0.00    +0.070 A 
ATOM     14  H   UNL     1       3.228   3.468   0.530  0.00  0.00    +0.158 HD
ENDROOT
BRANCH  10  15
ATOM     15  O   UNL     1      -4.639   3.827   0.127  0.00  0.00    -0.480 OA
ATOM     16  H   UNL     1      -4.607   4.927   0.137  0.00  0.00    +0.295 HD
ENDBRANCH  10  15
BRANCH   1  17
ATOM     17  O   UNL     1       3.636   5.669  -0.756  0.00  0.00    -0.450 OA
BRANCH  17  19
ATOM     18  C   UNL     1       5.088   7.483  -1.484  0.00  0.00    +0.048 C 
ATOM     19  C   UNL     1       3.664   6.923  -1.486  0.00  0.00    +0.230 C 
ENDBRANCH  17  19
ENDBRANCH   1  17
BRANCH   8  20
ATOM     20  C   UNL     1      -2.553  -0.453   0.050  0.00  0.00    +0.113 C 
BRANCH  20  21
ATOM     21  S   UNL     1      -2.599  -1.040  -1.661  0.00  0.00    -0.083 S 
BRANCH  21  22
ATOM     22  C   UNL     1      -2.636  -2.780  -1.386  0.00  0.00    +0.171 A 
ATOM     23  N   UNL     1      -2.677  -3.626  -2.454  0.00  0.00    -0.209 NA
ATOM     24  C   UNL     1      -2.706  -4.982  -2.259  0.00  0.00    +0.124 A 
ATOM     25  C   UNL     1      -2.694  -5.469  -0.984  0.00  0.00    +0.113 A 
ATOM     26  C   UNL     1      -2.651  -4.560   0.092  0.00  0.00    +0.254 A 
ATOM     27  O   UNL     1      -2.640  -4.971   1.244  0.00  0.00    -0.268 OA
ATOM     28  N   UNL     1      -2.619  -3.240  -0.153  0.00  0.00    -0.302 N 
ATOM     29  H   UNL     1      -2.578  -2.540   0.695  0.00  0.00    +0.171 HD
BRANCH  24  30
ATOM     30  N   UNL     1      -2.746  -5.840  -3.333  0.00  0.00    -0.343 N 
ATOM     31  H   UNL     1      -2.769  -6.928  -3.168  0.00  0.00    +0.144 HD
ATOM     32  H   UNL     1      -2.755  -5.440  -4.357  0.00  0.00    +0.144 HD
ENDBRANCH  24  30
ENDBRANCH  21  22
ENDBRANCH  20  21
ENDBRANCH   8  20
TORSDOF 7
