REMARK  Name = ZINC04206889
REMARK  6 active torsions:
REMARK  status: ('A' for Active; 'I' for Inactive)
REMARK    1  A    between atoms: C_1  and  O_2
REMARK    2  A    between atoms: O_2  and  C_3
REMARK    3  A    between atoms: C_5  and  S_12
REMARK    4  A    between atoms: C_8  and  O_9
REMARK    5  A    between atoms: O_9  and  C_10
REMARK    6  A    between atoms: S_12  and  N_15
REMARK                            x       y       z     vdW  Elec       q    Type
REMARK                         _______ _______ _______ _____ _____    ______ ____
ROOT
ATOM      1  C   UNL     1      -4.580  -0.510   1.109  0.00  0.00    +0.163 A 
ATOM      2  C   UNL     1      -3.576   0.445   1.107  0.00  0.00    +0.079 A 
ATOM      3  C   UNL     1      -2.733   0.560   0.018  0.00  0.00    +0.123 A 
ATOM      4  C   UNL     1      -2.892  -0.274  -1.075  0.00  0.00    +0.048 A 
ATOM      5  C   UNL     1      -3.889  -1.232  -1.077  0.00  0.00    +0.066 A 
ATOM      6  C   UNL     1      -4.737  -1.352   0.012  0.00  0.00    +0.163 A 
ATOM      7 BR   UNL     1      -1.740  -0.106  -2.565  0.00  0.00    -0.048 Br
ENDROOT
BRANCH   3   8
ATOM      8  S   UNL     1      -1.456   1.774   0.019  0.00  0.00    +0.057 S 
ATOM      9  O   UNL     1      -1.536   2.446   1.268  0.00  0.00    -0.153 OA
ATOM     10  O   UNL     1      -1.548   2.460  -1.223  0.00  0.00    -0.153 OA
BRANCH   8  11
ATOM     11  N   UNL     1      -0.011   0.966   0.007  0.00  0.00    -0.203 NA
ATOM     12  H   UNL     1       0.002  -0.004   0.002  0.00  0.00    +0.144 HD
ATOM     13  H   UNL     1       0.822   1.462   0.002  0.00  0.00    +0.144 HD
ENDBRANCH   8  11
ENDBRANCH   3   8
BRANCH   1  15
ATOM     14  C   UNL     1      -5.190   0.273   3.270  0.00  0.00    +0.277 C 
ATOM     15  O   UNL     1      -5.410  -0.624   2.180  0.00  0.00    -0.491 OA
ENDBRANCH   1  15
BRANCH   6  16
ATOM     16  O   UNL     1      -5.721  -2.291   0.009  0.00  0.00    -0.491 OA
ATOM     17  C   UNL     1      -5.824  -3.120  -1.150  0.00  0.00    +0.277 C 
ENDBRANCH   6  16
TORSDOF 4
