REMARK  Name = ZINC62945685
REMARK  9 active torsions:
REMARK  status: ('A' for Active; 'I' for Inactive)
REMARK    1  A    between atoms: C_1  and  C_2
REMARK    2  A    between atoms: C_2  and  C_3
REMARK    3  A    between atoms: C_3  and  C_4
REMARK    4  A    between atoms: C_3  and  C_5
REMARK    5  A    between atoms: C_3  and  N_6
REMARK    6  A    between atoms: N_6  and  C_7
REMARK    7  A    between atoms: C_7  and  C_8
REMARK    8  A    between atoms: C_8  and  C_10
REMARK    9  A    between atoms: C_8  and  N_11
REMARK                            x       y       z     vdW  Elec       q    Type
REMARK                         _______ _______ _______ _____ _____    ______ ____
ROOT
ATOM      1  N   UNL     1       0.220  -4.570  -2.371  0.00  0.00    +0.383 N 
ATOM      2  C   UNL     1       0.355  -6.015  -2.289  0.00  0.00    -0.078 C 
ATOM      3  C   UNL     1      -0.925  -6.761  -1.978  0.00  0.00    -0.014 C 
ATOM      4  C   UNL     1      -1.904  -6.676  -3.154  0.00  0.00    +0.033 C 
ATOM      5  C   UNL     1      -2.666  -5.372  -3.035  0.00  0.00    -0.046 A 
ATOM      6  C   UNL     1      -4.015  -5.389  -2.730  0.00  0.00    +0.004 A 
ATOM      7  C   UNL     1      -4.705  -4.194  -2.623  0.00  0.00    +0.000 A 
ATOM      8  C   UNL     1      -4.046  -2.995  -2.820  0.00  0.00    +0.000 A 
ATOM      9  C   UNL     1      -2.697  -2.986  -3.125  0.00  0.00    +0.002 A 
ATOM     10  C   UNL     1      -2.011  -4.183  -3.232  0.00  0.00    -0.061 A 
ATOM     11  C   UNL     1      -0.534  -4.171  -3.567  0.00  0.00    -0.042 C 
ATOM     12  H   UNL     1      -0.263  -4.237  -1.550  0.00  0.00    -0.081 HD
ENDROOT
BRANCH   1  13
ATOM     13  C   UNL     1       1.557  -3.964  -2.422  0.00  0.00    -0.089 C 
ATOM     14  C   UNL     1       2.230  -4.324  -3.748  0.00  0.00    -0.015 C 
BRANCH  13  15
ATOM     15  C   UNL     1       1.432  -2.443  -2.309  0.00  0.00    -0.098 C 
BRANCH  15  16
ATOM     16  N   UNL     1       0.691  -2.101  -1.088  0.00  0.00    +0.381 N 
ATOM     17  H   UNL     1       1.139  -2.530  -0.292  0.00  0.00    -0.085 HD
ATOM     18  H   UNL     1      -0.257  -2.440  -1.164  0.00  0.00    -0.085 HD
BRANCH  16  19
ATOM     19  C   UNL     1       0.677  -0.642  -0.915  0.00  0.00    -0.074 C 
ATOM     20  C   UNL     1      -0.002   0.008  -2.122  0.00  0.00    -0.010 C 
ATOM     21  C   UNL     1       2.114  -0.129  -0.801  0.00  0.00    -0.010 C 
BRANCH  19  23
ATOM     22  C   UNL     1      -0.109   1.233   0.537  0.00  0.00    +0.002 C 
ATOM     23  C   UNL     1      -0.095  -0.286   0.357  0.00  0.00    -0.016 C 
ENDBRANCH  19  23
ENDBRANCH  16  19
ENDBRANCH  15  16
ENDBRANCH  13  15
ENDBRANCH   1  13
TORSDOF 5
