REMARK  Name = ZINC67164344
REMARK  13 active torsions:
REMARK  status: ('A' for Active; 'I' for Inactive)
REMARK    1  A    between atoms: C_1  and  C_2
REMARK    2  A    between atoms: N_7  and  C_9
REMARK    3  A    between atoms: C_9  and  C_11
REMARK    4  A    between atoms: C_9  and  C_12
REMARK    5  A    between atoms: C_12  and  N_13
REMARK    6  A    between atoms: C_14  and  C_16
REMARK    7  A    between atoms: C_16  and  C_18
REMARK    8  A    between atoms: C_16  and  N_19
REMARK    9  A    between atoms: C_20  and  O_22
REMARK   10  A    between atoms: O_22  and  C_23
REMARK   11  A    between atoms: C_23  and  C_24
REMARK   12  A    between atoms: C_23  and  C_25
REMARK   13  A    between atoms: C_23  and  C_26
REMARK                            x       y       z     vdW  Elec       q    Type
REMARK                         _______ _______ _______ _____ _____    ______ ____
ROOT
ATOM      1  N   UNL     1       1.995  -4.565   1.353  0.00  0.00    -0.315 N 
ATOM      2  C   UNL     1       1.953  -5.895   1.139  0.00  0.00    +0.233 C 
ATOM      3  O   UNL     1       1.357  -6.615   1.911  0.00  0.00    -0.274 OA
ATOM      4  H   UNL     1       2.472  -3.989   0.736  0.00  0.00    +0.149 HD
ENDROOT
BRANCH   2   5
ATOM      5  C   UNL     1       2.648  -6.487  -0.060  0.00  0.00    +0.159 C 
ATOM      6  C   UNL     1       2.058  -5.888  -1.338  0.00  0.00    +0.038 C 
BRANCH   5   7
ATOM      7  N   UNL     1       2.456  -7.939  -0.067  0.00  0.00    -0.270 N 
ATOM      8  C   UNL     1       3.345  -8.733  -0.696  0.00  0.00    +0.401 C 
ATOM      9  O   UNL     1       4.306  -8.245  -1.256  0.00  0.00    -0.226 OA
ATOM     10  H   UNL     1       1.689  -8.329   0.380  0.00  0.00    +0.153 HD
BRANCH   8  11
ATOM     11  O   UNL     1       3.169 -10.068  -0.703  0.00  0.00    -0.445 OA
BRANCH  11  12
ATOM     12  C   UNL     1       4.151 -10.849  -1.388  0.00  0.00    +0.107 C 
ATOM     13  C   UNL     1       5.522 -10.618  -0.749  0.00  0.00    +0.055 C 
ATOM     14  C   UNL     1       3.784 -12.331  -1.288  0.00  0.00    +0.055 C 
ATOM     15  C   UNL     1       4.197 -10.432  -2.859  0.00  0.00    +0.055 C 
ENDBRANCH  11  12
ENDBRANCH   8  11
ENDBRANCH   5   7
ENDBRANCH   2   5
BRANCH   1  16
ATOM     16  C   UNL     1       1.320  -3.989   2.519  0.00  0.00    +0.089 C 
BRANCH  16  17
ATOM     17  C   UNL     1       1.403  -2.463   2.455  0.00  0.00    -0.054 C 
ATOM     18  C   UNL     1       0.598  -1.859   3.607  0.00  0.00    -0.012 C 
BRANCH  17  24
ATOM     19  C   UNL     1      -2.636  -2.213  -0.299  0.00  0.00    +0.005 C 
ATOM     20  C   UNL     1      -1.141  -1.893  -0.244  0.00  0.00    -0.031 C 
ATOM     21  C   UNL     1      -0.932  -0.389  -0.444  0.00  0.00    -0.001 C 
ATOM     22  C   UNL     1       0.559  -0.068  -0.309  0.00  0.00    -0.018 C 
ATOM     23  C   UNL     1       1.057  -0.547   1.057  0.00  0.00    -0.078 C 
ATOM     24  N   UNL     1       0.854  -1.996   1.175  0.00  0.00    +0.383 N 
ATOM     25  C   UNL     1      -0.580  -2.305   1.119  0.00  0.00    -0.075 C 
ATOM     26  H   UNL     1       1.327  -2.464   0.417  0.00  0.00    -0.081 HD
ENDBRANCH  17  24
ENDBRANCH  16  17
ENDBRANCH   1  16
TORSDOF 7
