REMARK  Name = ZINC48717521
REMARK  8 active torsions:
REMARK  status: ('A' for Active; 'I' for Inactive)
REMARK    1  A    between atoms: C_1  and  C_2
REMARK    2  A    between atoms: C_2  and  C_3
REMARK    3  A    between atoms: C_3  and  C_5
REMARK    4  A    between atoms: C_3  and  N_6
REMARK    5  A    between atoms: C_7  and  C_9
REMARK    6  A    between atoms: N_11  and  C_12
REMARK    7  A    between atoms: C_14  and  C_20
REMARK    8  A    between atoms: C_17  and  C_18
REMARK                            x       y       z     vdW  Elec       q    Type
REMARK                         _______ _______ _______ _____ _____    ______ ____
ROOT
ATOM      1  C   UNL     1      -0.227   0.416  -4.838  0.00  0.00    +0.303 C 
ATOM      2  O   UNL     1      -1.421   0.614  -4.745  0.00  0.00    -0.265 OA
ATOM      3  N   UNL     1       0.389   0.561  -6.028  0.00  0.00    -0.277 N 
ATOM      4  H   UNL     1       1.354   0.482  -6.087  0.00  0.00    +0.155 HD
ENDROOT
BRANCH   3   5
ATOM      5  C   UNL     1      -0.362   0.824  -7.177  0.00  0.00    +0.041 A 
ATOM      6  C   UNL     1      -1.694   0.442  -7.236  0.00  0.00    +0.042 A 
ATOM      7  C   UNL     1      -2.441   0.706  -8.385  0.00  0.00    +0.056 A 
ATOM      8  C   UNL     1      -1.843   1.354  -9.467  0.00  0.00    +0.057 A 
ATOM      9  C   UNL     1      -0.515   1.731  -9.399  0.00  0.00    +0.129 A 
ATOM     10  C   UNL     1       0.224   1.473  -8.257  0.00  0.00    +0.006 A 
ATOM     11  C   UNL     1       1.669   1.892  -8.186  0.00  0.00    +0.048 C 
ATOM     12  F   UNL     1       0.063   2.358 -10.447  0.00  0.00    -0.205 F 
BRANCH   7  13
ATOM     13  C   UNL     1      -3.817   0.314  -8.453  0.00  0.00    +0.099 C 
ATOM     14  N   UNL     1      -4.908   0.003  -8.507  0.00  0.00    -0.191 NA
ENDBRANCH   7  13
ENDBRANCH   3   5
BRANCH   1  16
ATOM     15  N   UNL     1      -0.057  -0.130  -2.444  0.00  0.00    -0.305 N 
ATOM     16  C   UNL     1       0.559   0.014  -3.634  0.00  0.00    +0.300 C 
ATOM     17  O   UNL     1       1.753  -0.183  -3.727  0.00  0.00    -0.265 OA
ATOM     18  H   UNL     1      -1.011   0.027  -2.370  0.00  0.00    +0.149 HD
BRANCH  15  19
ATOM     19  C   UNL     1       0.714  -0.525  -1.263  0.00  0.00    +0.070 C 
ATOM     20  C   UNL     1       0.836  -2.049  -1.219  0.00  0.00    +0.028 C 
BRANCH  19  22
ATOM     21  C   UNL     1      -0.009   1.496   0.016  0.00  0.00    +0.005 C 
ATOM     22  C   UNL     1       0.002  -0.034  -0.001  0.00  0.00    +0.018 C 
ENDBRANCH  19  22
ENDBRANCH  15  19
ENDBRANCH   1  16
TORSDOF 5
