REMARK  Name = ZINC40674839
REMARK  9 active torsions:
REMARK  status: ('A' for Active; 'I' for Inactive)
REMARK    1  A    between atoms: C_1  and  C_2
REMARK    2  A    between atoms: C_2  and  C_3
REMARK    3  A    between atoms: C_2  and  C_4
REMARK    4  A    between atoms: C_2  and  N_7
REMARK    5  A    between atoms: N_7  and  C_8
REMARK    6  A    between atoms: C_8  and  C_9
REMARK    7  A    between atoms: C_9  and  C_11
REMARK    8  A    between atoms: C_9  and  O_19
REMARK    9  A    between atoms: C_14  and  C_17
REMARK                            x       y       z     vdW  Elec       q    Type
REMARK                         _______ _______ _______ _____ _____    ______ ____
ROOT
ATOM      1  C   UNL     1       2.068   0.031  -1.217  0.00  0.00    -0.045 C 
ENDROOT
BRANCH   1   2
ATOM      2  N   UNL     1       0.690  -0.478  -1.207  0.00  0.00    +0.390 N 
ATOM      3  H   UNL     1       0.703  -1.487  -1.212  0.00  0.00    -0.084 HD
ATOM      4  H   UNL     1       0.202  -0.144  -2.024  0.00  0.00    -0.084 HD
BRANCH   2   6
ATOM      5  C   UNL     1      -0.019   1.526   0.010  0.00  0.00    -0.001 C 
ATOM      6  C   UNL     1       0.002  -0.004   0.002  0.00  0.00    +0.004 C 
ATOM      7  C   UNL     1       0.742  -0.511   1.242  0.00  0.00    -0.001 C 
BRANCH   6   8
ATOM      8  C   UNL     1      -1.412  -0.526   0.013  0.00  0.00    +0.199 C 
ATOM      9  O   UNL     1      -1.939  -0.827   1.062  0.00  0.00    -0.278 OA
ATOM     10  N   UNL     1      -2.090  -0.657  -1.144  0.00  0.00    -0.330 N 
ATOM     11  H   UNL     1      -1.669  -0.416  -1.984  0.00  0.00    +0.145 HD
ATOM     12  H   UNL     1      -3.000  -0.993  -1.137  0.00  0.00    +0.145 HD
ENDBRANCH   6   8
ENDBRANCH   2   6
ENDBRANCH   1   2
BRANCH   1  13
ATOM     13  C   UNL     1       2.784  -0.463  -2.476  0.00  0.00    +0.128 C 
BRANCH  13  14
ATOM     14  C   UNL     1       4.198   0.059  -2.486  0.00  0.00    -0.021 A 
ATOM     15  C   UNL     1       5.192  -0.632  -1.816  0.00  0.00    +0.007 A 
ATOM     16  C   UNL     1       6.488  -0.160  -1.822  0.00  0.00    +0.019 A 
ATOM     17  C   UNL     1       6.796   1.017  -2.507  0.00  0.00    +0.052 A 
ATOM     18  C   UNL     1       5.788   1.709  -3.181  0.00  0.00    +0.019 A 
ATOM     19  C   UNL     1       4.497   1.223  -3.171  0.00  0.00    +0.007 A 
BRANCH  17  20
ATOM     20  C   UNL     1       8.139   1.513  -2.516  0.00  0.00    +0.099 C 
ATOM     21  N   UNL     1       9.205   1.907  -2.524  0.00  0.00    -0.191 NA
ENDBRANCH  17  20
ENDBRANCH  13  14
BRANCH  13  22
ATOM     22  O   UNL     1       2.803  -1.892  -2.484  0.00  0.00    -0.389 OA
ATOM     23  H   UNL     1       3.258  -2.283  -1.725  0.00  0.00    +0.210 HD
ENDBRANCH  13  22
ENDBRANCH   1  13
TORSDOF 7
