REMARK  Name = ZINC62314334
REMARK  8 active torsions:
REMARK  status: ('A' for Active; 'I' for Inactive)
REMARK    1  A    between atoms: C_3  and  C_8
REMARK    2  A    between atoms: C_9  and  C_19
REMARK    3  A    between atoms: N_12  and  C_13
REMARK    4  A    between atoms: C_13  and  C_14
REMARK    5  A    between atoms: C_14  and  C_16
REMARK    6  A    between atoms: C_14  and  O_18
REMARK    7  A    between atoms: C_16  and  O_17
REMARK    8  A    between atoms: C_19  and  N_20
REMARK                            x       y       z     vdW  Elec       q    Type
REMARK                         _______ _______ _______ _____ _____    ______ ____
ROOT
ATOM      1  C   UNL     1       3.461   2.044   0.045  0.00  0.00    +0.090 A 
ATOM      2  C   UNL     1       3.694   3.030  -0.873  0.00  0.00    +0.073 A 
ATOM      3  N   UNL     1       4.943   3.451  -0.664  0.00  0.00    -0.136 NA
ATOM      4  N   UNL     1       5.459   2.787   0.307  0.00  0.00    -0.065 NA
ATOM      5  N   UNL     1       4.613   1.935   0.772  0.00  0.00    -0.241 N 
ENDROOT
BRANCH   1   8
ATOM      6  C   UNL     1       0.509  -0.160  -0.690  0.00  0.00    +0.002 A 
ATOM      7  C   UNL     1       1.669   0.568  -0.859  0.00  0.00    +0.010 A 
ATOM      8  C   UNL     1       2.217   1.262   0.220  0.00  0.00    +0.003 A 
ATOM      9  C   UNL     1       1.589   1.214   1.464  0.00  0.00    +0.030 A 
ATOM     10  C   UNL     1       0.428   0.482   1.621  0.00  0.00    +0.042 A 
ATOM     11  C   UNL     1      -0.111  -0.204   0.546  0.00  0.00    +0.020 A 
ATOM     12 CL   UNL     1      -0.355   0.421   3.169  0.00  0.00    -0.084 Cl
ENDBRANCH   1   8
BRANCH   5  13
ATOM     13  C   UNL     1       4.845   1.010   1.884  0.00  0.00    +0.179 C 
BRANCH  13  14
ATOM     14  C   UNL     1       5.547  -0.246   1.363  0.00  0.00    +0.161 C 
BRANCH  14  15
ATOM     15  O   UNL     1       4.687  -0.927   0.447  0.00  0.00    -0.388 OA
ATOM     16  H   UNL     1       3.818  -1.145   0.810  0.00  0.00    +0.210 HD
ENDBRANCH  14  15
BRANCH  14  17
ATOM     17  C   UNL     1       5.874  -1.171   2.537  0.00  0.00    +0.189 C 
BRANCH  17  18
ATOM     18  O   UNL     1       6.632  -2.288   2.067  0.00  0.00    -0.392 OA
ATOM     19  H   UNL     1       6.875  -2.918   2.760  0.00  0.00    +0.210 HD
ENDBRANCH  17  18
ENDBRANCH  14  17
ENDBRANCH  13  14
ENDBRANCH   5  13
BRANCH   2  20
ATOM     20  C   UNL     1       2.731   3.538  -1.915  0.00  0.00    -0.026 C 
BRANCH  20  21
ATOM     21  N   UNL     1       2.033   4.724  -1.399  0.00  0.00    +0.382 N 
ATOM     22  H   UNL     1       2.697   5.471  -1.260  0.00  0.00    -0.090 HD
ATOM     23  H   UNL     1       1.332   5.017  -2.063  0.00  0.00    -0.090 HD
ATOM     24  H   UNL     1       1.591   4.498  -0.521  0.00  0.00    -0.090 HD
ENDBRANCH  20  21
ENDBRANCH   2  20
TORSDOF 8
