REMARK  Name = ZINC63213456
REMARK  5 active torsions:
REMARK  status: ('A' for Active; 'I' for Inactive)
REMARK    1  A    between atoms: C_1  and  C_2
REMARK    2  A    between atoms: C_6  and  S_8
REMARK    3  A    between atoms: S_8  and  N_11
REMARK    4  A    between atoms: N_11  and  C_12
REMARK    5  A    between atoms: C_19  and  N_21
REMARK                            x       y       z     vdW  Elec       q    Type
REMARK                         _______ _______ _______ _____ _____    ______ ____
ROOT
ATOM      1  N   UNL     1      -1.366  -3.815   2.803  0.00  0.00    -0.188 NA
ATOM      2  H   UNL     1      -2.012  -3.602   3.494  0.00  0.00    +0.148 HD
ENDROOT
BRANCH   1   3
ATOM      3  C   UNL     1      -1.648  -4.883   1.841  0.00  0.00    +0.062 C 
ATOM      4  C   UNL     1      -2.451  -4.294   0.665  0.00  0.00    +0.019 C 
ATOM      5  C   UNL     1      -3.140  -5.354  -0.150  0.00  0.00    +0.001 C 
ATOM      6  C   UNL     1      -4.580  -5.518   0.377  0.00  0.00    -0.000 C 
ATOM      7  C   UNL     1      -4.641  -6.338   1.578  0.00  0.00    -0.002 C 
ATOM      8  C   UNL     1      -3.858  -5.718   2.753  0.00  0.00    -0.015 C 
ATOM      9  C   UNL     1      -2.398  -6.018   2.564  0.00  0.00    -0.056 C 
BRANCH   9  10
ATOM     10  N   UNL     1      -1.784  -6.229   3.882  0.00  0.00    +0.381 N 
ATOM     11  H   UNL     1      -1.848  -5.379   4.423  0.00  0.00    -0.090 HD
ATOM     12  H   UNL     1      -2.269  -6.971   4.364  0.00  0.00    -0.090 HD
ATOM     13  H   UNL     1      -0.814  -6.481   3.765  0.00  0.00    -0.090 HD
ENDBRANCH   9  10
ENDBRANCH   1   3
BRANCH   1  14
ATOM     14  S   UNL     1       0.056  -2.971   2.711  0.00  0.00    +0.061 S 
ATOM     15  O   UNL     1       1.094  -3.936   2.605  0.00  0.00    -0.153 OA
ATOM     16  O   UNL     1       0.020  -2.001   3.748  0.00  0.00    -0.153 OA
BRANCH  14  22
ATOM     17  C   UNL     1      -0.018   1.503   0.010  0.00  0.00    +0.044 C 
ATOM     18  C   UNL     1       0.002  -0.004   0.002  0.00  0.00    -0.048 A 
ATOM     19  C   UNL     1       0.006  -0.688  -1.200  0.00  0.00    +0.006 A 
ATOM     20  C   UNL     1       0.025  -2.070  -1.208  0.00  0.00    +0.040 A 
ATOM     21  C   UNL     1       0.041  -2.769  -0.013  0.00  0.00    +0.150 A 
ATOM     22  C   UNL     1       0.037  -2.083   1.189  0.00  0.00    +0.140 A 
ATOM     23  C   UNL     1       0.023  -0.701   1.196  0.00  0.00    +0.034 A 
ATOM     24  F   UNL     1       0.059  -4.120  -0.021  0.00  0.00    -0.203 F 
ENDBRANCH  14  22
ENDBRANCH   1  14
TORSDOF 4
