REMARK  Name = ZINC35572354
REMARK  7 active torsions:
REMARK  status: ('A' for Active; 'I' for Inactive)
REMARK    1  A    between atoms: C_1  and  C_2
REMARK    2  A    between atoms: C_2  and  N_3
REMARK    3  A    between atoms: N_3  and  C_4
REMARK    4  A    between atoms: C_4  and  C_6
REMARK    5  A    between atoms: C_4  and  C_13
REMARK    6  A    between atoms: C_16  and  O_20
REMARK    7  A    between atoms: O_20  and  C_21
REMARK                            x       y       z     vdW  Elec       q    Type
REMARK                         _______ _______ _______ _____ _____    ______ ____
ROOT
ATOM      1  C   UNL     1       0.710  -1.947  -1.215  0.00  0.00    -0.010 C 
ENDROOT
BRANCH   1   2
ATOM      2  C   UNL     1       1.520  -2.432  -2.389  0.00  0.00    -0.057 A 
ATOM      3  C   UNL     1       1.423  -1.788  -3.609  0.00  0.00    +0.003 A 
ATOM      4  C   UNL     1       2.166  -2.232  -4.686  0.00  0.00    +0.015 A 
ATOM      5  C   UNL     1       3.008  -3.321  -4.543  0.00  0.00    +0.018 A 
ATOM      6  C   UNL     1       3.105  -3.964  -3.323  0.00  0.00    +0.015 A 
ATOM      7  C   UNL     1       2.365  -3.516  -2.245  0.00  0.00    +0.003 A 
ATOM      8 BR   UNL     1       4.025  -3.929  -6.017  0.00  0.00    -0.050 Br
ENDBRANCH   1   2
BRANCH   1   9
ATOM      9  C   UNL     1      -0.700  -2.467  -1.328  0.00  0.00    -0.054 A 
ATOM     10  C   UNL     1      -1.601  -1.843  -2.171  0.00  0.00    +0.006 A 
ATOM     11  C   UNL     1      -2.894  -2.318  -2.277  0.00  0.00    +0.049 A 
ATOM     12  C   UNL     1      -3.290  -3.422  -1.537  0.00  0.00    +0.155 A 
ATOM     13  C   UNL     1      -2.384  -4.049  -0.691  0.00  0.00    +0.165 A 
ATOM     14  C   UNL     1      -1.088  -3.572  -0.593  0.00  0.00    +0.044 A 
ATOM     15  F   UNL     1      -2.765  -5.125   0.031  0.00  0.00    -0.202 F 
BRANCH  12  16
ATOM     16  O   UNL     1      -4.562  -3.890  -1.640  0.00  0.00    -0.492 OA
ATOM     17  C   UNL     1      -5.439  -3.196  -2.529  0.00  0.00    +0.277 C 
ENDBRANCH  12  16
ENDBRANCH   1   9
BRANCH   1  18
ATOM     18  N   UNL     1       0.690  -0.478  -1.207  0.00  0.00    +0.386 N 
ATOM     19  H   UNL     1       0.202  -0.144  -2.024  0.00  0.00    -0.085 HD
ATOM     20  H   UNL     1       1.636  -0.129  -1.214  0.00  0.00    -0.085 HD
BRANCH  18  22
ATOM     21  C   UNL     1      -0.019   1.526   0.010  0.00  0.00    -0.017 C 
ATOM     22  C   UNL     1       0.002  -0.004   0.002  0.00  0.00    -0.085 C 
ENDBRANCH  18  22
ENDBRANCH   1  18
TORSDOF 5
