REMARK  Name = ZINC49241422
REMARK  8 active torsions:
REMARK  status: ('A' for Active; 'I' for Inactive)
REMARK    1  A    between atoms: C_1  and  C_2
REMARK    2  A    between atoms: C_2  and  N_3
REMARK    3  A    between atoms: C_4  and  C_6
REMARK    4  A    between atoms: C_6  and  C_8
REMARK    5  A    between atoms: C_6  and  N_9
REMARK    6  A    between atoms: N_12  and  C_13
REMARK    7  A    between atoms: C_13  and  C_15
REMARK    8  A    between atoms: C_13  and  C_16
REMARK                            x       y       z     vdW  Elec       q    Type
REMARK                         _______ _______ _______ _____ _____    ______ ____
ROOT
ATOM      1  N   UNL     1       1.552  -3.749  -2.673  0.00  0.00    -0.288 N 
ATOM      2  C   UNL     1       1.652  -4.416  -3.840  0.00  0.00    +0.301 C 
ATOM      3  O   UNL     1       1.725  -3.801  -4.887  0.00  0.00    -0.253 OA
ATOM      4  N   UNL     1       1.670  -5.763  -3.848  0.00  0.00    -0.293 N 
ATOM      5  H   UNL     1       1.493  -4.240  -1.838  0.00  0.00    +0.151 HD
ATOM      6  H   UNL     1       1.611  -6.254  -3.013  0.00  0.00    +0.151 HD
ENDROOT
BRANCH   1   7
ATOM      7  C   UNL     1       1.532  -2.285  -2.665  0.00  0.00    +0.157 C 
ATOM      8  C   UNL     1       2.968  -1.755  -2.676  0.00  0.00    +0.038 C 
BRANCH   7  10
ATOM      9  N   UNL     1       0.688  -0.476  -1.203  0.00  0.00    -0.314 N 
ATOM     10  C   UNL     1       0.827  -1.799  -1.425  0.00  0.00    +0.233 C 
ATOM     11  O   UNL     1       0.384  -2.597  -0.627  0.00  0.00    -0.274 OA
ATOM     12  H   UNL     1       1.042   0.162  -1.842  0.00  0.00    +0.149 HD
BRANCH   9  14
ATOM     13  C   UNL     1      -0.019   1.526   0.010  0.00  0.00    +0.024 C 
ATOM     14  C   UNL     1       0.002  -0.004   0.002  0.00  0.00    +0.101 C 
ENDBRANCH   9  14
ENDBRANCH   7  10
ENDBRANCH   1   7
BRANCH   4  15
ATOM     15  C   UNL     1       1.778  -6.487  -5.117  0.00  0.00    +0.103 C 
ATOM     16  C   UNL     1       0.387  -6.649  -5.732  0.00  0.00    +0.033 C 
BRANCH  15  17
ATOM     17  C   UNL     1       2.379  -7.847  -4.869  0.00  0.00    -0.014 A 
ATOM     18  C   UNL     1       2.255  -8.443  -3.628  0.00  0.00    +0.006 A 
ATOM     19  C   UNL     1       2.806  -9.690  -3.401  0.00  0.00    +0.000 A 
ATOM     20  C   UNL     1       3.481 -10.343  -4.416  0.00  0.00    +0.001 A 
ATOM     21  C   UNL     1       3.606  -9.748  -5.657  0.00  0.00    +0.015 A 
ATOM     22  C   UNL     1       3.050  -8.502  -5.886  0.00  0.00    +0.023 A 
ATOM     23 BR   UNL     1       3.215  -7.691  -7.586  0.00  0.00    -0.050 Br
ENDBRANCH  15  17
ENDBRANCH   4  15
TORSDOF 5
