REMARK  Name = ZINC66203410
REMARK  13 active torsions:
REMARK  status: ('A' for Active; 'I' for Inactive)
REMARK    1  A    between atoms: C_1  and  C_2
REMARK    2  A    between atoms: C_2  and  C_3
REMARK    3  A    between atoms: C_3  and  C_5
REMARK    4  A    between atoms: C_3  and  N_6
REMARK    5  A    between atoms: N_6  and  C_7
REMARK    6  A    between atoms: N_6  and  C_8
REMARK    7  A    between atoms: C_8  and  C_9
REMARK    8  A    between atoms: C_9  and  N_10
REMARK    9  A    between atoms: N_13  and  N_14
REMARK   10  A    between atoms: C_15  and  C_17
REMARK   11  A    between atoms: C_20  and  C_22
REMARK   12  A    between atoms: C_22  and  O_23
REMARK   13  A    between atoms: O_23  and  C_24
REMARK                            x       y       z     vdW  Elec       q    Type
REMARK                         _______ _______ _______ _____ _____    ______ ____
ROOT
ATOM      1  N   UNL     1       5.684  -0.649  -6.309  0.00  0.00    -0.227 N 
ATOM      2  C   UNL     1       6.226  -0.905  -7.516  0.00  0.00    +0.295 C 
ATOM      3  O   UNL     1       7.396  -0.641  -7.726  0.00  0.00    -0.265 OA
ATOM      4  H   UNL     1       4.752  -0.860  -6.142  0.00  0.00    +0.173 HD
ENDROOT
BRANCH   1   8
ATOM      5  N   UNL     1       4.629  -0.116  -3.857  0.00  0.00    -0.300 N 
ATOM      6  C   UNL     1       5.924   0.177  -4.090  0.00  0.00    +0.316 C 
ATOM      7  O   UNL     1       6.602   0.673  -3.211  0.00  0.00    -0.251 OA
ATOM      8  N   UNL     1       6.466  -0.079  -5.297  0.00  0.00    -0.218 N 
ATOM      9  H   UNL     1       4.087  -0.511  -4.558  0.00  0.00    +0.150 HD
ATOM     10  H   UNL     1       7.398   0.132  -5.464  0.00  0.00    +0.174 HD
BRANCH   5  11
ATOM     11  C   UNL     1       4.039   0.163  -2.545  0.00  0.00    +0.087 C 
BRANCH  11  12
ATOM     12  C   UNL     1       2.569  -0.261  -2.546  0.00  0.00    -0.060 C 
BRANCH  12  13
ATOM     13  N   UNL     1       1.978   0.018  -1.231  0.00  0.00    +0.381 N 
ATOM     14  C   UNL     1       1.964   1.468  -0.998  0.00  0.00    -0.096 C 
ATOM     15  H   UNL     1       2.526  -0.433  -0.513  0.00  0.00    -0.082 HD
BRANCH  13  16
ATOM     16  C   UNL     1       0.603  -0.497  -1.193  0.00  0.00    -0.072 C 
ATOM     17  C   UNL     1      -0.188   0.072  -2.373  0.00  0.00    -0.013 C 
BRANCH  16  19
ATOM     18  C   UNL     1       1.307  -2.599  -0.040  0.00  0.00    +0.002 C 
ATOM     19  C   UNL     1       0.627  -2.024  -1.284  0.00  0.00    -0.019 C 
ENDBRANCH  16  19
ENDBRANCH  13  16
ENDBRANCH  12  13
ENDBRANCH  11  12
ENDBRANCH   5  11
ENDBRANCH   1   8
BRANCH   2  20
ATOM     20  C   UNL     1       5.408  -1.503  -8.576  0.00  0.00    +0.191 A 
ATOM     21  C   UNL     1       5.831  -1.817  -9.836  0.00  0.00    +0.055 A 
ATOM     22  C   UNL     1       4.726  -2.363 -10.508  0.00  0.00    +0.049 A 
ATOM     23  C   UNL     1       3.690  -2.358  -9.640  0.00  0.00    +0.143 A 
ATOM     24  O   UNL     1       4.106  -1.844  -8.476  0.00  0.00    -0.452 OA
BRANCH  23  25
ATOM     25  C   UNL     1       2.298  -2.854  -9.933  0.00  0.00    +0.303 C 
BRANCH  25  26
ATOM     26  O   UNL     1       2.207  -4.241  -9.601  0.00  0.00    -0.484 OA
BRANCH  26  27
ATOM     27  C   UNL     1       1.008  -4.847  -9.807  0.00  0.00    +0.121 A 
ATOM     28  C   UNL     1      -0.057  -4.123 -10.323  0.00  0.00    +0.045 A 
ATOM     29  C   UNL     1      -1.275  -4.742 -10.532  0.00  0.00    +0.004 A 
ATOM     30  C   UNL     1      -1.432  -6.081 -10.226  0.00  0.00    +0.000 A 
ATOM     31  C   UNL     1      -0.372  -6.805  -9.711  0.00  0.00    +0.004 A 
ATOM     32  C   UNL     1       0.849  -6.192  -9.507  0.00  0.00    +0.045 A 
ENDBRANCH  26  27
ENDBRANCH  25  26
ENDBRANCH  23  25
ENDBRANCH   2  20
TORSDOF 10
