REMARK  Name = ZINC31991143
REMARK  6 active torsions:
REMARK  status: ('A' for Active; 'I' for Inactive)
REMARK    1  A    between atoms: C_1  and  N_2
REMARK    2  A    between atoms: N_2  and  C_3
REMARK    3  A    between atoms: N_2  and  C_4
REMARK    4  A    between atoms: C_4  and  C_5
REMARK    5  A    between atoms: C_8  and  C_11
REMARK    6  A    between atoms: C_16  and  N_21
REMARK                            x       y       z     vdW  Elec       q    Type
REMARK                         _______ _______ _______ _____ _____    ______ ____
ROOT
ATOM      1  C   UNL     1       0.002  -0.004   0.002  0.00  0.00    +0.100 A 
ATOM      2  C   UNL     1       1.406  -0.428  -0.014  0.00  0.00    +0.029 A 
ATOM      3  C   UNL     1       2.042  -1.673  -0.027  0.00  0.00    +0.012 A 
ATOM      4  C   UNL     1       3.405  -1.742  -0.040  0.00  0.00    +0.003 A 
ATOM      5  C   UNL     1       4.173  -0.585  -0.040  0.00  0.00    +0.025 A 
ATOM      6  C   UNL     1       3.570   0.658  -0.028  0.00  0.00    +0.050 A 
ATOM      7  C   UNL     1       2.173   0.749  -0.015  0.00  0.00    +0.087 A 
ATOM      8  N   UNL     1       1.293   1.801  -0.001  0.00  0.00    -0.275 N 
ATOM      9  H   UNL     1       1.670   2.834   0.001  0.00  0.00    +0.189 HD
ATOM     10  N   UNL     1      -0.016   1.307   0.009  0.00  0.00    -0.173 NA
ENDROOT
BRANCH   1  14
ATOM     11  C   UNL     1      -3.393  -2.562   0.019  0.00  0.00    -0.064 A 
ATOM     12  C   UNL     1      -3.428  -1.367   0.715  0.00  0.00    +0.002 A 
ATOM     13  C   UNL     1      -2.329  -0.532   0.713  0.00  0.00    +0.010 A 
ATOM     14  C   UNL     1      -1.182  -0.896   0.008  0.00  0.00    +0.003 A 
ATOM     15  C   UNL     1      -1.155  -2.099  -0.695  0.00  0.00    +0.010 A 
ATOM     16  C   UNL     1      -2.258  -2.928  -0.682  0.00  0.00    +0.002 A 
BRANCH  11  17
ATOM     17  C   UNL     1      -4.597  -3.468   0.025  0.00  0.00    -0.044 C 
BRANCH  17  19
ATOM     18  C   UNL     1      -4.827  -3.411  -2.385  0.00  0.00    -0.096 C 
ATOM     19  N   UNL     1      -5.476  -3.121  -1.100  0.00  0.00    +0.379 N 
ATOM     20  C   UNL     1      -6.766  -3.816  -0.994  0.00  0.00    -0.096 C 
ATOM     21  H   UNL     1      -5.670  -2.039  -1.056  0.00  0.00    -0.082 HD
ENDBRANCH  17  19
ENDBRANCH  11  17
ENDBRANCH   1  14
BRANCH   6  22
ATOM     22  N   UNL     1       4.349   1.818  -0.029  0.00  0.00    -0.356 N 
ATOM     23  H   UNL     1       3.866   2.806  -0.019  0.00  0.00    +0.142 HD
ATOM     24  H   UNL     1       5.447   1.743  -0.039  0.00  0.00    +0.142 HD
ENDBRANCH   6  22
TORSDOF 4
