REMARK  Name = ZINC37162996
REMARK  7 active torsions:
REMARK  status: ('A' for Active; 'I' for Inactive)
REMARK    1  A    between atoms: C_1  and  C_2
REMARK    2  A    between atoms: C_5  and  N_13
REMARK    3  A    between atoms: C_7  and  C_12
REMARK    4  A    between atoms: N_10  and  C_11
REMARK    5  A    between atoms: N_13  and  C_14
REMARK    6  A    between atoms: C_17  and  O_23
REMARK    7  A    between atoms: C_19  and  N_20
REMARK                            x       y       z     vdW  Elec       q    Type
REMARK                         _______ _______ _______ _____ _____    ______ ____
ROOT
ATOM      1  N   UNL     1      -0.596  -2.630  -1.335  0.00  0.00    -0.339 N 
ATOM      2  H   UNL     1      -1.000  -3.007  -0.538  0.00  0.00    +0.146 HD
ENDROOT
BRANCH   1   6
ATOM      3  C   UNL     1      -0.429   1.319   0.404  0.00  0.00    -0.013 C 
ATOM      4  C   UNL     1      -0.222  -0.188   0.234  0.00  0.00    -0.070 C 
ATOM      5  C   UNL     1       0.503  -0.457  -1.087  0.00  0.00    +0.007 C 
ATOM      6  C   UNL     1       0.707  -1.965  -1.253  0.00  0.00    +0.070 C 
ATOM      7  C   UNL     1       1.481  -2.502  -0.045  0.00  0.00    -0.011 C 
ATOM      8  C   UNL     1       0.720  -2.157   1.236  0.00  0.00    -0.074 C 
ATOM      9  N   UNL     1       0.581  -0.700   1.350  0.00  0.00    +0.380 N 
ATOM     10  C   UNL     1      -0.080  -0.371   2.619  0.00  0.00    -0.096 C 
ATOM     11  C   UNL     1       1.624  -4.021  -0.163  0.00  0.00    +0.007 C 
ATOM     12  H   UNL     1       1.495  -0.273   1.329  0.00  0.00    -0.082 HD
ENDBRANCH   1   6
BRANCH   1  13
ATOM     13  C   UNL     1      -1.259  -2.720  -2.564  0.00  0.00    +0.058 A 
ATOM     14  C   UNL     1      -0.632  -2.287  -3.725  0.00  0.00    +0.029 A 
ATOM     15  C   UNL     1      -1.286  -2.378  -4.938  0.00  0.00    +0.047 A 
ATOM     16  C   UNL     1      -2.569  -2.901  -4.997  0.00  0.00    +0.119 A 
ATOM     17  C   UNL     1      -3.197  -3.333  -3.838  0.00  0.00    +0.080 A 
ATOM     18  C   UNL     1      -2.542  -3.249  -2.625  0.00  0.00    +0.150 A 
BRANCH  18  19
ATOM     19  N   UNL     1      -3.209  -3.716  -1.389  0.00  0.00    +0.058 N 
ATOM     20  O   UNL     1      -3.911  -4.699  -1.416  0.00  0.00    -0.126 OA
ATOM     21  O   UNL     1      -3.051  -3.113  -0.353  0.00  0.00    -0.126 OA
ENDBRANCH  18  19
BRANCH  16  22
ATOM     22  O   UNL     1      -3.213  -2.989  -6.192  0.00  0.00    -0.507 OA
ATOM     23  H   UNL     1      -3.064  -3.823  -6.658  0.00  0.00    +0.292 HD
ENDBRANCH  16  22
ENDBRANCH   1  13
TORSDOF 4
