REMARK  Name = ZINC02478981
REMARK  7 active torsions:
REMARK  status: ('A' for Active; 'I' for Inactive)
REMARK    1  A    between atoms: C_1  and  C_2
REMARK    2  A    between atoms: C_2  and  C_17
REMARK    3  A    between atoms: C_4  and  C_15
REMARK    4  A    between atoms: C_4  and  C_16
REMARK    5  A    between atoms: N_8  and  C_9
REMARK    6  A    between atoms: C_20  and  O_24
REMARK    7  A    between atoms: C_22  and  O_23
REMARK                            x       y       z     vdW  Elec       q    Type
REMARK                         _______ _______ _______ _____ _____    ______ ____
ROOT
ATOM      1  C   UNL     1       0.890   0.988  -0.269  0.00  0.00    +0.037 C 
ATOM      2  C   UNL     1       0.447  -0.448   0.034  0.00  0.00    +0.069 C 
ATOM      3  C   UNL     1      -1.071  -0.539   0.108  0.00  0.00    +0.056 C 
ATOM      4  C   UNL     1      -1.628  -0.275   1.502  0.00  0.00    +0.030 C 
ATOM      5  N   UNL     1      -0.879  -1.033   2.505  0.00  0.00    -0.321 N 
ATOM      6  C   UNL     1       0.429  -1.272   2.354  0.00  0.00    +0.138 C 
ATOM      7  S   UNL     1       1.273  -2.072   3.611  0.00  0.00    -0.018 S 
ATOM      8  N   UNL     1       1.099  -0.919   1.251  0.00  0.00    -0.272 N 
ATOM      9  C   UNL     1      -1.587   1.215   1.843  0.00  0.00    +0.031 C 
ATOM     10  C   UNL     1      -3.094  -0.740   1.543  0.00  0.00    +0.031 C 
ATOM     11  H   UNL     1      -1.339  -1.369   3.290  0.00  0.00    +0.148 HD
ENDROOT
BRANCH   8  12
ATOM     12  C   UNL     1       2.495  -1.007   1.268  0.00  0.00    +0.036 A 
ATOM     13  C   UNL     1       3.121  -2.205   0.946  0.00  0.00    +0.023 A 
ATOM     14  C   UNL     1       4.500  -2.288   0.964  0.00  0.00    +0.002 A 
ATOM     15  C   UNL     1       5.256  -1.182   1.303  0.00  0.00    +0.000 A 
ATOM     16  C   UNL     1       4.636   0.012   1.624  0.00  0.00    +0.002 A 
ATOM     17  C   UNL     1       3.259   0.104   1.603  0.00  0.00    +0.023 A 
ENDBRANCH   8  12
BRANCH   2  18
ATOM     18  C   UNL     1       0.914  -1.318  -1.104  0.00  0.00    +0.018 A 
ATOM     19  C   UNL     1       1.604  -0.759  -2.163  0.00  0.00    +0.013 A 
ATOM     20  C   UNL     1       2.034  -1.555  -3.207  0.00  0.00    +0.046 A 
ATOM     21  C   UNL     1       1.772  -2.918  -3.196  0.00  0.00    +0.120 A 
ATOM     22  C   UNL     1       1.080  -3.481  -2.135  0.00  0.00    +0.091 A 
ATOM     23  C   UNL     1       0.655  -2.681  -1.085  0.00  0.00    +0.126 A 
BRANCH  23  24
ATOM     24  O   UNL     1      -0.019  -3.231  -0.041  0.00  0.00    -0.506 OA
ATOM     25  H   UNL     1      -0.969  -3.328  -0.193  0.00  0.00    +0.292 HD
ENDBRANCH  23  24
BRANCH  21  26
ATOM     26  O   UNL     1       2.194  -3.700  -4.224  0.00  0.00    -0.507 OA
ATOM     27  H   UNL     1       3.079  -4.069  -4.100  0.00  0.00    +0.292 HD
ENDBRANCH  21  26
ENDBRANCH   2  18
TORSDOF 4
