REMARK  Name = ZINC37739915
REMARK  5 active torsions:
REMARK  status: ('A' for Active; 'I' for Inactive)
REMARK    1  A    between atoms: C_6  and  O_7
REMARK    2  A    between atoms: C_10  and  N_12
REMARK    3  A    between atoms: N_12  and  C_13
REMARK    4  A    between atoms: C_13  and  C_14
REMARK    5  A    between atoms: C_14  and  C_15
REMARK                            x       y       z     vdW  Elec       q    Type
REMARK                         _______ _______ _______ _____ _____    ______ ____
ROOT
ATOM      1  C   UNL     1      -0.017   1.383   0.010  0.00  0.00    +0.046 A 
ATOM      2  C   UNL     1       1.175   2.085   0.002  0.00  0.00    +0.009 A 
ATOM      3  C   UNL     1       2.374   1.408  -0.012  0.00  0.00    -0.016 A 
ATOM      4  C   UNL     1       2.409   0.018  -0.012  0.00  0.00    +0.126 A 
ATOM      5  C   UNL     1       1.208  -0.685  -0.009  0.00  0.00    +0.091 A 
ATOM      6  C   UNL     1       0.002  -0.004   0.002  0.00  0.00    +0.120 A 
ATOM      7  O   UNL     1       3.689  -0.443  -0.004  0.00  0.00    -0.493 OA
ATOM      8  C   UNL     1       4.572   0.603  -0.445  0.00  0.00    +0.218 C 
ATOM      9  C   UNL     1       3.813   1.887  -0.035  0.00  0.00    +0.001 C 
ENDROOT
BRANCH   9  10
ATOM     10  N   UNL     1       4.235   2.344   1.296  0.00  0.00    +0.386 N 
ATOM     11  H   UNL     1       3.595   3.049   1.629  0.00  0.00    -0.085 HD
ATOM     12  H   UNL     1       4.236   1.563   1.935  0.00  0.00    -0.085 HD
BRANCH  10  13
ATOM     13  C   UNL     1       5.588   2.910   1.213  0.00  0.00    -0.081 C 
BRANCH  13  14
ATOM     14  C   UNL     1       6.027   3.386   2.599  0.00  0.00    -0.016 C 
BRANCH  14  15
ATOM     15  C   UNL     1       7.436   3.977   2.513  0.00  0.00    -0.013 C 
ATOM     16  C   UNL     1       8.428   2.876   2.129  0.00  0.00    +0.003 C 
ATOM     17  C   UNL     1       9.836   3.466   2.043  0.00  0.00    +0.000 C 
ATOM     18  C   UNL     1      10.227   4.054   3.400  0.00  0.00    +0.000 C 
ATOM     19  C   UNL     1       9.236   5.155   3.784  0.00  0.00    +0.000 C 
ATOM     20  C   UNL     1       7.827   4.564   3.870  0.00  0.00    +0.003 C 
ENDBRANCH  14  15
ENDBRANCH  13  14
ENDBRANCH  10  13
ENDBRANCH   9  10
BRANCH   6  21
ATOM     21  O   UNL     1      -1.167  -0.697   0.005  0.00  0.00    -0.507 OA
ATOM     22  H   UNL     1      -1.511  -0.893  -0.877  0.00  0.00    +0.292 HD
ENDBRANCH   6  21
TORSDOF 5
