REMARK  Name = ZINC63700013
REMARK  7 active torsions:
REMARK  status: ('A' for Active; 'I' for Inactive)
REMARK    1  A    between atoms: C_1  and  C_2
REMARK    2  A    between atoms: C_5  and  C_25
REMARK    3  A    between atoms: C_6  and  N_8
REMARK    4  A    between atoms: C_9  and  C_11
REMARK    5  A    between atoms: N_13  and  C_14
REMARK    6  A    between atoms: C_14  and  C_15
REMARK    7  A    between atoms: C_15  and  C_16
REMARK                            x       y       z     vdW  Elec       q    Type
REMARK                         _______ _______ _______ _____ _____    ______ ____
ROOT
ATOM      1  C   UNL     1       0.278  -2.893   4.840  0.00  0.00    +0.299 C 
ATOM      2  O   UNL     1       0.293  -4.107   4.827  0.00  0.00    -0.265 OA
ATOM      3  N   UNL     1       0.376  -2.231   6.010  0.00  0.00    -0.307 N 
ATOM      4  H   UNL     1       0.363  -1.261   6.020  0.00  0.00    +0.149 HD
ENDROOT
BRANCH   1   6
ATOM      5  N   UNL     1       0.051  -2.797   2.391  0.00  0.00    -0.278 N 
ATOM      6  C   UNL     1       0.149  -2.134   3.560  0.00  0.00    +0.303 C 
ATOM      7  O   UNL     1       0.134  -0.921   3.573  0.00  0.00    -0.265 OA
ATOM      8  H   UNL     1      -0.017  -3.765   2.386  0.00  0.00    +0.155 HD
BRANCH   5  14
ATOM      9  C   UNL     1       1.265   1.227  -0.158  0.00  0.00    +0.044 C 
ATOM     10  C   UNL     1       0.628  -0.137  -0.079  0.00  0.00    -0.049 A 
ATOM     11  C   UNL     1       0.039  -0.690  -1.201  0.00  0.00    +0.004 A 
ATOM     12  C   UNL     1      -0.546  -1.941  -1.133  0.00  0.00    +0.005 A 
ATOM     13  C   UNL     1      -0.544  -2.643   0.056  0.00  0.00    -0.029 A 
ATOM     14  C   UNL     1       0.047  -2.090   1.185  0.00  0.00    +0.037 A 
ATOM     15  C   UNL     1       0.639  -0.835   1.112  0.00  0.00    +0.027 A 
ATOM     16  C   UNL     1      -1.182  -4.006   0.129  0.00  0.00    +0.045 C 
ENDBRANCH   5  14
ENDBRANCH   1   6
BRANCH   3  17
ATOM     17  C   UNL     1       0.502  -2.975   7.265  0.00  0.00    +0.109 C 
BRANCH  17  18
ATOM     18  C   UNL     1       0.595  -1.992   8.434  0.00  0.00    +0.052 C 
BRANCH  18  19
ATOM     19  C   UNL     1       0.725  -2.758   9.725  0.00  0.00    -0.040 C 
ATOM     20  C   UNL     1       1.870  -3.071  10.374  0.00  0.00    -0.001 A 
ATOM     21  C   UNL     1       3.283  -2.802  10.082  0.00  0.00    +0.010 A 
ATOM     22  C   UNL     1       4.227  -3.253  10.939  0.00  0.00    +0.001 A 
ATOM     23  C   UNL     1       3.890  -3.970  12.096  0.00  0.00    +0.002 A 
ATOM     24  C   UNL     1       2.614  -4.255  12.431  0.00  0.00    +0.026 A 
ATOM     25  C   UNL     1       1.540  -3.829  11.602  0.00  0.00    +0.043 A 
ATOM     26  N   UNL     1       0.242  -3.979  11.708  0.00  0.00    -0.380 N 
ATOM     27  C   UNL     1      -0.400  -3.327  10.561  0.00  0.00    +0.144 C 
ATOM     28  H   UNL     1      -0.217  -4.441  12.427  0.00  0.00    +0.160 HD
ENDBRANCH  18  19
ENDBRANCH  17  18
ENDBRANCH   3  17
TORSDOF 5
