REMARK  Name = ZINC67269878
REMARK  8 active torsions:
REMARK  status: ('A' for Active; 'I' for Inactive)
REMARK    1  A    between atoms: C_1  and  C_2
REMARK    2  A    between atoms: N_5  and  C_8
REMARK    3  A    between atoms: C_8  and  C_10
REMARK    4  A    between atoms: C_8  and  C_11
REMARK    5  A    between atoms: C_11  and  N_12
REMARK    6  A    between atoms: C_13  and  C_15
REMARK    7  A    between atoms: C_19  and  N_22
REMARK    8  A    between atoms: C_20  and  N_21
REMARK                            x       y       z     vdW  Elec       q    Type
REMARK                         _______ _______ _______ _____ _____    ______ ____
ROOT
ATOM      1  N   UNL     1       1.501  -3.833  -2.452  0.00  0.00    -0.313 N 
ATOM      2  C   UNL     1       1.868  -4.149  -3.710  0.00  0.00    +0.246 C 
ATOM      3  O   UNL     1       2.734  -4.981  -3.900  0.00  0.00    -0.270 OA
ATOM      4  H   UNL     1       0.810  -3.169  -2.301  0.00  0.00    +0.149 HD
ENDROOT
BRANCH   2   5
ATOM      5  C   UNL     1       1.218  -3.486  -4.856  0.00  0.00    +0.062 A 
ATOM      6  C   UNL     1       0.130  -2.633  -4.650  0.00  0.00    +0.053 A 
ATOM      7  C   UNL     1      -0.473  -2.017  -5.727  0.00  0.00    +0.126 A 
ATOM      8  C   UNL     1      -0.005  -2.240  -7.014  0.00  0.00    +0.073 A 
ATOM      9  C   UNL     1       1.068  -3.079  -7.231  0.00  0.00    +0.150 A 
ATOM     10  C   UNL     1       1.692  -3.704  -6.158  0.00  0.00    +0.068 A 
ATOM     11  F   UNL     1      -1.525  -1.193  -5.527  0.00  0.00    -0.205 F 
BRANCH  10  12
ATOM     12  N   UNL     1       2.777  -4.545  -6.375  0.00  0.00    -0.356 N 
ATOM     13  H   UNL     1       2.864  -5.017  -7.218  0.00  0.00    +0.142 HD
ATOM     14  H   UNL     1       3.447  -4.660  -5.683  0.00  0.00    +0.142 HD
ENDBRANCH  10  12
BRANCH   9  15
ATOM     15  N   UNL     1       1.559  -3.311  -8.608  0.00  0.00    +0.058 N 
ATOM     16  O   UNL     1       1.075  -2.700  -9.533  0.00  0.00    -0.126 OA
ATOM     17  O   UNL     1       2.443  -4.111  -8.809  0.00  0.00    -0.126 OA
ENDBRANCH   9  15
ENDBRANCH   2   5
BRANCH   1  18
ATOM     18  C   UNL     1       2.146  -4.491  -1.314  0.00  0.00    +0.089 C 
BRANCH  18  19
ATOM     19  C   UNL     1       1.473  -4.041  -0.016  0.00  0.00    -0.054 C 
ATOM     20  C   UNL     1       2.192  -4.673   1.178  0.00  0.00    -0.012 C 
BRANCH  19  25
ATOM     21  C   UNL     1       2.235   1.422   1.433  0.00  0.00    +0.007 C 
ATOM     22  C   UNL     1       2.221  -0.108   1.444  0.00  0.00    -0.018 C 
ATOM     23  C   UNL     1       0.778  -0.608   1.332  0.00  0.00    -0.016 C 
ATOM     24  C   UNL     1       0.777  -2.136   1.263  0.00  0.00    -0.078 C 
ATOM     25  N   UNL     1       1.542  -2.577   0.090  0.00  0.00    +0.382 N 
ATOM     26  C   UNL     1       2.944  -2.163   0.225  0.00  0.00    -0.078 C 
ATOM     27  C   UNL     1       3.028  -0.636   0.254  0.00  0.00    -0.016 C 
ATOM     28  H   UNL     1       1.149  -2.163  -0.742  0.00  0.00    -0.081 HD
ENDBRANCH  19  25
ENDBRANCH  18  19
ENDBRANCH   1  18
TORSDOF 6
