REMARK  Name = ZINC44787244
REMARK  3 active torsions:
REMARK  status: ('A' for Active; 'I' for Inactive)
REMARK    1  A    between atoms: C_9  and  S_11
REMARK    2  A    between atoms: S_11  and  C_12
REMARK    3  A    between atoms: C_12  and  C_13
REMARK                            x       y       z     vdW  Elec       q    Type
REMARK                         _______ _______ _______ _____ _____    ______ ____
ROOT
ATOM      1  C   UNL     1      -0.017   1.379   0.010  0.00  0.00    +0.055 A 
ATOM      2  C   UNL     1       1.176   2.084   0.002  0.00  0.00    +0.068 A 
ATOM      3  C   UNL     1       2.406   1.399  -0.013  0.00  0.00    +0.091 A 
ATOM      4  C   UNL     1       2.426   0.006  -0.021  0.00  0.00    +0.059 A 
ATOM      5  C   UNL     1       1.227  -0.700  -0.013  0.00  0.00    +0.092 A 
ATOM      6  C   UNL     1       0.002  -0.004   0.002  0.00  0.00    +0.069 A 
ATOM      7  N   UNL     1      -0.991  -0.974   0.006  0.00  0.00    -0.333 N 
ATOM      8  H   UNL     1      -1.948  -0.817   0.015  0.00  0.00    +0.168 HD
ATOM      9  C   UNL     1      -0.368  -2.191  -0.007  0.00  0.00    +0.168 A 
ATOM     10  N   UNL     1       0.931  -2.029  -0.017  0.00  0.00    -0.222 NA
ATOM     11  N   UNL     1       3.384   2.345  -0.018  0.00  0.00    -0.236 NA
ATOM     12  C   UNL     1       2.849   3.530  -0.006  0.00  0.00    +0.197 A 
ATOM     13  N   UNL     1       1.491   3.431   0.006  0.00  0.00    -0.344 N 
ATOM     14  H   UNL     1       0.861   4.169   0.016  0.00  0.00    +0.167 HD
ENDROOT
BRANCH   9  15
ATOM     15  S   UNL     1      -1.193  -3.748  -0.009  0.00  0.00    -0.079 S 
BRANCH  15  16
ATOM     16  C   UNL     1       0.157  -4.960  -0.028  0.00  0.00    +0.172 C 
BRANCH  16  17
ATOM     17  C   UNL     1      -0.418  -6.353  -0.031  0.00  0.00    +0.221 C 
ATOM     18  O   UNL     1      -1.620  -6.512  -0.021  0.00  0.00    -0.275 OA
ATOM     19  N   UNL     1       0.404  -7.421  -0.044  0.00  0.00    -0.329 N 
ATOM     20  H   UNL     1       1.365  -7.293  -0.052  0.00  0.00    +0.145 HD
ATOM     21  H   UNL     1       0.034  -8.317  -0.046  0.00  0.00    +0.145 HD
ENDBRANCH  16  17
ENDBRANCH  15  16
ENDBRANCH   9  15
TORSDOF 3
