REMARK  Name = ZINC42321976
REMARK  8 active torsions:
REMARK  status: ('A' for Active; 'I' for Inactive)
REMARK    1  A    between atoms: C_1  and  N_2
REMARK    2  A    between atoms: N_2  and  C_3
REMARK    3  A    between atoms: N_2  and  C_4
REMARK    4  A    between atoms: C_4  and  C_10
REMARK    5  A    between atoms: C_10  and  N_11
REMARK    6  A    between atoms: N_14  and  C_15
REMARK    7  A    between atoms: C_15  and  C_16
REMARK    8  A    between atoms: C_19  and  N_22
REMARK                            x       y       z     vdW  Elec       q    Type
REMARK                         _______ _______ _______ _____ _____    ______ ____
ROOT
ATOM      1  N   UNL     1      -2.362   1.254   1.311  0.00  0.00    -0.301 N 
ATOM      2  C   UNL     1      -3.119   1.832   2.265  0.00  0.00    +0.300 C 
ATOM      3  O   UNL     1      -3.699   1.142   3.081  0.00  0.00    -0.253 OA
ATOM      4  N   UNL     1      -3.234   3.174   2.313  0.00  0.00    -0.295 N 
ATOM      5  H   UNL     1      -1.900   1.805   0.659  0.00  0.00    +0.150 HD
ATOM      6  H   UNL     1      -2.772   3.724   1.662  0.00  0.00    +0.151 HD
ENDROOT
BRANCH   1   7
ATOM      7  C   UNL     1      -2.238  -0.204   1.258  0.00  0.00    +0.094 C 
BRANCH   7   8
ATOM      8  C   UNL     1      -1.436  -0.603   0.017  0.00  0.00    -0.050 C 
ATOM      9  C   UNL     1      -1.416  -2.128  -0.109  0.00  0.00    -0.010 C 
ATOM     10  C   UNL     1      -0.763  -2.733   1.136  0.00  0.00    -0.001 C 
ATOM     11  C   UNL     1       0.669  -2.213   1.265  0.00  0.00    -0.000 C 
ATOM     12  C   UNL     1       0.649  -0.688   1.391  0.00  0.00    -0.001 C 
ATOM     13  C   UNL     1      -0.003  -0.083   0.146  0.00  0.00    -0.010 C 
BRANCH   8  15
ATOM     14  C   UNL     1      -1.298  -0.412  -2.370  0.00  0.00    -0.096 C 
ATOM     15  N   UNL     1      -2.062  -0.021  -1.178  0.00  0.00    +0.381 N 
ATOM     16  C   UNL     1      -3.441  -0.514  -1.297  0.00  0.00    -0.096 C 
ATOM     17  H   UNL     1      -2.070   0.984  -1.098  0.00  0.00    -0.082 HD
ENDBRANCH   8  15
ENDBRANCH   7   8
ENDBRANCH   1   7
BRANCH   4  18
ATOM     18  C   UNL     1      -4.057   3.801   3.350  0.00  0.00    +0.141 C 
BRANCH  18  19
ATOM     19  C   UNL     1      -4.018   5.299   3.184  0.00  0.00    -0.030 A 
ATOM     20  C   UNL     1      -3.043   6.039   3.828  0.00  0.00    +0.007 A 
ATOM     21  C   UNL     1      -3.005   7.411   3.678  0.00  0.00    +0.023 A 
ATOM     22  C   UNL     1      -3.947   8.048   2.880  0.00  0.00    +0.030 A 
ATOM     23  C   UNL     1      -4.925   7.302   2.235  0.00  0.00    +0.023 A 
ATOM     24  C   UNL     1      -4.954   5.929   2.385  0.00  0.00    +0.007 A 
BRANCH  22  25
ATOM     25  N   UNL     1      -3.911   9.436   2.727  0.00  0.00    -0.320 N 
ATOM     26  C   UNL     1      -4.965  10.153   1.989  0.00  0.00    +0.124 C 
ATOM     27  C   UNL     1      -5.648  11.123   2.954  0.00  0.00    +0.123 C 
ATOM     28  N   UNL     1      -4.660  11.872   3.719  0.00  0.00    -0.313 N 
ATOM     29  C   UNL     1      -3.402  11.478   3.921  0.00  0.00    +0.230 C 
ATOM     30  O   UNL     1      -2.695  12.149   4.643  0.00  0.00    -0.274 OA
ATOM     31  C   UNL     1      -2.823  10.241   3.301  0.00  0.00    +0.200 C 
ATOM     32  H   UNL     1      -4.937  12.716   4.109  0.00  0.00    +0.149 HD
ENDBRANCH  22  25
ENDBRANCH  18  19
ENDBRANCH   4  18
TORSDOF 6
