REMARK  Name = ZINC41192973
REMARK  6 active torsions:
REMARK  status: ('A' for Active; 'I' for Inactive)
REMARK    1  A    between atoms: C_1  and  C_2
REMARK    2  A    between atoms: C_2  and  C_3
REMARK    3  A    between atoms: C_3  and  N_4
REMARK    4  A    between atoms: N_4  and  C_5
REMARK    5  A    between atoms: C_5  and  C_7
REMARK    6  A    between atoms: C_5  and  C_17
REMARK                            x       y       z     vdW  Elec       q    Type
REMARK                         _______ _______ _______ _____ _____    ______ ____
ROOT
ATOM      1  C   UNL     1      -2.792  -2.511   0.015  0.00  0.00    +0.016 C 
ENDROOT
BRANCH   1   2
ATOM      2  C   UNL     1      -2.774  -4.012  -0.117  0.00  0.00    -0.050 A 
ATOM      3  C   UNL     1      -3.710  -4.645  -0.913  0.00  0.00    +0.052 A 
ATOM      4  C   UNL     1      -3.697  -6.025  -1.037  0.00  0.00    +0.168 A 
ATOM      5  C   UNL     1      -2.738  -6.772  -0.357  0.00  0.00    +0.184 A 
ATOM      6  C   UNL     1      -1.802  -6.131   0.440  0.00  0.00    +0.087 A 
ATOM      7  C   UNL     1      -1.819  -4.752   0.554  0.00  0.00    +0.026 A 
ATOM      8 CL   UNL     1      -0.605  -7.058   1.289  0.00  0.00    -0.080 Cl
ATOM      9  O   UNL     1      -2.933  -8.093  -0.640  0.00  0.00    -0.451 OA
ATOM     10  C   UNL     1      -4.269  -8.179  -1.171  0.00  0.00    +0.466 C 
ATOM     11  O   UNL     1      -4.493  -6.878  -1.745  0.00  0.00    -0.453 OA
ENDBRANCH   1   2
BRANCH   1  12
ATOM     12  C   UNL     1      -3.458  -2.128   1.311  0.00  0.00    +0.069 A 
ATOM     13  N   UNL     1      -2.977  -2.204   2.527  0.00  0.00    -0.254 NA
ATOM     14  C   UNL     1      -3.688  -1.827   3.571  0.00  0.00    +0.118 A 
ATOM     15  C   UNL     1      -4.939  -1.359   3.327  0.00  0.00    +0.066 A 
ATOM     16  S   UNL     1      -4.999  -1.494   1.547  0.00  0.00    -0.082 S 
ENDBRANCH   1  12
BRANCH   1  17
ATOM     17  N   UNL     1      -1.413  -2.002   0.005  0.00  0.00    +0.388 N 
ATOM     18  H   UNL     1      -0.941  -2.328  -0.825  0.00  0.00    -0.084 HD
ATOM     19  H   UNL     1      -0.925  -2.337   0.822  0.00  0.00    -0.084 HD
BRANCH  17  20
ATOM     20  C   UNL     1      -1.433  -0.534   0.013  0.00  0.00    -0.081 C 
BRANCH  20  22
ATOM     21  C   UNL     1      -0.019   1.526   0.010  0.00  0.00    +0.002 C 
ATOM     22  C   UNL     1       0.002  -0.004   0.002  0.00  0.00    -0.022 C 
ENDBRANCH  20  22
ENDBRANCH  17  20
ENDBRANCH   1  17
TORSDOF 5
