REMARK  Name = ZINC12495670
REMARK  8 active torsions:
REMARK  status: ('A' for Active; 'I' for Inactive)
REMARK    1  A    between atoms: C_1  and  C_2
REMARK    2  A    between atoms: C_2  and  O_3
REMARK    3  A    between atoms: O_3  and  C_4
REMARK    4  A    between atoms: C_4  and  C_6
REMARK    5  A    between atoms: C_6  and  C_26
REMARK    6  A    between atoms: C_11  and  C_13
REMARK    7  A    between atoms: C_16  and  O_19
REMARK    8  A    between atoms: N_22  and  C_25
REMARK                            x       y       z     vdW  Elec       q    Type
REMARK                         _______ _______ _______ _____ _____    ______ ____
ROOT
ATOM      1  C   UNL     1       2.543   0.675  -0.187  0.00  0.00    +0.070 C 
ATOM      2  C   UNL     1       3.335   1.744   0.474  0.00  0.00    +0.090 C 
ATOM      3  C   UNL     1       2.994   1.478   1.994  0.00  0.00    +0.077 C 
ATOM      4  C   UNL     1       3.284  -0.004   2.015  0.00  0.00    -0.026 C 
ATOM      5  C   UNL     1       3.836   2.549   2.572  0.00  0.00    +0.224 C 
ATOM      6  O   UNL     1       4.460   2.513   3.611  0.00  0.00    -0.275 OA
ATOM      7  N   UNL     1       3.761   3.588   1.683  0.00  0.00    -0.245 N 
ATOM      8  C   UNL     1       3.265   3.203   0.463  0.00  0.00    +0.225 C 
ATOM      9  O   UNL     1       2.859   3.917  -0.429  0.00  0.00    -0.275 OA
ATOM     10  C   UNL     1       4.165   4.960   2.000  0.00  0.00    +0.141 C 
ATOM     11  N   UNL     1       2.610  -0.470   0.766  0.00  0.00    +0.398 N 
ATOM     12  H   UNL     1       3.148  -1.238   0.348  0.00  0.00    -0.083 HD
ATOM     13  H   UNL     1       1.661  -0.796   0.984  0.00  0.00    -0.083 HD
ENDROOT
BRANCH   4  14
ATOM     14  C   UNL     1       2.679  -0.650   3.234  0.00  0.00    -0.060 A 
ATOM     15  C   UNL     1       1.305  -0.680   3.390  0.00  0.00    +0.005 A 
ATOM     16  C   UNL     1       0.748  -1.277   4.504  0.00  0.00    +0.045 A 
ATOM     17  C   UNL     1       1.568  -1.838   5.472  0.00  0.00    +0.117 A 
ATOM     18  C   UNL     1       2.946  -1.802   5.317  0.00  0.00    +0.045 A 
ATOM     19  C   UNL     1       3.498  -1.208   4.198  0.00  0.00    +0.005 A 
BRANCH  17  20
ATOM     20  O   UNL     1       1.022  -2.420   6.572  0.00  0.00    -0.507 OA
ATOM     21  H   UNL     1       0.892  -1.814   7.314  0.00  0.00    +0.292 HD
ENDBRANCH  17  20
ENDBRANCH   4  14
BRANCH   1  22
ATOM     22  C   UNL     1       1.117   1.120  -0.380  0.00  0.00    -0.047 A 
ATOM     23  C   UNL     1       0.091   0.454   0.264  0.00  0.00    +0.003 A 
ATOM     24  C   UNL     1      -1.218   0.859   0.082  0.00  0.00    +0.000 A 
ATOM     25  C   UNL     1      -1.501   1.938  -0.735  0.00  0.00    +0.000 A 
ATOM     26  C   UNL     1      -0.475   2.604  -1.379  0.00  0.00    +0.000 A 
ATOM     27  C   UNL     1       0.834   2.196  -1.201  0.00  0.00    +0.003 A 
ENDBRANCH   1  22
BRANCH   1  28
ATOM     28  C   UNL     1       3.160   0.302  -1.511  0.00  0.00    +0.301 C 
ATOM     29  O   UNL     1       3.820   1.111  -2.119  0.00  0.00    -0.252 OA
BRANCH  28  30
ATOM     30  O   UNL     1       2.977  -0.928  -2.014  0.00  0.00    -0.466 OA
BRANCH  30  32
ATOM     31  C   UNL     1       3.282  -2.657  -3.702  0.00  0.00    +0.048 C 
ATOM     32  C   UNL     1       3.600  -1.217  -3.293  0.00  0.00    +0.228 C 
ENDBRANCH  30  32
ENDBRANCH  28  30
ENDBRANCH   1  28
TORSDOF 6
