REMARK  Name = ZINC57848552
REMARK  7 active torsions:
REMARK  status: ('A' for Active; 'I' for Inactive)
REMARK    1  A    between atoms: C_1  and  C_2
REMARK    2  A    between atoms: C_2  and  C_3
REMARK    3  A    between atoms: C_6  and  C_9
REMARK    4  A    between atoms: C_9  and  C_25
REMARK    5  A    between atoms: N_12  and  C_16
REMARK    6  A    between atoms: C_16  and  C_17
REMARK    7  A    between atoms: C_17  and  C_18
REMARK                            x       y       z     vdW  Elec       q    Type
REMARK                         _______ _______ _______ _____ _____    ______ ____
ROOT
ATOM      1  C   UNL     1       2.797  -1.919   4.683  0.00  0.00    +0.135 C 
ATOM      2  C   UNL     1       1.923  -2.873   5.473  0.00  0.00    +0.251 C 
ATOM      3  O   UNL     1       0.856  -2.627   5.995  0.00  0.00    -0.272 OA
ATOM      4  N   UNL     1       2.577  -4.051   5.474  0.00  0.00    -0.224 N 
ATOM      5  C   UNL     1       3.731  -3.975   4.802  0.00  0.00    +0.310 C 
ATOM      6  O   UNL     1       4.496  -4.909   4.665  0.00  0.00    -0.252 OA
ATOM      7  N   UNL     1       3.951  -2.748   4.295  0.00  0.00    -0.281 N 
ATOM      8  C   UNL     1       3.247  -0.747   5.558  0.00  0.00    +0.047 C 
ATOM      9  H   UNL     1       4.719  -2.465   3.774  0.00  0.00    +0.152 HD
ENDROOT
BRANCH   1  13
ATOM     10  C   UNL     1       0.731  -0.503   1.223  0.00  0.00    -0.048 A 
ATOM     11  C   UNL     1       2.097  -0.710   1.176  0.00  0.00    +0.004 A 
ATOM     12  C   UNL     1       2.766  -1.167   2.296  0.00  0.00    +0.006 A 
ATOM     13  C   UNL     1       2.068  -1.419   3.463  0.00  0.00    -0.015 A 
ATOM     14  C   UNL     1       0.702  -1.212   3.510  0.00  0.00    +0.006 A 
ATOM     15  C   UNL     1       0.034  -0.750   2.391  0.00  0.00    +0.004 A 
BRANCH  10  17
ATOM     16  C   UNL     1      -0.019   1.526   0.010  0.00  0.00    +0.009 C 
ATOM     17  C   UNL     1       0.002  -0.004   0.002  0.00  0.00    +0.032 C 
ENDBRANCH  10  17
ENDBRANCH   1  13
BRANCH   4  18
ATOM     18  C   UNL     1       2.086  -5.265   6.131  0.00  0.00    +0.116 C 
BRANCH  18  19
ATOM     19  C   UNL     1       1.232  -6.067   5.146  0.00  0.00    +0.004 C 
BRANCH  19  20
ATOM     20  C   UNL     1       0.719  -7.335   5.832  0.00  0.00    -0.070 C 
ATOM     21  C   UNL     1      -0.235  -8.073   4.891  0.00  0.00    -0.016 C 
ATOM     22  C   UNL     1      -0.746  -9.341   5.581  0.00  0.00    -0.003 C 
ATOM     23  C   UNL     1       0.450 -10.205   5.990  0.00  0.00    -0.019 C 
ATOM     24  C   UNL     1       1.379  -9.388   6.890  0.00  0.00    -0.082 C 
ATOM     25  N   UNL     1       1.854  -8.205   6.163  0.00  0.00    +0.381 N 
ATOM     26  H   UNL     1       2.314  -8.495   5.313  0.00  0.00    -0.086 HD
ATOM     27  H   UNL     1       2.508  -7.698   6.741  0.00  0.00    -0.086 HD
ENDBRANCH  19  20
ENDBRANCH  18  19
ENDBRANCH   4  18
TORSDOF 5
