REMARK  Name = ZINC04813677
REMARK  5 active torsions:
REMARK  status: ('A' for Active; 'I' for Inactive)
REMARK    1  A    between atoms: C_1  and  C_2
REMARK    2  A    between atoms: C_4  and  C_19
REMARK    3  A    between atoms: C_5  and  C_18
REMARK    4  A    between atoms: N_6  and  C_7
REMARK    5  A    between atoms: C_8  and  C_16
REMARK                            x       y       z     vdW  Elec       q    Type
REMARK                         _______ _______ _______ _____ _____    ______ ____
ROOT
ATOM      1  C   UNL     1       2.152   0.698  -6.092  0.00  0.00    +0.064 C 
ATOM      2  C   UNL     1       0.977   1.619  -6.301  0.00  0.00    +0.022 A 
ATOM      3  C   UNL     1       0.696   2.274  -7.438  0.00  0.00    +0.031 A 
ATOM      4  C   UNL     1      -0.529   3.047  -7.181  0.00  0.00    -0.003 A 
ATOM      5  C   UNL     1      -0.885   2.769  -5.869  0.00  0.00    +0.029 A 
ATOM      6  N   UNL     1       0.029   1.920  -5.359  0.00  0.00    -0.311 N 
ATOM      7  C   UNL     1      -2.081   3.324  -5.140  0.00  0.00    +0.064 C 
ENDROOT
BRANCH   4   8
ATOM      8  C   UNL     1      -1.209   3.894  -8.087  0.00  0.00    +0.028 C 
ATOM      9  C   UNL     1      -0.493   4.777  -8.880  0.00  0.00    +0.100 C 
ATOM     10  C   UNL     1       0.947   5.010  -8.665  0.00  0.00    +0.256 C 
ATOM     11  O   UNL     1       1.549   4.429  -7.782  0.00  0.00    -0.270 OA
ATOM     12  N   UNL     1       1.580   5.880  -9.479  0.00  0.00    -0.236 N 
ATOM     13  C   UNL     1       0.928   6.530 -10.452  0.00  0.00    +0.313 C 
ATOM     14  O   UNL     1       1.555   7.306 -11.147  0.00  0.00    -0.252 OA
ATOM     15  N   UNL     1      -0.380   6.372 -10.701  0.00  0.00    -0.236 N 
ATOM     16  C   UNL     1      -1.140   5.530  -9.970  0.00  0.00    +0.256 C 
ATOM     17  O   UNL     1      -2.326   5.395 -10.206  0.00  0.00    -0.270 OA
ATOM     18  H   UNL     1       2.528   6.041  -9.354  0.00  0.00    +0.159 HD
ATOM     19  H   UNL     1      -0.790   6.875 -11.422  0.00  0.00    +0.159 HD
ENDBRANCH   4   8
BRANCH   6  20
ATOM     20  C   UNL     1       0.009   1.417  -4.064  0.00  0.00    +0.099 A 
ATOM     21  C   UNL     1       0.075   2.115  -2.867  0.00  0.00    +0.098 A 
ATOM     22  C   UNL     1       0.034   1.343  -1.637  0.00  0.00    -0.021 A 
ATOM     23  C   UNL     1      -0.066   0.006  -1.799  0.00  0.00    -0.004 A 
ATOM     24  S   UNL     1      -0.106  -0.235  -3.553  0.00  0.00    -0.075 S 
ATOM     25  C   UNL     1      -0.127  -1.033  -0.722  0.00  0.00    +0.043 C 
ATOM     26  C   UNL     1       0.317  -0.387   0.598  0.00  0.00    +0.005 C 
ATOM     27  C   UNL     1      -0.425   0.946   0.772  0.00  0.00    +0.005 C 
ATOM     28  C   UNL     1       0.096   1.962  -0.246  0.00  0.00    +0.037 C 
BRANCH  21  29
ATOM     29  C   UNL     1       0.183   3.576  -2.844  0.00  0.00    +0.389 C 
ATOM     30  O   UNL     1       1.270   4.108  -2.961  0.00  0.00    -0.240 OA
ATOM     31  O   UNL     1      -0.924   4.332  -2.693  0.00  0.00    -0.240 OA
ENDBRANCH  21  29
ENDBRANCH   6  20
TORSDOF 3
