REMARK  Name = ZINC41031475
REMARK  7 active torsions:
REMARK  status: ('A' for Active; 'I' for Inactive)
REMARK    1  A    between atoms: C_1  and  C_2
REMARK    2  A    between atoms: C_2  and  C_3
REMARK    3  A    between atoms: C_4  and  C_10
REMARK    4  A    between atoms: N_6  and  C_9
REMARK    5  A    between atoms: C_7  and  N_8
REMARK    6  A    between atoms: C_12  and  N_17
REMARK    7  A    between atoms: C_15  and  C_16
REMARK                            x       y       z     vdW  Elec       q    Type
REMARK                         _______ _______ _______ _____ _____    ______ ____
ROOT
ATOM      1  C   UNL     1      -1.486  -0.363   0.033  0.00  0.00    +0.019 A 
ATOM      2  C   UNL     1      -2.147  -0.907   1.151  0.00  0.00    +0.098 A 
ATOM      3  N   UNL     1      -3.267  -1.458   0.736  0.00  0.00    -0.170 NA
ATOM      4  N   UNL     1      -3.356  -1.286  -0.651  0.00  0.00    -0.253 N 
ATOM      5  C   UNL     1      -2.255  -0.605  -1.062  0.00  0.00    +0.118 A 
ATOM      6  C   UNL     1      -4.449  -1.752  -1.507  0.00  0.00    +0.174 C 
ENDROOT
BRANCH   2   7
ATOM      7  C   UNL     1      -1.663  -0.865   2.554  0.00  0.00    +0.007 A 
ATOM      8  C   UNL     1      -0.354  -1.237   2.854  0.00  0.00    +0.043 A 
ATOM      9  C   UNL     1       0.090  -1.196   4.160  0.00  0.00    +0.127 A 
ATOM     10  C   UNL     1      -0.762  -0.787   5.170  0.00  0.00    +0.033 A 
ATOM     11  C   UNL     1      -2.062  -0.417   4.878  0.00  0.00    +0.006 A 
ATOM     12  C   UNL     1      -2.515  -0.449   3.574  0.00  0.00    -0.041 A 
ATOM     13  C   UNL     1      -3.930  -0.039   3.257  0.00  0.00    +0.044 C 
BRANCH   9  14
ATOM     14  N   UNL     1       1.480  -1.591   4.480  0.00  0.00    +0.056 N 
ATOM     15  O   UNL     1       2.225  -1.949   3.597  0.00  0.00    -0.126 OA
ATOM     16  O   UNL     1       1.870  -1.556   5.623  0.00  0.00    -0.126 OA
ENDBRANCH   9  14
ENDBRANCH   2   7
BRANCH   5  17
ATOM     17  N   UNL     1      -1.963  -0.227  -2.369  0.00  0.00    -0.343 N 
ATOM     18  H   UNL     1      -1.145   0.258  -2.563  0.00  0.00    +0.144 HD
ATOM     19  H   UNL     1      -2.578  -0.447  -3.086  0.00  0.00    +0.144 HD
ENDBRANCH   5  17
BRANCH   1  21
ATOM     20  C   UNL     1      -0.405   1.851   0.311  0.00  0.00    +0.009 C 
ATOM     21  C   UNL     1      -0.165   0.363   0.049  0.00  0.00    +0.037 C 
ENDBRANCH   1  21
TORSDOF 4
