REMARK  Name = ZINC62957192
REMARK  8 active torsions:
REMARK  status: ('A' for Active; 'I' for Inactive)
REMARK    1  A    between atoms: C_1  and  C_2
REMARK    2  A    between atoms: C_2  and  C_3
REMARK    3  A    between atoms: C_3  and  C_4
REMARK    4  A    between atoms: C_3  and  C_5
REMARK    5  A    between atoms: C_3  and  C_10
REMARK    6  A    between atoms: C_5  and  N_6
REMARK    7  A    between atoms: N_6  and  C_7
REMARK    8  A    between atoms: C_10  and  N_11
REMARK                            x       y       z     vdW  Elec       q    Type
REMARK                         _______ _______ _______ _____ _____    ______ ____
ROOT
ATOM      1  C   UNL     1      -2.439   0.246  -0.605  0.00  0.00    -0.074 C 
ENDROOT
BRANCH   1   2
ATOM      2  N   UNL     1      -1.692   0.401  -1.860  0.00  0.00    +0.380 N 
ATOM      3  C   UNL     1      -2.505   1.155  -2.821  0.00  0.00    -0.078 C 
ATOM      4  C   UNL     1      -1.767   1.241  -4.160  0.00  0.00    -0.012 C 
ATOM      5  C   UNL     1      -0.423   1.936  -3.951  0.00  0.00    -0.033 C 
ATOM      6  C   UNL     1      -0.651   3.396  -3.520  0.00  0.00    +0.007 C 
ATOM      7  C   UNL     1       0.480   4.181  -4.231  0.00  0.00    +0.001 C 
ATOM      8  C   UNL     1       0.583   3.468  -5.602  0.00  0.00    +0.001 C 
ATOM      9  C   UNL     1       0.361   1.977  -5.271  0.00  0.00    +0.007 C 
ATOM     10  C   UNL     1       0.386   1.201  -2.884  0.00  0.00    -0.012 C 
ATOM     11  C   UNL     1      -0.437   1.116  -1.595  0.00  0.00    -0.078 C 
ATOM     12  H   UNL     1      -1.484  -0.510  -2.240  0.00  0.00    -0.082 HD
ENDBRANCH   1   2
BRANCH   1  13
ATOM     13  C   UNL     1      -1.934  -0.992   0.140  0.00  0.00    -0.062 C 
ATOM     14  C   UNL     1      -0.509  -0.742   0.638  0.00  0.00    +0.007 C 
BRANCH  13  16
ATOM     15  C   UNL     1      -4.274  -1.527   0.835  0.00  0.00    +0.004 C 
ATOM     16  C   UNL     1      -2.849  -1.277   1.333  0.00  0.00    -0.001 C 
ENDBRANCH  13  16
BRANCH  13  17
ATOM     17  C   UNL     1      -1.940  -2.194  -0.806  0.00  0.00    -0.077 C 
BRANCH  17  18
ATOM     18  N   UNL     1      -1.456  -3.382  -0.092  0.00  0.00    +0.381 N 
ATOM     19  H   UNL     1      -0.516  -3.218   0.237  0.00  0.00    -0.086 HD
ATOM     20  H   UNL     1      -2.059  -3.571   0.695  0.00  0.00    -0.086 HD
BRANCH  18  21
ATOM     21  C   UNL     1      -1.462  -4.537  -1.000  0.00  0.00    -0.072 C 
ATOM     22  C   UNL     1      -2.392  -5.702  -0.656  0.00  0.00    -0.017 C 
ATOM     23  C   UNL     1      -0.879  -5.851  -0.477  0.00  0.00    -0.017 C 
ENDBRANCH  18  21
ENDBRANCH  17  18
ENDBRANCH  13  17
ENDBRANCH   1  13
TORSDOF 6
