REMARK  Name = CHEMBL233969
REMARK  9 active torsions:
REMARK  status: ('A' for Active; 'I' for Inactive)
REMARK    1  A    between atoms: C_1  and  C_2
REMARK    2  A    between atoms: C_2  and  C_4
REMARK    3  A    between atoms: C_2  and  N_10
REMARK    4  A    between atoms: C_14  and  C_30
REMARK    5  A    between atoms: N_15  and  C_29
REMARK    6  A    between atoms: N_32  and  C_33
REMARK    7  A    between atoms: C_33  and  C_34
REMARK    8  A    between atoms: C_34  and  C_35
REMARK    9  A    between atoms: C_35  and  N_36
REMARK                            x       y       z     vdW  Elec       q    Type
REMARK                         _______ _______ _______ _____ _____    ______ ____
ROOT
ATOM      1  N   UNL     1      -1.562  -0.661   0.434  0.00  0.00    -0.322 N 
ATOM      2  C   UNL     1      -2.107  -0.753  -0.831  0.00  0.00    +0.134 A 
ATOM      3  C   UNL     1      -3.436  -1.188  -1.014  0.00  0.00    +0.059 A 
ATOM      4  C   UNL     1      -4.467  -1.600  -0.145  0.00  0.00    +0.046 A 
ATOM      5  C   UNL     1      -5.550  -1.910  -0.909  0.00  0.00    +0.106 A 
ATOM      6  N   UNL     1      -5.234  -1.706  -2.242  0.00  0.00    -0.324 N 
ATOM      7  C   UNL     1      -3.944  -1.264  -2.327  0.00  0.00    +0.148 A 
ATOM      8  N   UNL     1      -3.151  -0.921  -3.340  0.00  0.00    -0.194 NA
ATOM      9  C   UNL     1      -1.911  -0.519  -3.121  0.00  0.00    +0.240 A 
ATOM     10  N   UNL     1      -1.395  -0.428  -1.903  0.00  0.00    -0.196 NA
ATOM     11  N   UNL     1      -1.119  -0.171  -4.211  0.00  0.00    -0.267 N 
ATOM     12  C   UNL     1      -1.492  -0.195  -5.523  0.00  0.00    +0.182 A 
ATOM     13  N   UNL     1      -0.502   0.193  -6.276  0.00  0.00    -0.345 N 
ATOM     14  C   UNL     1       0.569   0.491  -5.504  0.00  0.00    +0.067 A 
ATOM     15  C   UNL     1       0.191   0.268  -4.166  0.00  0.00    +0.092 A 
ATOM     16  C   UNL     1       1.111   0.504  -3.159  0.00  0.00    +0.139 A 
ATOM     17  N   UNL     1       2.323   0.935  -3.455  0.00  0.00    -0.261 NA
ATOM     18  C   UNL     1       2.709   1.157  -4.700  0.00  0.00    +0.113 A 
ATOM     19  C   UNL     1       1.869   0.944  -5.756  0.00  0.00    +0.047 A 
ATOM     20  C   UNL     1      -6.135  -1.928  -3.376  0.00  0.00    +0.151 C 
ATOM     21  H   UNL     1      -2.093  -0.901   1.209  0.00  0.00    +0.148 HD
ATOM     22  H   UNL     1      -0.529   0.258  -7.243  0.00  0.00    +0.167 HD
ENDROOT
BRANCH   5  23
ATOM     23  C   UNL     1      -6.843  -2.384  -0.402  0.00  0.00    +0.261 C 
ATOM     24  O   UNL     1      -7.779  -2.532  -1.166  0.00  0.00    -0.269 OA
ATOM     25  N   UNL     1      -6.995  -2.655   0.909  0.00  0.00    -0.310 N 
ATOM     26  H   UNL     1      -6.273  -2.467   1.530  0.00  0.00    +0.149 HD
BRANCH  25  27
ATOM     27  C   UNL     1      -8.249  -3.234   1.397  0.00  0.00    +0.103 C 
BRANCH  27  28
ATOM     28  C   UNL     1      -8.160  -3.442   2.910  0.00  0.00    +0.000 C 
BRANCH  28  29
ATOM     29  C   UNL     1      -9.470  -4.046   3.420  0.00  0.00    -0.077 C 
BRANCH  29  30
ATOM     30  N   UNL     1      -9.384  -4.246   4.873  0.00  0.00    +0.383 N 
ATOM     31  C   UNL     1      -8.353  -5.249   5.170  0.00  0.00    -0.050 C 
ATOM     32  C   UNL     1      -8.265  -5.455   6.684  0.00  0.00    +0.141 C 
ATOM     33  O   UNL     1      -9.546  -5.855   7.180  0.00  0.00    -0.383 OA
ATOM     34  C   UNL     1     -10.590  -4.920   6.894  0.00  0.00    +0.141 C 
ATOM     35  C   UNL     1     -10.681  -4.713   5.381  0.00  0.00    -0.050 C 
ATOM     36  H   UNL     1      -9.143  -3.373   5.319  0.00  0.00    -0.082 HD
ENDBRANCH  29  30
ENDBRANCH  28  29
ENDBRANCH  27  28
ENDBRANCH  25  27
ENDBRANCH   5  23
BRANCH   1  38
ATOM     37  C   UNL     1      -0.155   1.329   0.641  0.00  0.00    +0.033 C 
ATOM     38  C   UNL     1      -0.182  -0.201   0.605  0.00  0.00    +0.099 C 
BRANCH  38  39
ATOM     39  C   UNL     1       0.372  -0.744   1.897  0.00  0.00    -0.028 A 
ATOM     40  C   UNL     1      -0.427  -0.796   3.023  0.00  0.00    +0.005 A 
ATOM     41  C   UNL     1       0.082  -1.295   4.208  0.00  0.00    +0.000 A 
ATOM     42  C   UNL     1       1.389  -1.741   4.266  0.00  0.00    +0.000 A 
ATOM     43  C   UNL     1       2.188  -1.689   3.139  0.00  0.00    +0.000 A 
ATOM     44  C   UNL     1       1.678  -1.194   1.953  0.00  0.00    +0.005 A 
ENDBRANCH  38  39
ENDBRANCH   1  38
TORSDOF 7
