REMARK  Name = CHEMBL520947
REMARK  3 active torsions:
REMARK  status: ('A' for Active; 'I' for Inactive)
REMARK    1  A    between atoms: C_3  and  S_18
REMARK    2  A    between atoms: C_6  and  C_7
REMARK    3  A    between atoms: S_18  and  N_21
REMARK                            x       y       z     vdW  Elec       q    Type
REMARK                         _______ _______ _______ _____ _____    ______ ____
ROOT
ATOM      1  C   UNL     1      -0.017   1.389   0.010  0.00  0.00    +0.010 A 
ATOM      2  C   UNL     1       1.170   2.093   0.002  0.00  0.00    +0.029 A 
ATOM      3  C   UNL     1       2.377   1.418  -0.013  0.00  0.00    +0.106 A 
ATOM      4  C   UNL     1       2.402   0.035  -0.022  0.00  0.00    +0.029 A 
ATOM      5  C   UNL     1       1.221  -0.679  -0.014  0.00  0.00    +0.010 A 
ATOM      6  C   UNL     1       0.002  -0.004   0.002  0.00  0.00    -0.018 A 
ENDROOT
BRANCH   6   7
ATOM      7  C   UNL     1      -1.271  -0.766   0.011  0.00  0.00    -0.017 A 
ATOM      8  C   UNL     1      -2.493  -0.083   0.021  0.00  0.00    +0.010 A 
ATOM      9  C   UNL     1      -3.673  -0.767   0.028  0.00  0.00    +0.028 A 
ATOM     10  C   UNL     1      -3.674  -2.161   0.026  0.00  0.00    +0.068 A 
ATOM     11  C   UNL     1      -2.451  -2.860   0.016  0.00  0.00    +0.041 A 
ATOM     12  C   UNL     1      -1.247  -2.152   0.003  0.00  0.00    +0.022 A 
ATOM     13  C   UNL     1      -2.791  -4.284   0.017  0.00  0.00    +0.146 A 
ATOM     14  N   UNL     1      -4.094  -4.379   0.026  0.00  0.00    -0.158 NA
ATOM     15  N   UNL     1      -4.668  -3.104   0.032  0.00  0.00    -0.275 N 
ATOM     16  H   UNL     1      -5.620  -2.917   0.040  0.00  0.00    +0.189 HD
ATOM     17  N   UNL     1      -1.886  -5.348   0.008  0.00  0.00    -0.341 N 
ATOM     18  H   UNL     1      -0.932  -5.174   0.001  0.00  0.00    +0.144 HD
ATOM     19  H   UNL     1      -2.212  -6.262   0.009  0.00  0.00    +0.144 HD
ENDBRANCH   6   7
BRANCH   3  20
ATOM     20  S   UNL     1       3.889   2.322  -0.024  0.00  0.00    +0.061 S 
ATOM     21  O   UNL     1       4.872   1.466  -0.589  0.00  0.00    -0.153 OA
ATOM     22  O   UNL     1       3.593   3.603  -0.565  0.00  0.00    -0.153 OA
BRANCH  20  23
ATOM     23  N   UNL     1       4.325   2.566   1.555  0.00  0.00    -0.172 NA
ATOM     24  C   UNL     1       3.872   3.756   2.292  0.00  0.00    +0.137 C 
ATOM     25  C   UNL     1       3.263   3.299   3.622  0.00  0.00    +0.177 C 
ATOM     26  O   UNL     1       4.193   2.450   4.299  0.00  0.00    -0.377 OA
ATOM     27  C   UNL     1       4.504   1.245   3.595  0.00  0.00    +0.177 C 
ATOM     28  C   UNL     1       5.172   1.594   2.265  0.00  0.00    +0.137 C 
ENDBRANCH  20  23
ENDBRANCH   3  20
TORSDOF 3
