REMARK  Name = CHEMBL233151
REMARK  6 active torsions:
REMARK  status: ('A' for Active; 'I' for Inactive)
REMARK    1  A    between atoms: C_1  and  C_2
REMARK    2  A    between atoms: C_2  and  C_4
REMARK    3  A    between atoms: C_2  and  N_10
REMARK    4  A    between atoms: C_14  and  C_30
REMARK    5  A    between atoms: N_15  and  C_29
REMARK    6  A    between atoms: N_35  and  C_38
REMARK                            x       y       z     vdW  Elec       q    Type
REMARK                         _______ _______ _______ _____ _____    ______ ____
ROOT
ATOM      1  N   UNL     1      -1.067  -2.223  -0.580  0.00  0.00    -0.322 N 
ATOM      2  C   UNL     1      -1.899  -1.729  -1.564  0.00  0.00    +0.134 A 
ATOM      3  C   UNL     1      -3.295  -1.685  -1.373  0.00  0.00    +0.059 A 
ATOM      4  C   UNL     1      -4.158  -2.056  -0.322  0.00  0.00    +0.046 A 
ATOM      5  C   UNL     1      -5.431  -1.774  -0.716  0.00  0.00    +0.107 A 
ATOM      6  N   UNL     1      -5.398  -1.233  -1.991  0.00  0.00    -0.324 N 
ATOM      7  C   UNL     1      -4.100  -1.170  -2.411  0.00  0.00    +0.148 A 
ATOM      8  N   UNL     1      -3.510  -0.746  -3.527  0.00  0.00    -0.194 NA
ATOM      9  C   UNL     1      -2.197  -0.806  -3.662  0.00  0.00    +0.240 A 
ATOM     10  N   UNL     1      -1.403  -1.278  -2.711  0.00  0.00    -0.196 NA
ATOM     11  N   UNL     1      -1.626  -0.352  -4.846  0.00  0.00    -0.267 N 
ATOM     12  C   UNL     1      -2.289   0.171  -5.917  0.00  0.00    +0.182 A 
ATOM     13  N   UNL     1      -1.444   0.494  -6.853  0.00  0.00    -0.345 N 
ATOM     14  C   UNL     1      -0.184   0.202  -6.452  0.00  0.00    +0.067 A 
ATOM     15  C   UNL     1      -0.278  -0.341  -5.155  0.00  0.00    +0.092 A 
ATOM     16  C   UNL     1       0.881  -0.725  -4.502  0.00  0.00    +0.139 A 
ATOM     17  N   UNL     1       2.053  -0.579  -5.089  0.00  0.00    -0.261 NA
ATOM     18  C   UNL     1       2.176  -0.071  -6.303  0.00  0.00    +0.113 A 
ATOM     19  C   UNL     1       1.086   0.328  -7.024  0.00  0.00    +0.047 A 
ATOM     20  C   UNL     1      -6.566  -0.799  -2.763  0.00  0.00    +0.151 C 
ATOM     21  H   UNL     1      -1.441  -2.549   0.253  0.00  0.00    +0.148 HD
ATOM     22  H   UNL     1      -1.681   0.884  -7.709  0.00  0.00    +0.167 HD
ENDROOT
BRANCH   5  23
ATOM     23  C   UNL     1      -6.641  -2.006   0.082  0.00  0.00    +0.263 C 
ATOM     24  O   UNL     1      -7.713  -2.159  -0.472  0.00  0.00    -0.268 OA
ATOM     25  N   UNL     1      -6.563  -2.049   1.426  0.00  0.00    -0.300 N 
ATOM     26  C   UNL     1      -5.314  -1.706   2.124  0.00  0.00    +0.089 C 
ATOM     27  C   UNL     1      -5.635  -0.686   3.221  0.00  0.00    -0.060 C 
ATOM     28  N   UNL     1      -6.689  -1.220   4.093  0.00  0.00    +0.380 N 
ATOM     29  C   UNL     1      -7.933  -1.385   3.330  0.00  0.00    -0.060 C 
ATOM     30  C   UNL     1      -7.728  -2.434   2.239  0.00  0.00    +0.089 C 
ATOM     31  C   UNL     1      -6.918  -0.291   5.207  0.00  0.00    -0.096 C 
ATOM     32  H   UNL     1      -6.399  -2.115   4.458  0.00  0.00    -0.082 HD
ENDBRANCH   5  23
BRANCH   1  34
ATOM     33  C   UNL     1       0.984  -0.899  -0.417  0.00  0.00    +0.033 C 
ATOM     34  C   UNL     1       0.382  -2.255  -0.794  0.00  0.00    +0.099 C 
BRANCH  34  35
ATOM     35  C   UNL     1       0.993  -3.332   0.064  0.00  0.00    -0.028 A 
ATOM     36  C   UNL     1       0.535  -3.532   1.353  0.00  0.00    +0.005 A 
ATOM     37  C   UNL     1       1.095  -4.520   2.141  0.00  0.00    +0.000 A 
ATOM     38  C   UNL     1       2.114  -5.308   1.640  0.00  0.00    +0.000 A 
ATOM     39  C   UNL     1       2.572  -5.109   0.351  0.00  0.00    +0.000 A 
ATOM     40  C   UNL     1       2.009  -4.124  -0.438  0.00  0.00    +0.005 A 
ENDBRANCH  34  35
ENDBRANCH   1  34
TORSDOF 3
