REMARK  Name = CHEMBL1088856
REMARK  10 active torsions:
REMARK  status: ('A' for Active; 'I' for Inactive)
REMARK    1  A    between atoms: C_1  and  C_2
REMARK    2  A    between atoms: C_4  and  C_16
REMARK    3  A    between atoms: C_7  and  C_8
REMARK    4  A    between atoms: C_23  and  C_26
REMARK    5  A    between atoms: C_28  and  O_36
REMARK    6  A    between atoms: C_29  and  O_34
REMARK    7  A    between atoms: C_30  and  O_32
REMARK    8  A    between atoms: O_32  and  C_33
REMARK    9  A    between atoms: O_34  and  C_35
REMARK   10  A    between atoms: O_36  and  C_37
REMARK                            x       y       z     vdW  Elec       q    Type
REMARK                         _______ _______ _______ _____ _____    ______ ____
ROOT
ATOM      1  C   UNL     1      -0.124  -2.890  -2.440  0.00  0.00    +0.010 A 
ATOM      2  C   UNL     1      -1.139  -2.618  -3.342  0.00  0.00    +0.011 A 
ATOM      3  C   UNL     1      -1.231  -3.321  -4.537  0.00  0.00    +0.003 A 
ATOM      4  C   UNL     1      -0.330  -4.293  -4.854  0.00  0.00    +0.030 A 
ATOM      5  C   UNL     1       0.716  -4.602  -3.969  0.00  0.00    +0.090 A 
ATOM      6  C   UNL     1       0.830  -3.891  -2.748  0.00  0.00    +0.098 A 
ATOM      7  N   UNL     1       1.824  -4.175  -1.905  0.00  0.00    -0.243 NA
ATOM      8  C   UNL     1       2.700  -5.116  -2.219  0.00  0.00    +0.090 A 
ATOM      9  C   UNL     1       2.588  -5.816  -3.435  0.00  0.00    +0.139 A 
ATOM     10  N   UNL     1       1.609  -5.555  -4.267  0.00  0.00    -0.251 NA
ENDROOT
BRANCH   1  14
ATOM     11  C   UNL     1      -0.069   1.464  -0.007  0.00  0.00    +0.044 C 
ATOM     12  C   UNL     1      -0.005  -0.042   0.004  0.00  0.00    -0.038 A 
ATOM     13  C   UNL     1      -0.090  -0.742  -1.178  0.00  0.00    +0.012 A 
ATOM     14  C   UNL     1      -0.032  -2.137  -1.169  0.00  0.00    -0.016 A 
ATOM     15  C   UNL     1       0.112  -2.822   0.039  0.00  0.00    +0.009 A 
ATOM     16  C   UNL     1       0.197  -2.123   1.221  0.00  0.00    +0.014 A 
ATOM     17  C   UNL     1       0.145  -0.727   1.212  0.00  0.00    +0.040 A 
BRANCH  17  18
ATOM     18  C   UNL     1       0.242   0.025   2.480  0.00  0.00    +0.247 C 
ATOM     19  O   UNL     1       1.101   0.874   2.619  0.00  0.00    -0.270 OA
ATOM     20  N   UNL     1      -0.621  -0.231   3.483  0.00  0.00    -0.293 N 
ATOM     21  C   UNL     1      -1.611  -1.314   3.372  0.00  0.00    +0.136 C 
ATOM     22  C   UNL     1      -1.517  -2.186   4.630  0.00  0.00    +0.179 C 
ATOM     23  O   UNL     1      -1.614  -1.353   5.788  0.00  0.00    -0.377 OA
ATOM     24  C   UNL     1      -0.556  -0.399   5.913  0.00  0.00    +0.179 C 
ATOM     25  C   UNL     1      -0.598   0.560   4.723  0.00  0.00    +0.136 C 
ENDBRANCH  17  18
ENDBRANCH   1  14
BRANCH   8  26
ATOM     26  C   UNL     1       3.805  -5.433  -1.285  0.00  0.00    +0.009 A 
ATOM     27  C   UNL     1       3.858  -4.822  -0.033  0.00  0.00    +0.059 A 
ATOM     28  C   UNL     1       4.891  -5.120   0.839  0.00  0.00    +0.166 A 
ATOM     29  C   UNL     1       5.876  -6.029   0.466  0.00  0.00    +0.204 A 
ATOM     30  C   UNL     1       5.824  -6.640  -0.783  0.00  0.00    +0.166 A 
ATOM     31  C   UNL     1       4.790  -6.348  -1.655  0.00  0.00    +0.059 A 
BRANCH  30  32
ATOM     32  O   UNL     1       6.788  -7.529  -1.145  0.00  0.00    -0.491 OA
ATOM     33  C   UNL     1       6.673  -8.118  -2.442  0.00  0.00    +0.277 C 
ENDBRANCH  30  32
BRANCH  29  34
ATOM     34  O   UNL     1       6.891  -6.321   1.323  0.00  0.00    -0.488 OA
ATOM     35  C   UNL     1       6.685  -7.410   2.226  0.00  0.00    +0.277 C 
ENDBRANCH  29  34
BRANCH  28  36
ATOM     36  O   UNL     1       4.943  -4.524   2.060  0.00  0.00    -0.491 OA
ATOM     37  C   UNL     1       3.900  -3.600   2.376  0.00  0.00    +0.277 C 
ENDBRANCH  28  36
ENDBRANCH   8  26
TORSDOF 6
