REMARK  Name = CHEMBL1088029
REMARK  6 active torsions:
REMARK  status: ('A' for Active; 'I' for Inactive)
REMARK    1  A    between atoms: C_1  and  C_2
REMARK    2  A    between atoms: C_10  and  O_25
REMARK    3  A    between atoms: N_14  and  C_15
REMARK    4  A    between atoms: C_15  and  C_17
REMARK    5  A    between atoms: C_15  and  C_18
REMARK    6  A    between atoms: O_25  and  C_26
REMARK                            x       y       z     vdW  Elec       q    Type
REMARK                         _______ _______ _______ _____ _____    ______ ____
ROOT
ATOM      1  C   UNL     1       6.487  -3.823  -0.042  0.00  0.00    +0.053 C 
ATOM      2  C   UNL     1       5.006  -4.100  -0.037  0.00  0.00    +0.008 A 
ATOM      3  C   UNL     1       4.349  -5.285  -0.038  0.00  0.00    +0.124 A 
ATOM      4  N   UNL     1       3.029  -5.240  -0.033  0.00  0.00    -0.233 NA
ATOM      5  C   UNL     1       2.389  -4.091  -0.028  0.00  0.00    +0.164 A 
ATOM      6  S   UNL     1       3.634  -2.958  -0.022  0.00  0.00    -0.057 S 
ATOM      7  N   UNL     1       1.019  -3.866  -0.023  0.00  0.00    -0.278 N 
ATOM      8  C   UNL     1       0.141  -4.935  -0.130  0.00  0.00    +0.133 A 
ATOM      9  C   UNL     1      -1.231  -4.715  -0.234  0.00  0.00    +0.111 A 
ATOM     10  C   UNL     1      -2.072  -5.815  -0.340  0.00  0.00    +0.221 A 
ATOM     11  N   UNL     1      -1.545  -7.036  -0.338  0.00  0.00    -0.179 NA
ATOM     12  C   UNL     1      -0.236  -7.210  -0.236  0.00  0.00    +0.221 A 
ATOM     13  N   UNL     1       0.597  -6.185  -0.139  0.00  0.00    -0.199 NA
ATOM     14  N   UNL     1       0.275  -8.496  -0.237  0.00  0.00    -0.304 N 
ATOM     15  H   UNL     1       0.676  -2.963   0.055  0.00  0.00    +0.155 HD
ATOM     16  H   UNL     1       1.232  -8.638  -0.164  0.00  0.00    +0.150 HD
ENDROOT
BRANCH  14  17
ATOM     17  C   UNL     1      -0.629  -9.643  -0.349  0.00  0.00    +0.138 C 
ATOM     18  C   UNL     1      -0.926  -9.917  -1.825  0.00  0.00    +0.036 C 
BRANCH  17  19
ATOM     19  C   UNL     1       0.019 -10.856   0.266  0.00  0.00    +0.149 A 
ATOM     20  N   UNL     1       1.283 -11.114  -0.005  0.00  0.00    -0.236 NA
ATOM     21  C   UNL     1       1.887 -12.169   0.517  0.00  0.00    +0.152 A 
ATOM     22  C   UNL     1       1.171 -13.009   1.359  0.00  0.00    +0.159 A 
ATOM     23  C   UNL     1      -0.158 -12.704   1.619  0.00  0.00    +0.152 A 
ATOM     24  N   UNL     1      -0.691 -11.627   1.064  0.00  0.00    -0.236 NA
ATOM     25  F   UNL     1       1.753 -14.096   1.911  0.00  0.00    -0.202 F 
ENDBRANCH  17  19
ENDBRANCH  14  17
BRANCH  10  26
ATOM     26  O   UNL     1      -3.413  -5.646  -0.443  0.00  0.00    -0.480 OA
ATOM     27  C   UNL     1      -4.209  -6.828  -0.548  0.00  0.00    +0.279 C 
ENDBRANCH  10  26
TORSDOF 3
