REMARK  Name = CHEMBL557844
REMARK  6 active torsions:
REMARK  status: ('A' for Active; 'I' for Inactive)
REMARK    1  A    between atoms: C_1  and  C_2
REMARK    2  A    between atoms: C_2  and  C_4
REMARK    3  A    between atoms: C_2  and  N_7
REMARK    4  A    between atoms: C_4  and  O_5
REMARK    5  A    between atoms: O_5  and  C_6
REMARK    6  A    between atoms: C_10  and  C_23
REMARK                            x       y       z     vdW  Elec       q    Type
REMARK                         _______ _______ _______ _____ _____    ______ ____
ROOT
ATOM      1  N   UNL     1      -1.372  -0.511   0.012  0.00  0.00    -0.324 N 
ATOM      2  C   UNL     1      -2.070  -0.646  -1.177  0.00  0.00    +0.125 A 
ATOM      3  C   UNL     1      -1.471  -0.308  -2.389  0.00  0.00    +0.072 A 
ATOM      4  C   UNL     1      -2.213  -0.462  -3.559  0.00  0.00    +0.081 A 
ATOM      5  N   UNL     1      -3.461  -0.924  -3.479  0.00  0.00    -0.212 NA
ATOM      6  C   UNL     1      -3.994  -1.234  -2.309  0.00  0.00    +0.239 A 
ATOM      7  N   UNL     1      -3.318  -1.106  -1.178  0.00  0.00    -0.197 NA
ATOM      8  N   UNL     1      -5.301  -1.714  -2.266  0.00  0.00    -0.267 N 
ATOM      9  C   UNL     1      -5.996  -2.071  -1.148  0.00  0.00    +0.182 A 
ATOM     10  N   UNL     1      -7.190  -2.475  -1.474  0.00  0.00    -0.345 N 
ATOM     11  C   UNL     1      -7.346  -2.406  -2.817  0.00  0.00    +0.067 A 
ATOM     12  C   UNL     1      -6.138  -1.911  -3.348  0.00  0.00    +0.092 A 
ATOM     13  C   UNL     1      -6.029  -1.736  -4.717  0.00  0.00    +0.139 A 
ATOM     14  N   UNL     1      -7.045  -2.027  -5.507  0.00  0.00    -0.261 NA
ATOM     15  C   UNL     1      -8.192  -2.490  -5.041  0.00  0.00    +0.113 A 
ATOM     16  C   UNL     1      -8.386  -2.701  -3.704  0.00  0.00    +0.047 A 
ATOM     17  H   UNL     1      -1.794  -0.752   0.852  0.00  0.00    +0.148 HD
ATOM     18  H   UNL     1      -7.866  -2.779  -0.849  0.00  0.00    +0.167 HD
ENDROOT
BRANCH   4  19
ATOM     19  C   UNL     1      -1.623  -0.117  -4.874  0.00  0.00    +0.038 A 
ATOM     20  C   UNL     1      -2.299  -0.118  -6.177  0.00  0.00    +0.051 A 
ATOM     21  C   UNL     1      -1.375   0.261  -7.075  0.00  0.00    +0.195 A 
ATOM     22  O   UNL     1      -0.215   0.488  -6.439  0.00  0.00    -0.470 OA
ATOM     23  C   UNL     1      -0.344   0.273  -5.123  0.00  0.00    +0.204 A 
ENDBRANCH   4  19
BRANCH   1  25
ATOM     24  C   UNL     1      -0.019   1.526   0.010  0.00  0.00    +0.030 C 
ATOM     25  C   UNL     1       0.002  -0.004   0.002  0.00  0.00    +0.094 C 
BRANCH  25  26
ATOM     26  C   UNL     1       0.742  -0.511   1.242  0.00  0.00    +0.181 C 
BRANCH  26  27
ATOM     27  O   UNL     1       0.143   0.044   2.414  0.00  0.00    -0.381 OA
ATOM     28  C   UNL     1       0.763  -0.368   3.634  0.00  0.00    +0.194 C 
ENDBRANCH  26  27
ENDBRANCH  25  26
ENDBRANCH   1  25
TORSDOF 4
