REMARK  Name = CHEMBL1081138
REMARK  3 active torsions:
REMARK  status: ('A' for Active; 'I' for Inactive)
REMARK    1  A    between atoms: C_3  and  N_24
REMARK    2  A    between atoms: C_6  and  N_7
REMARK    3  A    between atoms: C_12  and  C_14
REMARK                            x       y       z     vdW  Elec       q    Type
REMARK                         _______ _______ _______ _____ _____    ______ ____
ROOT
ATOM      1  N   UNL     1      -1.202  -0.721   0.010  0.00  0.00    -0.284 N 
ATOM      2  C   UNL     1      -1.022  -2.091   0.110  0.00  0.00    +0.220 A 
ATOM      3  N   UNL     1       0.203  -2.570   0.280  0.00  0.00    -0.223 NA
ATOM      4  C   UNL     1       0.416  -3.873   0.380  0.00  0.00    +0.116 A 
ATOM      5  C   UNL     1      -0.657  -4.742   0.306  0.00  0.00    +0.048 A 
ATOM      6  C   UNL     1      -1.936  -4.207   0.127  0.00  0.00    +0.076 A 
ATOM      7  N   UNL     1      -2.077  -2.886   0.040  0.00  0.00    -0.214 NA
ATOM      8  H   UNL     1      -2.097  -0.351  -0.027  0.00  0.00    +0.155 HD
ENDROOT
BRANCH   6   9
ATOM      9  C   UNL     1      -3.119  -5.097   0.041  0.00  0.00    +0.001 A 
ATOM     10  C   UNL     1      -2.959  -6.484   0.146  0.00  0.00    +0.012 A 
ATOM     11  C   UNL     1      -4.037  -7.317   0.069  0.00  0.00    +0.027 A 
ATOM     12  C   UNL     1      -5.315  -6.794  -0.115  0.00  0.00    +0.046 A 
ATOM     13  C   UNL     1      -5.488  -5.401  -0.221  0.00  0.00    +0.000 A 
ATOM     14  C   UNL     1      -4.384  -4.554  -0.137  0.00  0.00    +0.020 A 
ATOM     15  C   UNL     1      -6.925  -5.185  -0.406  0.00  0.00    +0.027 A 
ATOM     16  C   UNL     1      -7.507  -6.394  -0.400  0.00  0.00    +0.083 A 
ATOM     17  N   UNL     1      -6.561  -7.367  -0.228  0.00  0.00    -0.361 N 
ATOM     18  H   UNL     1      -6.741  -8.319  -0.191  0.00  0.00    +0.165 HD
ENDBRANCH   6   9
BRANCH   1  24
ATOM     19  C   UNL     1       1.072  -0.280  -0.679  0.00  0.00    +0.025 A 
ATOM     20  C   UNL     1       2.167   0.559  -0.726  0.00  0.00    +0.025 A 
ATOM     21  C   UNL     1       2.108   1.813  -0.132  0.00  0.00    +0.030 A 
ATOM     22  C   UNL     1       0.947   2.223   0.509  0.00  0.00    +0.025 A 
ATOM     23  C   UNL     1      -0.149   1.384   0.556  0.00  0.00    +0.025 A 
ATOM     24  C   UNL     1      -0.090   0.130  -0.037  0.00  0.00    +0.034 A 
BRANCH  21  25
ATOM     25  N   UNL     1       3.219   2.663  -0.179  0.00  0.00    -0.326 N 
ATOM     26  C   UNL     1       3.144   4.037   0.342  0.00  0.00    +0.133 C 
ATOM     27  C   UNL     1       4.326   4.259   1.292  0.00  0.00    +0.178 C 
ATOM     28  O   UNL     1       5.539   3.898   0.627  0.00  0.00    -0.377 OA
ATOM     29  C   UNL     1       5.613   2.520   0.253  0.00  0.00    +0.178 C 
ATOM     30  C   UNL     1       4.498   2.207  -0.746  0.00  0.00    +0.133 C 
ENDBRANCH  21  25
ENDBRANCH   1  24
TORSDOF 3
