REMARK  Name = CHEMBL21156
REMARK  4 active torsions:
REMARK  status: ('A' for Active; 'I' for Inactive)
REMARK    1  A    between atoms: C_1  and  C_2
REMARK    2  A    between atoms: C_2  and  C_3
REMARK    3  A    between atoms: C_2  and  C_4
REMARK    4  A    between atoms: C_2  and  C_5
REMARK                            x       y       z     vdW  Elec       q    Type
REMARK                         _______ _______ _______ _____ _____    ______ ____
ROOT
ATOM      1  C   UNL     1       0.707  -0.490  -1.238  0.00  0.00    +0.114 A 
ATOM      2  N   UNL     1       2.044  -0.465  -1.431  0.00  0.00    -0.341 N 
ATOM      3  H   UNL     1       2.709  -0.136  -0.806  0.00  0.00    +0.167 HD
ATOM      4  C   UNL     1       2.288  -0.994  -2.682  0.00  0.00    +0.075 A 
ATOM      5  C   UNL     1       3.471  -1.218  -3.417  0.00  0.00    +0.015 A 
ATOM      6  C   UNL     1       4.738  -0.877  -2.877  0.00  0.00    +0.028 A 
ATOM      7  C   UNL     1       5.853  -1.100  -3.597  0.00  0.00    +0.086 A 
ATOM      8  N   UNL     1       5.800  -1.650  -4.844  0.00  0.00    -0.329 N 
ATOM      9  H   UNL     1       6.624  -1.797  -5.333  0.00  0.00    +0.168 HD
ATOM     10  C   UNL     1       4.627  -1.996  -5.410  0.00  0.00    +0.257 A 
ATOM     11  O   UNL     1       4.606  -2.486  -6.526  0.00  0.00    -0.267 OA
ATOM     12  C   UNL     1       3.419  -1.786  -4.702  0.00  0.00    +0.056 A 
ATOM     13  C   UNL     1       2.128  -2.150  -5.286  0.00  0.00    -0.000 A 
ATOM     14  C   UNL     1       2.042  -2.716  -6.562  0.00  0.00    +0.047 A 
ATOM     15  C   UNL     1       0.808  -3.046  -7.078  0.00  0.00    +0.124 A 
ATOM     16  C   UNL     1      -0.351  -2.819  -6.342  0.00  0.00    +0.039 A 
ATOM     17  C   UNL     1      -0.290  -2.267  -5.095  0.00  0.00    +0.013 A 
ATOM     18  C   UNL     1       0.948  -1.923  -4.545  0.00  0.00    +0.010 A 
ATOM     19  C   UNL     1       1.043  -1.327  -3.208  0.00  0.00    +0.097 A 
ATOM     20  N   UNL     1       0.119  -1.003  -2.282  0.00  0.00    -0.231 NA
ATOM     21  F   UNL     1       0.723  -3.594  -8.310  0.00  0.00    -0.205 F 
ENDROOT
BRANCH   1  23
ATOM     22  C   UNL     1      -0.019   1.526   0.010  0.00  0.00    +0.018 C 
ATOM     23  C   UNL     1       0.002  -0.004   0.002  0.00  0.00    +0.020 C 
ATOM     24  C   UNL     1       0.742  -0.511   1.242  0.00  0.00    +0.018 C 
ATOM     25  C   UNL     1      -1.433  -0.534   0.013  0.00  0.00    +0.018 C 
ENDBRANCH   1  23
TORSDOF 1
