REMARK  Name = CHEMBL376885
REMARK  3 active torsions:
REMARK  status: ('A' for Active; 'I' for Inactive)
REMARK    1  A    between atoms: C_1  and  N_2
REMARK    2  A    between atoms: C_10  and  N_23
REMARK    3  A    between atoms: N_23  and  C_24
REMARK                            x       y       z     vdW  Elec       q    Type
REMARK                         _______ _______ _______ _____ _____    ______ ____
ROOT
ATOM      1  C   UNL     1      -1.463   2.070   0.890  0.00  0.00    -0.096 C 
ATOM      2  N   UNL     1      -1.081   0.659   0.752  0.00  0.00    +0.380 N 
ATOM      3  C   UNL     1      -2.287  -0.157   0.565  0.00  0.00    -0.060 C 
ATOM      4  C   UNL     1      -1.883  -1.612   0.306  0.00  0.00    +0.088 C 
ATOM      5  N   UNL     1      -1.014  -2.058   1.406  0.00  0.00    -0.319 N 
ATOM      6  C   UNL     1       0.133  -1.210   1.770  0.00  0.00    +0.088 C 
ATOM      7  C   UNL     1      -0.366   0.226   1.960  0.00  0.00    -0.060 C 
ATOM      8  C   UNL     1      -1.266  -3.242   2.080  0.00  0.00    +0.128 A 
ATOM      9  C   UNL     1      -2.286  -4.090   1.657  0.00  0.00    +0.087 A 
ATOM     10  C   UNL     1      -2.502  -5.269   2.365  0.00  0.00    +0.130 A 
ATOM     11  N   UNL     1      -1.732  -5.544   3.416  0.00  0.00    -0.197 NA
ATOM     12  C   UNL     1      -0.772  -4.714   3.788  0.00  0.00    +0.240 A 
ATOM     13  N   UNL     1      -0.534  -3.587   3.137  0.00  0.00    -0.197 NA
ATOM     14  N   UNL     1       0.013  -5.037   4.892  0.00  0.00    -0.267 N 
ATOM     15  C   UNL     1       1.110  -4.357   5.332  0.00  0.00    +0.182 A 
ATOM     16  N   UNL     1       1.601  -4.936   6.390  0.00  0.00    -0.345 N 
ATOM     17  C   UNL     1       0.857  -6.023   6.702  0.00  0.00    +0.067 A 
ATOM     18  C   UNL     1      -0.179  -6.104   5.751  0.00  0.00    +0.092 A 
ATOM     19  C   UNL     1      -1.099  -7.134   5.844  0.00  0.00    +0.139 A 
ATOM     20  N   UNL     1      -1.004  -8.023   6.814  0.00  0.00    -0.261 NA
ATOM     21  C   UNL     1      -0.047  -7.974   7.725  0.00  0.00    +0.113 A 
ATOM     22  C   UNL     1       0.909  -6.997   7.705  0.00  0.00    +0.047 A 
ATOM     23  H   UNL     1       2.381  -4.635   6.880  0.00  0.00    +0.167 HD
ATOM     24  H   UNL     1      -0.478   0.552  -0.050  0.00  0.00    -0.082 HD
ENDROOT
BRANCH  10  25
ATOM     25  N   UNL     1      -3.507  -6.145   1.982  0.00  0.00    -0.298 N 
ATOM     26  H   UNL     1      -4.100  -5.913   1.249  0.00  0.00    +0.154 HD
BRANCH  25  27
ATOM     27  C   UNL     1      -3.667  -7.363   2.651  0.00  0.00    +0.051 A 
ATOM     28  C   UNL     1      -2.560  -8.021   3.171  0.00  0.00    +0.025 A 
ATOM     29  C   UNL     1      -2.721  -9.223   3.831  0.00  0.00    +0.002 A 
ATOM     30  C   UNL     1      -3.982  -9.773   3.975  0.00  0.00    +0.002 A 
ATOM     31  C   UNL     1      -5.086  -9.120   3.458  0.00  0.00    +0.022 A 
ATOM     32  C   UNL     1      -4.934  -7.914   2.801  0.00  0.00    +0.062 A 
ATOM     33 CL   UNL     1      -6.321  -7.092   2.159  0.00  0.00    -0.082 Cl
ENDBRANCH  25  27
ENDBRANCH  10  25
TORSDOF 2
