REMARK  Name = CHEMBL584052
REMARK  2 active torsions:
REMARK  status: ('A' for Active; 'I' for Inactive)
REMARK    1  A    between atoms: C_17  and  C_21
REMARK    2  A    between atoms: C_24  and  O_27
REMARK                            x       y       z     vdW  Elec       q    Type
REMARK                         _______ _______ _______ _____ _____    ______ ____
ROOT
ATOM      1  C   UNL     1       0.751   2.144   0.154  0.00  0.00    +0.001 A 
ATOM      2  C   UNL     1       1.938   2.703   0.596  0.00  0.00    +0.002 A 
ATOM      3  C   UNL     1       3.070   1.927   0.685  0.00  0.00    +0.024 A 
ATOM      4  C   UNL     1       3.050   0.571   0.328  0.00  0.00    +0.041 A 
ATOM      5  C   UNL     1       1.868   0.017  -0.131  0.00  0.00    +0.004 A 
ATOM      6  C   UNL     1       0.714   0.818  -0.204  0.00  0.00    +0.010 A 
ATOM      7  C   UNL     1       1.712  -1.375  -0.587  0.00  0.00    -0.004 A 
ATOM      8  C   UNL     1       1.070  -1.603  -1.819  0.00  0.00    +0.029 A 
ATOM      9  C   UNL     1       0.874  -2.888  -2.278  0.00  0.00    +0.114 A 
ATOM     10  N   UNL     1       1.253  -3.967  -1.612  0.00  0.00    -0.237 NA
ATOM     11  C   UNL     1       1.870  -3.815  -0.444  0.00  0.00    +0.139 A 
ATOM     12  C   UNL     1       2.131  -2.521   0.085  0.00  0.00    +0.031 A 
ATOM     13  C   UNL     1       2.864  -2.757   1.322  0.00  0.00    -0.004 A 
ATOM     14  C   UNL     1       2.961  -4.078   1.495  0.00  0.00    +0.089 A 
ATOM     15  N   UNL     1       2.354  -4.726   0.447  0.00  0.00    -0.346 N 
ATOM     16  H   UNL     1       2.280  -5.689   0.354  0.00  0.00    +0.167 HD
ATOM     17  C   UNL     1       3.415  -1.659   2.208  0.00  0.00    +0.137 C 
ATOM     18  C   UNL     1       4.528  -1.009   1.406  0.00  0.00    +0.229 C 
ATOM     19  O   UNL     1       5.681  -1.329   1.605  0.00  0.00    -0.274 OA
ATOM     20  N   UNL     1       4.249  -0.096   0.491  0.00  0.00    -0.284 N 
ATOM     21  H   UNL     1       4.960   0.129  -0.130  0.00  0.00    +0.155 HD
ENDROOT
BRANCH  17  22
ATOM     22  C   UNL     1       2.339  -0.650   2.517  0.00  0.00    -0.031 A 
ATOM     23  C   UNL     1       1.012  -0.966   2.292  0.00  0.00    +0.008 A 
ATOM     24  C   UNL     1       0.024  -0.043   2.575  0.00  0.00    +0.046 A 
ATOM     25  C   UNL     1       0.364   1.202   3.086  0.00  0.00    +0.117 A 
ATOM     26  C   UNL     1       1.696   1.516   3.311  0.00  0.00    +0.046 A 
ATOM     27  C   UNL     1       2.680   0.587   3.031  0.00  0.00    +0.008 A 
BRANCH  25  28
ATOM     28  O   UNL     1      -0.606   2.111   3.364  0.00  0.00    -0.507 OA
ATOM     29  H   UNL     1      -0.951   2.055   4.266  0.00  0.00    +0.292 HD
ENDBRANCH  25  28
ENDBRANCH  17  22
TORSDOF 2
