REMARK  Name = CHEMBL1089833
REMARK  10 active torsions:
REMARK  status: ('A' for Active; 'I' for Inactive)
REMARK    1  A    between atoms: C_1  and  O_2
REMARK    2  A    between atoms: O_2  and  C_3
REMARK    3  A    between atoms: C_5  and  C_13
REMARK    4  A    between atoms: C_7  and  O_11
REMARK    5  A    between atoms: C_8  and  O_9
REMARK    6  A    between atoms: O_9  and  C_10
REMARK    7  A    between atoms: O_11  and  C_12
REMARK    8  A    between atoms: C_20  and  C_23
REMARK    9  A    between atoms: C_26  and  C_29
REMARK   10  A    between atoms: C_29  and  N_30
REMARK                            x       y       z     vdW  Elec       q    Type
REMARK                         _______ _______ _______ _____ _____    ______ ____
ROOT
ATOM      1  C   UNL     1       2.397   0.360  -4.220  0.00  0.00    +0.090 A 
ATOM      2  C   UNL     1       2.443   1.761  -4.090  0.00  0.00    +0.139 A 
ATOM      3  N   UNL     1       2.975   2.501  -5.032  0.00  0.00    -0.251 NA
ATOM      4  C   UNL     1       3.481   1.922  -6.130  0.00  0.00    +0.090 A 
ATOM      5  C   UNL     1       4.056   2.695  -7.152  0.00  0.00    +0.030 A 
ATOM      6  C   UNL     1       4.566   2.091  -8.262  0.00  0.00    +0.003 A 
ATOM      7  C   UNL     1       4.530   0.709  -8.409  0.00  0.00    +0.011 A 
ATOM      8  C   UNL     1       3.973  -0.090  -7.428  0.00  0.00    +0.010 A 
ATOM      9  C   UNL     1       3.436   0.512  -6.263  0.00  0.00    +0.098 A 
ATOM     10  N   UNL     1       2.895  -0.229  -5.294  0.00  0.00    -0.243 NA
ENDROOT
BRANCH   1  13
ATOM     11  C   UNL     1       0.606  -0.608  -1.056  0.00  0.00    +0.166 A 
ATOM     12  C   UNL     1       1.171   0.160  -2.060  0.00  0.00    +0.059 A 
ATOM     13  C   UNL     1       1.791  -0.460  -3.145  0.00  0.00    +0.009 A 
ATOM     14  C   UNL     1       1.840  -1.852  -3.216  0.00  0.00    +0.059 A 
ATOM     15  C   UNL     1       1.274  -2.616  -2.212  0.00  0.00    +0.166 A 
ATOM     16  C   UNL     1       0.661  -1.996  -1.127  0.00  0.00    +0.204 A 
BRANCH  11  18
ATOM     17  C   UNL     1      -0.017   1.425   0.010  0.00  0.00    +0.277 C 
ATOM     18  O   UNL     1       0.002  -0.004   0.002  0.00  0.00    -0.491 OA
ENDBRANCH  11  18
BRANCH  16  19
ATOM     19  O   UNL     1       0.109  -2.749  -0.138  0.00  0.00    -0.488 OA
ATOM     20  C   UNL     1      -1.262  -3.119  -0.292  0.00  0.00    +0.277 C 
ENDBRANCH  16  19
BRANCH  15  21
ATOM     21  O   UNL     1       1.321  -3.973  -2.281  0.00  0.00    -0.491 OA
ATOM     22  C   UNL     1       1.970  -4.542  -3.420  0.00  0.00    +0.277 C 
ENDBRANCH  15  21
ENDBRANCH   1  13
BRANCH   8  23
ATOM     23  C   UNL     1       3.937  -1.562  -7.593  0.00  0.00    -0.016 A 
ATOM     24  C   UNL     1       4.388  -2.393  -6.567  0.00  0.00    +0.009 A 
ATOM     25  C   UNL     1       4.352  -3.763  -6.726  0.00  0.00    +0.002 A 
ATOM     26  C   UNL     1       3.870  -4.313  -7.900  0.00  0.00    -0.064 A 
ATOM     27  C   UNL     1       3.422  -3.494  -8.922  0.00  0.00    +0.002 A 
ATOM     28  C   UNL     1       3.448  -2.123  -8.772  0.00  0.00    +0.009 A 
BRANCH  26  29
ATOM     29  C   UNL     1       3.834  -5.810  -8.068  0.00  0.00    -0.043 C 
BRANCH  29  30
ATOM     30  N   UNL     1       2.545  -6.325  -7.585  0.00  0.00    +0.384 N 
ATOM     31  C   UNL     1       2.427  -6.056  -6.151  0.00  0.00    -0.055 C 
ATOM     32  C   UNL     1       0.976  -6.257  -5.700  0.00  0.00    +0.147 C 
ATOM     33  S   UNL     1       0.526  -8.000  -5.965  0.00  0.00    -0.034 S 
ATOM     34  O   UNL     1      -0.887  -8.121  -5.879  0.00  0.00    -0.174 OA
ATOM     35  O   UNL     1       1.345  -8.810  -5.133  0.00  0.00    -0.174 OA
ATOM     36  C   UNL     1       1.026  -8.249  -7.696  0.00  0.00    +0.147 C 
ATOM     37  C   UNL     1       2.469  -7.762  -7.861  0.00  0.00    -0.055 C 
ATOM     38  H   UNL     1       1.797  -5.855  -8.072  0.00  0.00    -0.081 HD
ENDBRANCH  29  30
ENDBRANCH  26  29
ENDBRANCH   8  23
TORSDOF 7
