REMARK  Name = CHEMBL578194
REMARK  6 active torsions:
REMARK  status: ('A' for Active; 'I' for Inactive)
REMARK    1  A    between atoms: C_1  and  C_2
REMARK    2  A    between atoms: C_2  and  C_4
REMARK    3  A    between atoms: C_2  and  N_11
REMARK    4  A    between atoms: C_13  and  C_28
REMARK    5  A    between atoms: C_16  and  N_18
REMARK    6  A    between atoms: C_21  and  C_25
REMARK                            x       y       z     vdW  Elec       q    Type
REMARK                         _______ _______ _______ _____ _____    ______ ____
ROOT
ATOM      1  N   UNL     1       0.712  -0.488   1.191  0.00  0.00    -0.319 N 
ATOM      2  C   UNL     1       0.036  -0.631   2.390  0.00  0.00    +0.158 A 
ATOM      3  C   UNL     1       0.717  -1.079   3.535  0.00  0.00    +0.180 A 
ATOM      4  N   UNL     1       0.060  -1.214   4.686  0.00  0.00    -0.238 NA
ATOM      5  C   UNL     1      -1.223  -0.928   4.751  0.00  0.00    +0.156 A 
ATOM      6  C   UNL     1      -1.903  -0.483   3.615  0.00  0.00    +0.144 A 
ATOM      7  N   UNL     1      -1.256  -0.340   2.464  0.00  0.00    -0.213 NA
ATOM      8  H   UNL     1       1.657  -0.702   1.139  0.00  0.00    +0.148 HD
ENDROOT
BRANCH   6   9
ATOM      9  N   UNL     1      -3.254  -0.185   3.691  0.00  0.00    -0.282 N 
ATOM     10  C   UNL     1      -3.911   0.372   2.587  0.00  0.00    +0.146 A 
ATOM     11  C   UNL     1      -3.354   0.583   1.315  0.00  0.00    +0.068 A 
ATOM     12  C   UNL     1      -4.306   1.137   0.531  0.00  0.00    +0.041 A 
ATOM     13  N   UNL     1      -5.425   1.275   1.274  0.00  0.00    -0.280 N 
ATOM     14  H   UNL     1      -6.269   1.645   0.970  0.00  0.00    +0.189 HD
ATOM     15  N   UNL     1      -5.157   0.784   2.558  0.00  0.00    -0.158 NA
ATOM     16  H   UNL     1      -3.744  -0.362   4.508  0.00  0.00    +0.155 HD
BRANCH  12  17
ATOM     17  C   UNL     1      -4.147   1.532  -0.914  0.00  0.00    +0.037 C 
ATOM     18  C   UNL     1      -4.919   2.759  -1.401  0.00  0.00    +0.010 C 
ATOM     19  C   UNL     1      -5.359   1.359  -1.832  0.00  0.00    +0.010 C 
ENDBRANCH  12  17
ENDBRANCH   6   9
BRANCH   1  21
ATOM     20  C   UNL     1      -0.027   1.514  -0.003  0.00  0.00    +0.034 C 
ATOM     21  C   UNL     1       0.001  -0.016   0.001  0.00  0.00    +0.117 C 
BRANCH  21  22
ATOM     22  C   UNL     1       0.709  -0.508  -1.236  0.00  0.00    +0.061 A 
ATOM     23  C   UNL     1       0.003  -0.647  -2.416  0.00  0.00    +0.028 A 
ATOM     24  C   UNL     1       0.663  -1.100  -3.548  0.00  0.00    +0.042 A 
ATOM     25  C   UNL     1       2.015  -1.398  -3.450  0.00  0.00    +0.141 A 
ATOM     26  C   UNL     1       2.655  -1.234  -2.233  0.00  0.00    +0.149 A 
ATOM     27  N   UNL     1       1.994  -0.795  -1.179  0.00  0.00    -0.255 NA
ATOM     28  F   UNL     1       2.698  -1.843  -4.527  0.00  0.00    -0.204 F 
ENDBRANCH  21  22
ENDBRANCH   1  21
BRANCH   3  29
ATOM     29  C   UNL     1       2.113  -1.389   3.465  0.00  0.00    +0.123 C 
ATOM     30  N   UNL     1       3.220  -1.636   3.408  0.00  0.00    -0.189 NA
ENDBRANCH   3  29
TORSDOF 5
