REMARK  Name = CHEMBL1092063
REMARK  7 active torsions:
REMARK  status: ('A' for Active; 'I' for Inactive)
REMARK    1  A    between atoms: C_1  and  C_2
REMARK    2  A    between atoms: C_4  and  C_17
REMARK    3  A    between atoms: C_7  and  C_8
REMARK    4  A    between atoms: N_13  and  C_16
REMARK    5  A    between atoms: C_24  and  C_27
REMARK    6  A    between atoms: C_30  and  C_33
REMARK    7  A    between atoms: C_33  and  N_34
REMARK                            x       y       z     vdW  Elec       q    Type
REMARK                         _______ _______ _______ _____ _____    ______ ____
ROOT
ATOM      1  C   UNL     1      -0.212  -2.865  -2.450  0.00  0.00    +0.090 A 
ATOM      2  C   UNL     1      -0.535  -2.179  -3.635  0.00  0.00    +0.139 A 
ATOM      3  N   UNL     1      -0.641  -2.824  -4.772  0.00  0.00    -0.251 NA
ATOM      4  C   UNL     1      -0.439  -4.148  -4.808  0.00  0.00    +0.090 A 
ATOM      5  C   UNL     1      -0.546  -4.860  -6.014  0.00  0.00    +0.030 A 
ATOM      6  C   UNL     1      -0.337  -6.206  -6.035  0.00  0.00    +0.003 A 
ATOM      7  C   UNL     1      -0.016  -6.902  -4.875  0.00  0.00    +0.011 A 
ATOM      8  C   UNL     1       0.100  -6.241  -3.665  0.00  0.00    +0.010 A 
ATOM      9  C   UNL     1      -0.112  -4.841  -3.616  0.00  0.00    +0.098 A 
ATOM     10  N   UNL     1      -0.003  -4.171  -2.468  0.00  0.00    -0.243 NA
ENDROOT
BRANCH   1  14
ATOM     11  C   UNL     1      -0.657   1.399   0.102  0.00  0.00    +0.044 C 
ATOM     12  C   UNL     1      -0.311  -0.067   0.054  0.00  0.00    -0.038 A 
ATOM     13  C   UNL     1      -0.417  -0.761  -1.130  0.00  0.00    +0.014 A 
ATOM     14  C   UNL     1      -0.097  -2.118  -1.175  0.00  0.00    +0.002 A 
ATOM     15  C   UNL     1       0.330  -2.773  -0.019  0.00  0.00    +0.011 A 
ATOM     16  C   UNL     1       0.436  -2.081   1.166  0.00  0.00    +0.014 A 
ATOM     17  C   UNL     1       0.122  -0.720   1.210  0.00  0.00    +0.040 A 
BRANCH  17  18
ATOM     18  C   UNL     1       0.243   0.025   2.480  0.00  0.00    +0.247 C 
ATOM     19  O   UNL     1      -0.679   0.715   2.870  0.00  0.00    -0.270 OA
ATOM     20  N   UNL     1       1.375  -0.059   3.207  0.00  0.00    -0.295 N 
ATOM     21  C   UNL     1       2.550  -0.780   2.693  0.00  0.00    +0.123 C 
ATOM     22  C   UNL     1       3.772   0.137   2.808  0.00  0.00    +0.103 C 
ATOM     23  N   UNL     1       3.893   0.615   4.191  0.00  0.00    -0.302 NA
ATOM     24  C   UNL     1       2.733   1.431   4.577  0.00  0.00    +0.103 C 
ATOM     25  C   UNL     1       1.471   0.573   4.531  0.00  0.00    +0.123 C 
ATOM     26  C   UNL     1       5.146   1.357   4.385  0.00  0.00    +0.105 C 
ENDBRANCH  17  18
ENDBRANCH   1  14
BRANCH   8  27
ATOM     27  C   UNL     1       0.443  -6.989  -2.434  0.00  0.00    -0.016 A 
ATOM     28  C   UNL     1       1.470  -6.539  -1.604  0.00  0.00    +0.009 A 
ATOM     29  C   UNL     1       1.784  -7.241  -0.458  0.00  0.00    +0.005 A 
ATOM     30  C   UNL     1       1.083  -8.388  -0.131  0.00  0.00    -0.033 A 
ATOM     31  C   UNL     1       0.063  -8.839  -0.950  0.00  0.00    +0.005 A 
ATOM     32  C   UNL     1      -0.264  -8.143  -2.096  0.00  0.00    +0.009 A 
BRANCH  30  33
ATOM     33  C   UNL     1       1.432  -9.149   1.122  0.00  0.00    +0.119 C 
BRANCH  33  34
ATOM     34  N   UNL     1       0.635  -8.636   2.244  0.00  0.00    -0.295 NA
ATOM     35  C   UNL     1       0.971  -7.239   2.531  0.00  0.00    +0.107 C 
ATOM     36  C   UNL     1      -0.137  -6.601   3.376  0.00  0.00    +0.181 C 
ATOM     37  S   UNL     1      -0.243  -7.489   4.959  0.00  0.00    -0.029 S 
ATOM     38  O   UNL     1      -1.458  -7.128   5.601  0.00  0.00    -0.174 OA
ATOM     39  O   UNL     1       0.985  -7.323   5.654  0.00  0.00    -0.174 OA
ATOM     40  C   UNL     1      -0.371  -9.217   4.405  0.00  0.00    +0.181 C 
ATOM     41  C   UNL     1       0.769  -9.499   3.420  0.00  0.00    +0.107 C 
ENDBRANCH  33  34
ENDBRANCH  30  33
ENDBRANCH   8  27
TORSDOF 5
