REMARK  Name = CHEMBL1087398
REMARK  5 active torsions:
REMARK  status: ('A' for Active; 'I' for Inactive)
REMARK    1  A    between atoms: C_1  and  C_2
REMARK    2  A    between atoms: C_2  and  C_4
REMARK    3  A    between atoms: C_2  and  N_11
REMARK    4  A    between atoms: C_16  and  N_18
REMARK    5  A    between atoms: C_28  and  C_30
REMARK                            x       y       z     vdW  Elec       q    Type
REMARK                         _______ _______ _______ _____ _____    ______ ____
ROOT
ATOM      1  N   UNL     1      -1.391  -0.456  -0.029  0.00  0.00    -0.307 N 
ATOM      2  C   UNL     1      -2.099  -0.621  -1.206  0.00  0.00    +0.196 A 
ATOM      3  N   UNL     1      -3.333  -1.097  -1.155  0.00  0.00    -0.201 NA
ATOM      4  C   UNL     1      -4.044  -1.268  -2.268  0.00  0.00    +0.131 A 
ATOM      5  C   UNL     1      -3.474  -0.939  -3.493  0.00  0.00    +0.085 A 
ATOM      6  C   UNL     1      -2.174  -0.441  -3.507  0.00  0.00    +0.105 A 
ATOM      7  N   UNL     1      -1.526  -0.292  -2.354  0.00  0.00    -0.316 N 
ATOM      8  N   UNL     1      -5.338  -1.769  -2.205  0.00  0.00    -0.278 N 
ATOM      9  C   UNL     1      -5.858  -2.192  -0.997  0.00  0.00    +0.165 A 
ATOM     10  N   UNL     1      -5.311  -2.107   0.202  0.00  0.00    -0.232 NA
ATOM     11  C   UNL     1      -5.927  -2.555   1.268  0.00  0.00    +0.139 A 
ATOM     12  C   UNL     1      -7.178  -3.119   1.065  0.00  0.00    +0.110 A 
ATOM     13  S   UNL     1      -7.341  -2.930  -0.703  0.00  0.00    -0.042 S 
ATOM     14  H   UNL     1      -1.798  -0.693   0.819  0.00  0.00    +0.149 HD
ATOM     15  H   UNL     1      -5.877  -1.822  -3.010  0.00  0.00    +0.155 HD
ATOM     16  H   UNL     1      -0.621   0.058  -2.355  0.00  0.00    +0.170 HD
ENDROOT
BRANCH   6  17
ATOM     17  N   UNL     1      -1.566  -0.099  -4.705  0.00  0.00    -0.312 N 
ATOM     18  C   UNL     1      -0.150   0.300  -4.748  0.00  0.00    +0.134 C 
ATOM     19  C   UNL     1       0.552  -0.526  -5.832  0.00  0.00    +0.178 C 
ATOM     20  O   UNL     1      -0.177  -0.413  -7.056  0.00  0.00    -0.377 OA
ATOM     21  C   UNL     1      -1.508  -0.930  -6.995  0.00  0.00    +0.178 C 
ATOM     22  C   UNL     1      -2.314  -0.131  -5.971  0.00  0.00    +0.134 C 
ENDBRANCH   6  17
BRANCH   1  24
ATOM     23  C   UNL     1      -0.074   1.604  -0.075  0.00  0.00    +0.034 C 
ATOM     24  C   UNL     1      -0.026   0.075  -0.062  0.00  0.00    +0.119 C 
BRANCH  24  25
ATOM     25  C   UNL     1       0.726  -0.394   1.157  0.00  0.00    +0.061 A 
ATOM     26  C   UNL     1       2.106  -0.474   1.119  0.00  0.00    +0.028 A 
ATOM     27  C   UNL     1       2.789  -0.906   2.244  0.00  0.00    +0.042 A 
ATOM     28  C   UNL     1       2.054  -1.244   3.374  0.00  0.00    +0.141 A 
ATOM     29  C   UNL     1       0.674  -1.138   3.336  0.00  0.00    +0.149 A 
ATOM     30  N   UNL     1       0.060  -0.717   2.248  0.00  0.00    -0.255 NA
ATOM     31  F   UNL     1       2.678  -1.671   4.494  0.00  0.00    -0.204 F 
ENDBRANCH  24  25
ENDBRANCH   1  24
BRANCH  12  32
ATOM     32  C   UNL     1      -8.089  -3.689   2.012  0.00  0.00    +0.108 C 
ATOM     33  N   UNL     1      -8.812  -4.142   2.763  0.00  0.00    -0.190 NA
ENDBRANCH  12  32
TORSDOF 4
