REMARK  Name = CHEMBL510641
REMARK  4 active torsions:
REMARK  status: ('A' for Active; 'I' for Inactive)
REMARK    1  A    between atoms: C_1  and  C_2
REMARK    2  A    between atoms: C_3  and  C_8
REMARK    3  A    between atoms: C_5  and  C_7
REMARK    4  A    between atoms: C_14  and  N_18
REMARK                            x       y       z     vdW  Elec       q    Type
REMARK                         _______ _______ _______ _____ _____    ______ ____
ROOT
ATOM      1  C   UNL     1      -0.166  -0.393  -2.609  0.00  0.00    -0.009 A 
ATOM      2  C   UNL     1      -0.083   0.970  -2.955  0.00  0.00    +0.011 A 
ATOM      3  C   UNL     1      -0.169   1.383  -4.240  0.00  0.00    +0.031 A 
ATOM      4  C   UNL     1      -0.346   0.436  -5.274  0.00  0.00    +0.094 A 
ATOM      5  C   UNL     1      -0.434  -0.990  -4.923  0.00  0.00    +0.042 A 
ATOM      6  C   UNL     1      -0.334  -1.367  -3.573  0.00  0.00    +0.022 A 
ATOM      7  C   UNL     1      -0.606  -1.679  -6.123  0.00  0.00    +0.119 A 
ATOM      8  N   UNL     1      -0.622  -0.772  -7.114  0.00  0.00    -0.263 N 
ATOM      9  N   UNL     1      -0.463   0.514  -6.587  0.00  0.00    -0.172 NA
ATOM     10  H   UNL     1      -0.728  -0.979  -8.056  0.00  0.00    +0.190 HD
ENDROOT
BRANCH   1  13
ATOM     11  C   UNL     1      -1.671   0.877  -0.199  0.00  0.00    +0.067 C 
ATOM     12  C   UNL     1      -0.700  -0.270  -0.087  0.00  0.00    +0.053 A 
ATOM     13  C   UNL     1      -0.066  -0.788  -1.188  0.00  0.00    +0.042 A 
ATOM     14  S   UNL     1       0.914  -2.072  -0.426  0.00  0.00    -0.072 S 
ATOM     15  C   UNL     1       0.428  -1.822   1.165  0.00  0.00    +0.076 A 
ATOM     16  N   UNL     1      -0.413  -0.822   1.072  0.00  0.00    -0.249 NA
ATOM     17  C   UNL     1       0.860  -2.567   2.402  0.00  0.00    +0.073 C 
ENDBRANCH   1  13
BRANCH   7  18
ATOM     18  N   UNL     1      -0.735  -3.051  -6.267  0.00  0.00    -0.343 N 
ATOM     19  H   UNL     1      -0.710  -3.626  -5.486  0.00  0.00    +0.144 HD
ATOM     20  H   UNL     1      -0.851  -3.437  -7.149  0.00  0.00    +0.144 HD
ENDBRANCH   7  18
TORSDOF 2
