REMARK  Name = CHEMBL376885
REMARK  3 active torsions:
REMARK  status: ('A' for Active; 'I' for Inactive)
REMARK    1  A    between atoms: C_1  and  N_2
REMARK    2  A    between atoms: C_10  and  N_23
REMARK    3  A    between atoms: N_23  and  C_24
REMARK                            x       y       z     vdW  Elec       q    Type
REMARK                         _______ _______ _______ _____ _____    ______ ____
ROOT
ATOM      1  C   UNL     1      -1.505   2.012   0.865  0.00  0.00    +0.105 C 
ATOM      2  N   UNL     1      -1.123   0.599   0.736  0.00  0.00    -0.302 NA
ATOM      3  C   UNL     1      -2.295  -0.240   0.452  0.00  0.00    +0.103 C 
ATOM      4  C   UNL     1      -1.834  -1.669   0.147  0.00  0.00    +0.122 C 
ATOM      5  N   UNL     1      -0.990  -2.135   1.258  0.00  0.00    -0.313 N 
ATOM      6  C   UNL     1       0.125  -1.279   1.692  0.00  0.00    +0.122 C 
ATOM      7  C   UNL     1      -0.413   0.135   1.936  0.00  0.00    +0.103 C 
ATOM      8  C   UNL     1      -1.240  -3.348   1.881  0.00  0.00    +0.128 A 
ATOM      9  C   UNL     1      -2.227  -4.200   1.395  0.00  0.00    +0.087 A 
ATOM     10  C   UNL     1      -2.442  -5.408   2.052  0.00  0.00    +0.130 A 
ATOM     11  N   UNL     1      -1.700  -5.706   3.117  0.00  0.00    -0.197 NA
ATOM     12  C   UNL     1      -0.770  -4.871   3.551  0.00  0.00    +0.240 A 
ATOM     13  N   UNL     1      -0.535  -3.716   2.948  0.00  0.00    -0.197 NA
ATOM     14  N   UNL     1      -0.016  -5.218   4.668  0.00  0.00    -0.267 N 
ATOM     15  C   UNL     1       1.052  -4.533   5.168  0.00  0.00    +0.182 A 
ATOM     16  N   UNL     1       1.520  -5.140   6.221  0.00  0.00    -0.345 N 
ATOM     17  C   UNL     1       0.790  -6.252   6.470  0.00  0.00    +0.067 A 
ATOM     18  C   UNL     1      -0.212  -6.318   5.481  0.00  0.00    +0.092 A 
ATOM     19  C   UNL     1      -1.113  -7.370   5.507  0.00  0.00    +0.139 A 
ATOM     20  N   UNL     1      -1.031  -8.291   6.448  0.00  0.00    -0.261 NA
ATOM     21  C   UNL     1      -0.105  -8.257   7.391  0.00  0.00    +0.113 A 
ATOM     22  C   UNL     1       0.830  -7.261   7.438  0.00  0.00    +0.047 A 
ATOM     23  H   UNL     1       2.278  -4.841   6.747  0.00  0.00    +0.167 HD
ENDROOT
BRANCH  10  24
ATOM     24  N   UNL     1      -3.415  -6.289   1.605  0.00  0.00    -0.298 N 
ATOM     25  H   UNL     1      -3.988  -6.043   0.862  0.00  0.00    +0.154 HD
BRANCH  24  26
ATOM     26  C   UNL     1      -3.570  -7.534   2.224  0.00  0.00    +0.051 A 
ATOM     27  C   UNL     1      -2.467  -8.188   2.757  0.00  0.00    +0.025 A 
ATOM     28  C   UNL     1      -2.624  -9.416   3.369  0.00  0.00    +0.002 A 
ATOM     29  C   UNL     1      -3.877  -9.996   3.451  0.00  0.00    +0.002 A 
ATOM     30  C   UNL     1      -4.978  -9.348   2.921  0.00  0.00    +0.022 A 
ATOM     31  C   UNL     1      -4.829  -8.115   2.313  0.00  0.00    +0.062 A 
ATOM     32 CL   UNL     1      -6.213  -7.298   1.655  0.00  0.00    -0.082 Cl
ENDBRANCH  24  26
ENDBRANCH  10  24
TORSDOF 2
