REMARK  Name = CHEMBL1080159
REMARK  8 active torsions:
REMARK  status: ('A' for Active; 'I' for Inactive)
REMARK    1  A    between atoms: C_1  and  C_2
REMARK    2  A    between atoms: C_4  and  N_13
REMARK    3  A    between atoms: C_7  and  C_8
REMARK    4  A    between atoms: N_10  and  C_11
REMARK    5  A    between atoms: N_10  and  C_12
REMARK    6  A    between atoms: C_20  and  C_23
REMARK    7  A    between atoms: C_26  and  C_30
REMARK    8  A    between atoms: C_30  and  N_31
REMARK                            x       y       z     vdW  Elec       q    Type
REMARK                         _______ _______ _______ _____ _____    ______ ____
ROOT
ATOM      1  N   UNL     1       0.150  -2.232  -2.440  0.00  0.00    -0.269 N 
ATOM      2  C   UNL     1      -0.045  -3.597  -2.447  0.00  0.00    +0.293 A 
ATOM      3  N   UNL     1      -0.407  -4.309  -1.411  0.00  0.00    -0.195 NA
ATOM      4  C   UNL     1      -0.501  -5.613  -1.788  0.00  0.00    +0.112 A 
ATOM      5  C   UNL     1      -0.839  -6.789  -1.115  0.00  0.00    +0.031 A 
ATOM      6  C   UNL     1      -0.845  -7.991  -1.789  0.00  0.00    +0.003 A 
ATOM      7  C   UNL     1      -0.518  -8.046  -3.132  0.00  0.00    +0.012 A 
ATOM      8  C   UNL     1      -0.178  -6.886  -3.821  0.00  0.00    +0.027 A 
ATOM      9  C   UNL     1      -0.169  -5.662  -3.149  0.00  0.00    +0.165 A 
ATOM     10  O   UNL     1       0.102  -4.391  -3.522  0.00  0.00    -0.424 OA
ATOM     11  H   UNL     1       0.337  -1.765  -3.269  0.00  0.00    +0.157 HD
ENDROOT
BRANCH   8  12
ATOM     12  C   UNL     1       0.174  -6.948  -5.260  0.00  0.00    -0.009 A 
ATOM     13  C   UNL     1      -0.431  -6.079  -6.166  0.00  0.00    +0.047 A 
ATOM     14  C   UNL     1      -0.101  -6.141  -7.507  0.00  0.00    +0.131 A 
ATOM     15  C   UNL     1       0.831  -7.065  -7.950  0.00  0.00    +0.037 A 
ATOM     16  C   UNL     1       1.434  -7.931  -7.054  0.00  0.00    +0.131 A 
ATOM     17  C   UNL     1       1.114  -7.873  -5.710  0.00  0.00    +0.047 A 
ATOM     18  F   UNL     1       2.341  -8.832  -7.493  0.00  0.00    -0.205 F 
ATOM     19  F   UNL     1      -0.687  -5.299  -8.386  0.00  0.00    -0.205 F 
BRANCH  15  20
ATOM     20  C   UNL     1       1.188  -7.129  -9.413  0.00  0.00    +0.125 C 
BRANCH  20  21
ATOM     21  N   UNL     1       2.317  -6.228  -9.681  0.00  0.00    -0.294 NA
ATOM     22  C   UNL     1       1.929  -4.824  -9.484  0.00  0.00    +0.113 C 
ATOM     23  C   UNL     1       3.148  -3.927  -9.715  0.00  0.00    +0.175 C 
ATOM     24  O   UNL     1       3.668  -4.165 -11.025  0.00  0.00    -0.377 OA
ATOM     25  C   UNL     1       4.056  -5.523 -11.252  0.00  0.00    +0.175 C 
ATOM     26  C   UNL     1       2.846  -6.437 -11.037  0.00  0.00    +0.113 C 
ENDBRANCH  20  21
ENDBRANCH  15  20
ENDBRANCH   8  12
BRANCH   1  30
ATOM     27  C   UNL     1       0.741  -2.123   2.431  0.00  0.00    +0.044 C 
ATOM     28  C   UNL     1       0.361  -1.450   1.138  0.00  0.00    -0.037 A 
ATOM     29  C   UNL     1       0.430  -2.146  -0.048  0.00  0.00    +0.027 A 
ATOM     30  C   UNL     1       0.079  -1.525  -1.242  0.00  0.00    +0.035 A 
ATOM     31  C   UNL     1      -0.343  -0.199  -1.243  0.00  0.00    +0.024 A 
ATOM     32  C   UNL     1      -0.414   0.503  -0.061  0.00  0.00    +0.015 A 
ATOM     33  C   UNL     1      -0.068  -0.120   1.141  0.00  0.00    +0.040 A 
BRANCH  33  34
ATOM     34  C   UNL     1      -0.149   0.627   2.411  0.00  0.00    +0.246 C 
ATOM     35  O   UNL     1      -0.677   0.121   3.382  0.00  0.00    -0.270 OA
ATOM     36  N   UNL     1       0.362   1.872   2.494  0.00  0.00    -0.304 N 
ATOM     37  C   UNL     1       0.183   2.657   3.718  0.00  0.00    +0.132 C 
ATOM     38  C   UNL     1       1.097   2.439   1.361  0.00  0.00    +0.132 C 
ENDBRANCH  33  34
ENDBRANCH   1  30
TORSDOF 5
