REMARK  Name = CHEMBL568788
REMARK  6 active torsions:
REMARK  status: ('A' for Active; 'I' for Inactive)
REMARK    1  A    between atoms: C_1  and  C_2
REMARK    2  A    between atoms: C_12  and  C_25
REMARK    3  A    between atoms: C_13  and  N_15
REMARK    4  A    between atoms: N_15  and  C_16
REMARK    5  A    between atoms: C_16  and  C_17
REMARK    6  A    between atoms: C_16  and  C_18
REMARK                            x       y       z     vdW  Elec       q    Type
REMARK                         _______ _______ _______ _____ _____    ______ ____
ROOT
ATOM      1  C   UNL     1       0.127  -8.235  -1.033  0.00  0.00    +0.065 C 
ATOM      2  C   UNL     1       0.105  -6.760  -0.722  0.00  0.00    +0.035 A 
ATOM      3  C   UNL     1       0.079  -5.756  -1.627  0.00  0.00    +0.068 A 
ATOM      4  C   UNL     1       0.066  -4.541  -0.922  0.00  0.00    +0.146 A 
ATOM      5  N   UNL     1       0.083  -4.815   0.361  0.00  0.00    -0.158 NA
ATOM      6  N   UNL     1       0.102  -6.208   0.510  0.00  0.00    -0.280 N 
ATOM      7  H   UNL     1       0.114  -6.691   1.351  0.00  0.00    +0.189 HD
ATOM      8  N   UNL     1       0.039  -3.261  -1.490  0.00  0.00    -0.282 N 
ATOM      9  C   UNL     1       0.135  -3.111  -2.864  0.00  0.00    +0.144 A 
ATOM     10  C   UNL     1       0.226  -1.832  -3.420  0.00  0.00    +0.156 A 
ATOM     11  N   UNL     1       0.318  -1.681  -4.724  0.00  0.00    -0.238 NA
ATOM     12  C   UNL     1       0.324  -2.749  -5.521  0.00  0.00    +0.180 A 
ATOM     13  C   UNL     1       0.233  -4.037  -4.965  0.00  0.00    +0.158 A 
ATOM     14  N   UNL     1       0.146  -4.181  -3.648  0.00  0.00    -0.213 NA
ATOM     15  H   UNL     1      -0.046  -2.480  -0.921  0.00  0.00    +0.155 HD
ENDROOT
BRANCH  13  16
ATOM     16  N   UNL     1       0.239  -5.150  -5.787  0.00  0.00    -0.319 N 
ATOM     17  H   UNL     1       0.305  -5.043  -6.748  0.00  0.00    +0.148 HD
BRANCH  16  18
ATOM     18  C   UNL     1       0.144  -6.491  -5.204  0.00  0.00    +0.117 C 
ATOM     19  C   UNL     1       1.538  -6.969  -4.794  0.00  0.00    +0.034 C 
BRANCH  18  20
ATOM     20  C   UNL     1      -0.433  -7.441  -6.222  0.00  0.00    +0.061 A 
ATOM     21  C   UNL     1      -1.095  -8.578  -5.797  0.00  0.00    +0.028 A 
ATOM     22  C   UNL     1      -1.623  -9.445  -6.740  0.00  0.00    +0.042 A 
ATOM     23  C   UNL     1      -1.464  -9.136  -8.084  0.00  0.00    +0.141 A 
ATOM     24  C   UNL     1      -0.789  -7.979  -8.434  0.00  0.00    +0.149 A 
ATOM     25  N   UNL     1      -0.305  -7.175  -7.507  0.00  0.00    -0.255 NA
ATOM     26  F   UNL     1      -1.961  -9.953  -9.038  0.00  0.00    -0.204 F 
ENDBRANCH  18  20
ENDBRANCH  16  18
ENDBRANCH  13  16
BRANCH  12  27
ATOM     27  C   UNL     1       0.423  -2.586  -6.940  0.00  0.00    +0.123 C 
ATOM     28  N   UNL     1       0.501  -2.456  -8.066  0.00  0.00    -0.189 NA
ENDBRANCH  12  27
TORSDOF 4
