REMARK  Name = CHEMBL570229
REMARK  2 active torsions:
REMARK  status: ('A' for Active; 'I' for Inactive)
REMARK    1  A    between atoms: C_9  and  N_11
REMARK    2  A    between atoms: C_14  and  C_18
REMARK                            x       y       z     vdW  Elec       q    Type
REMARK                         _______ _______ _______ _____ _____    ______ ____
ROOT
ATOM      1  N   UNL     1       4.590  -0.514  -0.990  0.00  0.00    -0.322 N 
ATOM      2  C   UNL     1       5.559   0.399  -0.602  0.00  0.00    +0.123 A 
ATOM      3  C   UNL     1       5.587   0.887   0.700  0.00  0.00    +0.072 A 
ATOM      4  C   UNL     1       6.584   1.804   1.041  0.00  0.00    +0.083 A 
ATOM      5  N   UNL     1       7.467   2.174   0.108  0.00  0.00    -0.235 NA
ATOM      6  C   UNL     1       7.404   1.686  -1.113  0.00  0.00    +0.223 A 
ATOM      7  N   UNL     1       6.480   0.816  -1.469  0.00  0.00    -0.221 NA
ATOM      8  H   UNL     1       4.580  -0.853  -1.899  0.00  0.00    +0.148 HD
ENDROOT
BRANCH   4   9
ATOM      9  C   UNL     1       6.661   2.355   2.408  0.00  0.00    +0.086 A 
ATOM     10  C   UNL     1       7.664   3.204   2.912  0.00  0.00    +0.150 A 
ATOM     11  N   UNL     1       7.387   3.481   4.167  0.00  0.00    -0.150 NA
ATOM     12  N   UNL     1       6.203   2.833   4.534  0.00  0.00    -0.219 N 
ATOM     13  C   UNL     1       5.744   2.138   3.447  0.00  0.00    +0.167 A 
ATOM     14  N   UNL     1       4.616   1.426   3.519  0.00  0.00    -0.235 NA
ATOM     15  C   UNL     1       3.920   1.378   4.632  0.00  0.00    +0.114 A 
ATOM     16  C   UNL     1       4.354   2.078   5.765  0.00  0.00    +0.039 A 
ATOM     17  C   UNL     1       5.503   2.798   5.703  0.00  0.00    +0.116 A 
ATOM     18  N   UNL     1       8.768   3.671   2.200  0.00  0.00    -0.341 N 
ATOM     19  H   UNL     1       8.854   3.473   1.254  0.00  0.00    +0.144 HD
ATOM     20  H   UNL     1       9.450   4.194   2.651  0.00  0.00    +0.144 HD
ENDBRANCH   4   9
BRANCH   1  29
ATOM     21  C   UNL     1      -0.014   1.329   0.024  0.00  0.00    +0.000 A 
ATOM     22  C   UNL     1       1.170   2.043   0.014  0.00  0.00    +0.000 A 
ATOM     23  C   UNL     1       2.378   1.374  -0.003  0.00  0.00    +0.006 A 
ATOM     24  C   UNL     1       2.408  -0.010  -0.010  0.00  0.00    -0.024 A 
ATOM     25  C   UNL     1       1.225  -0.724   0.000  0.00  0.00    -0.042 A 
ATOM     26  C   UNL     1       0.014  -0.052   0.018  0.00  0.00    +0.004 A 
ATOM     27  C   UNL     1       1.522  -2.208  -0.011  0.00  0.00    +0.037 C 
ATOM     28  C   UNL     1       2.992  -2.322  -0.469  0.00  0.00    +0.032 C 
ATOM     29  C   UNL     1       3.582  -0.966  -0.028  0.00  0.00    +0.103 C 
ENDBRANCH   1  29
TORSDOF 2
