REMARK  Name = CHEMBL220483
REMARK  8 active torsions:
REMARK  status: ('A' for Active; 'I' for Inactive)
REMARK    1  A    between atoms: C_1  and  C_2
REMARK    2  A    between atoms: C_2  and  C_4
REMARK    3  A    between atoms: C_2  and  N_10
REMARK    4  A    between atoms: C_13  and  C_26
REMARK    5  A    between atoms: C_29  and  O_34
REMARK    6  A    between atoms: C_30  and  O_32
REMARK    7  A    between atoms: O_32  and  C_33
REMARK    8  A    between atoms: O_34  and  C_35
REMARK                            x       y       z     vdW  Elec       q    Type
REMARK                         _______ _______ _______ _____ _____    ______ ____
ROOT
ATOM      1  N   UNL     1       0.711  -0.489   1.189  0.00  0.00    -0.322 N 
ATOM      2  C   UNL     1       0.033  -0.637   2.389  0.00  0.00    +0.125 A 
ATOM      3  C   UNL     1      -1.325  -0.333   2.475  0.00  0.00    +0.072 A 
ATOM      4  C   UNL     1      -1.963  -0.498   3.702  0.00  0.00    +0.078 A 
ATOM      5  N   UNL     1      -1.258  -0.939   4.745  0.00  0.00    -0.212 NA
ATOM      6  C   UNL     1       0.029  -1.217   4.623  0.00  0.00    +0.239 A 
ATOM      7  N   UNL     1       0.667  -1.077   3.471  0.00  0.00    -0.197 NA
ATOM      8  N   UNL     1       0.731  -1.675   5.735  0.00  0.00    -0.267 N 
ATOM      9  C   UNL     1       0.223  -1.883   6.983  0.00  0.00    +0.182 A 
ATOM     10  N   UNL     1       1.158  -2.313   7.781  0.00  0.00    -0.345 N 
ATOM     11  C   UNL     1       2.326  -2.411   7.104  0.00  0.00    +0.067 A 
ATOM     12  C   UNL     1       2.072  -2.009   5.778  0.00  0.00    +0.092 A 
ATOM     13  C   UNL     1       3.109  -2.020   4.861  0.00  0.00    +0.139 A 
ATOM     14  N   UNL     1       4.316  -2.406   5.229  0.00  0.00    -0.261 NA
ATOM     15  C   UNL     1       4.588  -2.792   6.464  0.00  0.00    +0.113 A 
ATOM     16  C   UNL     1       3.627  -2.805   7.436  0.00  0.00    +0.047 A 
ATOM     17  H   UNL     1       1.654  -0.707   1.135  0.00  0.00    +0.148 HD
ATOM     18  H   UNL     1       1.036  -2.530   8.718  0.00  0.00    +0.167 HD
ENDROOT
BRANCH   4  19
ATOM     19  C   UNL     1      -3.406  -0.188   3.848  0.00  0.00    +0.004 A 
ATOM     20  C   UNL     1      -4.136   0.267   2.750  0.00  0.00    +0.014 A 
ATOM     21  C   UNL     1      -5.478   0.555   2.886  0.00  0.00    +0.050 A 
ATOM     22  C   UNL     1      -6.104   0.394   4.113  0.00  0.00    +0.162 A 
ATOM     23  C   UNL     1      -5.380  -0.060   5.213  0.00  0.00    +0.162 A 
ATOM     24  C   UNL     1      -4.035  -0.356   5.080  0.00  0.00    +0.059 A 
BRANCH  23  25
ATOM     25  O   UNL     1      -5.995  -0.217   6.415  0.00  0.00    -0.491 OA
ATOM     26  C   UNL     1      -5.191  -0.686   7.500  0.00  0.00    +0.277 C 
ENDBRANCH  23  25
BRANCH  22  27
ATOM     27  O   UNL     1      -7.427   0.679   4.243  0.00  0.00    -0.491 OA
ATOM     28  C   UNL     1      -8.108   1.140   3.075  0.00  0.00    +0.277 C 
ENDBRANCH  22  27
ENDBRANCH   4  19
BRANCH   1  30
ATOM     29  C   UNL     1      -0.019   1.526   0.010  0.00  0.00    +0.033 C 
ATOM     30  C   UNL     1       0.002  -0.004   0.002  0.00  0.00    +0.099 C 
BRANCH  30  31
ATOM     31  C   UNL     1       0.707  -0.490  -1.238  0.00  0.00    -0.028 A 
ATOM     32  C   UNL     1       2.089  -0.511  -1.284  0.00  0.00    +0.005 A 
ATOM     33  C   UNL     1       2.736  -0.957  -2.421  0.00  0.00    +0.000 A 
ATOM     34  C   UNL     1       2.002  -1.382  -3.512  0.00  0.00    +0.000 A 
ATOM     35  C   UNL     1       0.620  -1.362  -3.466  0.00  0.00    +0.000 A 
ATOM     36  C   UNL     1      -0.027  -0.920  -2.327  0.00  0.00    +0.005 A 
ENDBRANCH  30  31
ENDBRANCH   1  30
TORSDOF 5
