REMARK  Name = CHEMBL221376
REMARK  5 active torsions:
REMARK  status: ('A' for Active; 'I' for Inactive)
REMARK    1  A    between atoms: C_1  and  C_2
REMARK    2  A    between atoms: C_2  and  C_4
REMARK    3  A    between atoms: C_2  and  N_10
REMARK    4  A    between atoms: C_13  and  C_26
REMARK    5  A    between atoms: N_29  and  C_31
REMARK                            x       y       z     vdW  Elec       q    Type
REMARK                         _______ _______ _______ _____ _____    ______ ____
ROOT
ATOM      1  N   UNL     1       0.711  -0.489   1.189  0.00  0.00    -0.322 N 
ATOM      2  C   UNL     1       0.033  -0.638   2.389  0.00  0.00    +0.125 A 
ATOM      3  C   UNL     1      -1.325  -0.333   2.475  0.00  0.00    +0.072 A 
ATOM      4  C   UNL     1      -1.963  -0.498   3.702  0.00  0.00    +0.081 A 
ATOM      5  N   UNL     1      -1.258  -0.939   4.745  0.00  0.00    -0.212 NA
ATOM      6  C   UNL     1       0.029  -1.217   4.623  0.00  0.00    +0.239 A 
ATOM      7  N   UNL     1       0.667  -1.077   3.472  0.00  0.00    -0.197 NA
ATOM      8  N   UNL     1       0.731  -1.674   5.735  0.00  0.00    -0.267 N 
ATOM      9  C   UNL     1       0.224  -1.882   6.984  0.00  0.00    +0.182 A 
ATOM     10  N   UNL     1       1.159  -2.312   7.781  0.00  0.00    -0.345 N 
ATOM     11  C   UNL     1       2.327  -2.410   7.104  0.00  0.00    +0.067 A 
ATOM     12  C   UNL     1       2.072  -2.008   5.779  0.00  0.00    +0.092 A 
ATOM     13  C   UNL     1       3.110  -2.020   4.862  0.00  0.00    +0.139 A 
ATOM     14  N   UNL     1       4.316  -2.406   5.230  0.00  0.00    -0.261 NA
ATOM     15  C   UNL     1       4.588  -2.792   6.464  0.00  0.00    +0.113 A 
ATOM     16  C   UNL     1       3.627  -2.805   7.436  0.00  0.00    +0.047 A 
ATOM     17  H   UNL     1       1.654  -0.707   1.135  0.00  0.00    +0.148 HD
ATOM     18  H   UNL     1       1.037  -2.529   8.719  0.00  0.00    +0.167 HD
ENDROOT
BRANCH   4  19
ATOM     19  C   UNL     1      -3.405  -0.188   3.847  0.00  0.00    +0.038 A 
ATOM     20  C   UNL     1      -4.264   0.277   2.831  0.00  0.00    +0.144 A 
ATOM     21  N   UNL     1      -5.454   0.432   3.346  0.00  0.00    -0.179 NA
ATOM     22  N   UNL     1      -5.404   0.077   4.699  0.00  0.00    -0.274 N 
ATOM     23  C   UNL     1      -4.146  -0.306   4.989  0.00  0.00    +0.118 A 
ATOM     24  C   UNL     1      -6.529   0.110   5.638  0.00  0.00    +0.172 C 
ENDBRANCH   4  19
BRANCH   1  26
ATOM     25  C   UNL     1      -0.019   1.526   0.010  0.00  0.00    +0.033 C 
ATOM     26  C   UNL     1       0.002  -0.004   0.002  0.00  0.00    +0.099 C 
BRANCH  26  27
ATOM     27  C   UNL     1       0.707  -0.490  -1.238  0.00  0.00    -0.028 A 
ATOM     28  C   UNL     1       2.089  -0.511  -1.284  0.00  0.00    +0.005 A 
ATOM     29  C   UNL     1       2.736  -0.957  -2.421  0.00  0.00    +0.000 A 
ATOM     30  C   UNL     1       2.002  -1.382  -3.512  0.00  0.00    +0.000 A 
ATOM     31  C   UNL     1       0.620  -1.362  -3.466  0.00  0.00    +0.000 A 
ATOM     32  C   UNL     1      -0.027  -0.920  -2.327  0.00  0.00    +0.005 A 
ENDBRANCH  26  27
ENDBRANCH   1  26
TORSDOF 3
