REMARK  Name = CHEMBL1078866
REMARK  8 active torsions:
REMARK  status: ('A' for Active; 'I' for Inactive)
REMARK    1  A    between atoms: C_1  and  N_2
REMARK    2  A    between atoms: N_5  and  C_8
REMARK    3  A    between atoms: C_8  and  C_9
REMARK    4  A    between atoms: C_13  and  N_15
REMARK    5  A    between atoms: C_20  and  C_22
REMARK    6  A    between atoms: C_25  and  N_28
REMARK    7  A    between atoms: N_28  and  S_29
REMARK    8  A    between atoms: S_29  and  C_32
REMARK                            x       y       z     vdW  Elec       q    Type
REMARK                         _______ _______ _______ _____ _____    ______ ____
ROOT
ATOM      1  N   UNL     1      -1.087  -5.688   5.605  0.00  0.00    -0.284 N 
ATOM      2  C   UNL     1      -2.416  -6.010   5.385  0.00  0.00    +0.220 A 
ATOM      3  N   UNL     1      -2.856  -6.124   4.140  0.00  0.00    -0.223 NA
ATOM      4  C   UNL     1      -4.119  -6.430   3.888  0.00  0.00    +0.116 A 
ATOM      5  C   UNL     1      -4.989  -6.633   4.943  0.00  0.00    +0.048 A 
ATOM      6  C   UNL     1      -4.497  -6.506   6.246  0.00  0.00    +0.076 A 
ATOM      7  N   UNL     1      -3.214  -6.200   6.424  0.00  0.00    -0.214 NA
ATOM      8  H   UNL     1      -0.732  -5.684   6.507  0.00  0.00    +0.155 HD
ENDROOT
BRANCH   1  13
ATOM      9  C   UNL     1       0.046  -4.396   2.355  0.00  0.00    -0.062 A 
ATOM     10  C   UNL     1       1.385  -4.740   2.389  0.00  0.00    +0.002 A 
ATOM     11  C   UNL     1       1.905  -5.397   3.489  0.00  0.00    +0.002 A 
ATOM     12  C   UNL     1       1.089  -5.713   4.557  0.00  0.00    +0.023 A 
ATOM     13  C   UNL     1      -0.257  -5.370   4.525  0.00  0.00    +0.034 A 
ATOM     14  C   UNL     1      -0.775  -4.704   3.421  0.00  0.00    +0.025 A 
BRANCH   9  15
ATOM     15  C   UNL     1      -0.516  -3.680   1.154  0.00  0.00    -0.043 C 
BRANCH  15  20
ATOM     16  C   UNL     1       0.623   1.817   0.669  0.00  0.00    +0.104 C 
ATOM     17  N   UNL     1       0.475   0.363   0.522  0.00  0.00    -0.309 NA
ATOM     18  C   UNL     1      -0.942  -0.018   0.448  0.00  0.00    +0.065 C 
ATOM     19  C   UNL     1      -1.051  -1.529   0.236  0.00  0.00    -0.063 C 
ATOM     20  N   UNL     1      -0.396  -2.229   1.349  0.00  0.00    +0.384 N 
ATOM     21  C   UNL     1       1.024  -1.857   1.395  0.00  0.00    -0.063 C 
ATOM     22  C   UNL     1       1.150  -0.348   1.617  0.00  0.00    +0.065 C 
ATOM     23  H   UNL     1      -0.840  -1.968   2.217  0.00  0.00    -0.081 HD
ENDBRANCH  15  20
ENDBRANCH   9  15
ENDBRANCH   1  13
BRANCH   6  24
ATOM     24  C   UNL     1      -5.390  -6.714   7.410  0.00  0.00    +0.001 A 
ATOM     25  C   UNL     1      -6.731  -7.044   7.213  0.00  0.00    +0.012 A 
ATOM     26  C   UNL     1      -7.559  -7.237   8.297  0.00  0.00    +0.027 A 
ATOM     27  C   UNL     1      -7.059  -7.102   9.588  0.00  0.00    +0.074 A 
ATOM     28  C   UNL     1      -5.722  -6.772   9.787  0.00  0.00    +0.027 A 
ATOM     29  C   UNL     1      -4.889  -6.585   8.706  0.00  0.00    +0.012 A 
BRANCH  27  30
ATOM     30  N   UNL     1      -7.898  -7.298  10.683  0.00  0.00    -0.103 NA
BRANCH  30  31
ATOM     31  S   UNL     1      -7.304  -7.137  12.221  0.00  0.00    +0.059 S 
ATOM     32  O   UNL     1      -6.336  -8.170  12.345  0.00  0.00    -0.154 OA
ATOM     33  O   UNL     1      -6.924  -5.772  12.322  0.00  0.00    -0.154 OA
ATOM     34  C   UNL     1      -8.719  -7.474  13.305  0.00  0.00    +0.220 C 
ENDBRANCH  30  31
ENDBRANCH  27  30
ENDBRANCH   6  24
TORSDOF 6
