REMARK  Name = CHEMBL576475
REMARK  3 active torsions:
REMARK  status: ('A' for Active; 'I' for Inactive)
REMARK    1  A    between atoms: C_5  and  C_7
REMARK    2  A    between atoms: C_7  and  N_8
REMARK    3  A    between atoms: C_11  and  C_15
REMARK                            x       y       z     vdW  Elec       q    Type
REMARK                         _______ _______ _______ _____ _____    ______ ____
ROOT
ATOM      1  N   UNL     1       1.345  -2.645  -1.404  0.00  0.00    -0.323 N 
ATOM      2  C   UNL     1       1.403  -4.006  -1.665  0.00  0.00    +0.123 A 
ATOM      3  C   UNL     1       1.337  -4.927  -0.624  0.00  0.00    +0.072 A 
ATOM      4  C   UNL     1       1.399  -6.286  -0.941  0.00  0.00    +0.083 A 
ATOM      5  N   UNL     1       1.519  -6.647  -2.222  0.00  0.00    -0.235 NA
ATOM      6  C   UNL     1       1.577  -5.741  -3.175  0.00  0.00    +0.223 A 
ATOM      7  N   UNL     1       1.517  -4.450  -2.916  0.00  0.00    -0.221 NA
ATOM      8  H   UNL     1       1.387  -2.009  -2.136  0.00  0.00    +0.148 HD
ENDROOT
BRANCH   4   9
ATOM      9  C   UNL     1       1.334  -7.307   0.123  0.00  0.00    +0.086 A 
ATOM     10  C   UNL     1       1.285  -8.702  -0.058  0.00  0.00    +0.150 A 
ATOM     11  N   UNL     1       1.236  -9.277   1.123  0.00  0.00    -0.150 NA
ATOM     12  N   UNL     1       1.249  -8.293   2.118  0.00  0.00    -0.219 N 
ATOM     13  C   UNL     1       1.316  -7.071   1.506  0.00  0.00    +0.167 A 
ATOM     14  N   UNL     1       1.347  -5.947   2.228  0.00  0.00    -0.235 NA
ATOM     15  C   UNL     1       1.317  -5.990   3.541  0.00  0.00    +0.114 A 
ATOM     16  C   UNL     1       1.253  -7.221   4.204  0.00  0.00    +0.039 A 
ATOM     17  C   UNL     1       1.214  -8.367   3.478  0.00  0.00    +0.116 A 
ATOM     18  N   UNL     1       1.289  -9.363  -1.286  0.00  0.00    -0.341 N 
ATOM     19  H   UNL     1       1.401  -8.860  -2.107  0.00  0.00    +0.144 HD
ATOM     20  H   UNL     1       1.179 -10.326  -1.318  0.00  0.00    +0.144 HD
ENDBRANCH   4   9
BRANCH   1  21
ATOM     21  C   UNL     1       1.219  -2.168  -0.025  0.00  0.00    +0.158 C 
BRANCH  21  26
ATOM     22  C   UNL     1      -0.069   1.374   0.002  0.00  0.00    +0.003 A 
ATOM     23  C   UNL     1       1.137   2.058  -0.002  0.00  0.00    +0.020 A 
ATOM     24  C   UNL     1       2.318   1.340  -0.012  0.00  0.00    +0.111 A 
ATOM     25  N   UNL     1       2.306   0.021  -0.019  0.00  0.00    -0.258 NA
ATOM     26  C   UNL     1       1.178  -0.662  -0.016  0.00  0.00    +0.058 A 
ATOM     27  C   UNL     1      -0.042  -0.012  -0.005  0.00  0.00    +0.025 A 
ENDBRANCH  21  26
ENDBRANCH   1  21
TORSDOF 3
