REMARK  Name = CHEMBL568788
REMARK  7 active torsions:
REMARK  status: ('A' for Active; 'I' for Inactive)
REMARK    1  A    between atoms: C_1  and  C_2
REMARK    2  A    between atoms: C_4  and  N_8
REMARK    3  A    between atoms: C_12  and  C_25
REMARK    4  A    between atoms: C_13  and  N_15
REMARK    5  A    between atoms: N_15  and  C_16
REMARK    6  A    between atoms: C_16  and  C_17
REMARK    7  A    between atoms: C_16  and  C_18
REMARK                            x       y       z     vdW  Elec       q    Type
REMARK                         _______ _______ _______ _____ _____    ______ ____
ROOT
ATOM      1  N   UNL     1       0.061  -3.254   1.514  0.00  0.00    -0.283 N 
ATOM      2  C   UNL     1      -0.031  -3.121   2.890  0.00  0.00    +0.144 A 
ATOM      3  C   UNL     1      -0.154  -1.852   3.461  0.00  0.00    +0.156 A 
ATOM      4  N   UNL     1      -0.242  -1.718   4.767  0.00  0.00    -0.238 NA
ATOM      5  C   UNL     1      -0.215  -2.795   5.551  0.00  0.00    +0.180 A 
ATOM      6  C   UNL     1      -0.092  -4.073   4.981  0.00  0.00    +0.158 A 
ATOM      7  N   UNL     1      -0.009  -4.201   3.663  0.00  0.00    -0.213 NA
ATOM      8  H   UNL     1       0.123  -2.465   0.953  0.00  0.00    +0.155 HD
ENDROOT
BRANCH   1  12
ATOM      9  C   UNL     1       0.108  -8.210   0.941  0.00  0.00    +0.067 C 
ATOM     10  C   UNL     1       0.086  -6.732   0.647  0.00  0.00    +0.062 A 
ATOM     11  C   UNL     1       0.092  -5.710   1.599  0.00  0.00    +0.068 A 
ATOM     12  C   UNL     1       0.066  -4.521   0.935  0.00  0.00    +0.120 A 
ATOM     13  N   UNL     1       0.044  -4.797  -0.395  0.00  0.00    -0.264 N 
ATOM     14  N   UNL     1       0.062  -6.190  -0.543  0.00  0.00    -0.178 NA
ATOM     15  H   UNL     1       0.022  -4.146  -1.113  0.00  0.00    +0.190 HD
ENDBRANCH   1  12
BRANCH   6  16
ATOM     16  N   UNL     1      -0.063  -5.195   5.790  0.00  0.00    -0.319 N 
ATOM     17  H   UNL     1      -0.128  -5.100   6.753  0.00  0.00    +0.148 HD
BRANCH  16  18
ATOM     18  C   UNL     1       0.065  -6.526   5.192  0.00  0.00    +0.117 C 
ATOM     19  C   UNL     1      -1.318  -7.037   4.783  0.00  0.00    +0.034 C 
BRANCH  18  20
ATOM     20  C   UNL     1       0.673  -7.472   6.196  0.00  0.00    +0.061 A 
ATOM     21  C   UNL     1       1.363  -8.585   5.755  0.00  0.00    +0.028 A 
ATOM     22  C   UNL     1       1.919  -9.449   6.685  0.00  0.00    +0.042 A 
ATOM     23  C   UNL     1       1.759  -9.159   8.034  0.00  0.00    +0.141 A 
ATOM     24  C   UNL     1       1.055  -8.024   8.400  0.00  0.00    +0.149 A 
ATOM     25  N   UNL     1       0.545  -7.223   7.485  0.00  0.00    -0.255 NA
ATOM     26  F   UNL     1       2.283  -9.972   8.976  0.00  0.00    -0.204 F 
ENDBRANCH  18  20
ENDBRANCH  16  18
ENDBRANCH   6  16
BRANCH   5  27
ATOM     27  C   UNL     1      -0.310  -2.650   6.973  0.00  0.00    +0.123 C 
ATOM     28  N   UNL     1      -0.386  -2.534   8.101  0.00  0.00    -0.189 NA
ENDBRANCH   5  27
TORSDOF 5
