REMARK  Name = CHEMBL604038
REMARK  2 active torsions:
REMARK  status: ('A' for Active; 'I' for Inactive)
REMARK    1  A    between atoms: C_17  and  C_19
REMARK    2  A    between atoms: C_22  and  O_26
REMARK                            x       y       z     vdW  Elec       q    Type
REMARK                         _______ _______ _______ _____ _____    ______ ____
ROOT
ATOM      1  C   UNL     1      -0.314   0.945  -0.134  0.00  0.00    +0.001 A 
ATOM      2  C   UNL     1       0.800   1.765  -0.065  0.00  0.00    +0.002 A 
ATOM      3  C   UNL     1       2.063   1.213  -0.044  0.00  0.00    +0.023 A 
ATOM      4  C   UNL     1       2.237  -0.165  -0.087  0.00  0.00    +0.037 A 
ATOM      5  C   UNL     1       1.105  -1.008  -0.142  0.00  0.00    +0.022 A 
ATOM      6  C   UNL     1      -0.166  -0.422  -0.173  0.00  0.00    +0.012 A 
ATOM      7  C   UNL     1       1.199  -2.475  -0.146  0.00  0.00    +0.085 A 
ATOM      8  C   UNL     1       2.251  -3.197  -0.719  0.00  0.00    +0.050 A 
ATOM      9  C   UNL     1       3.569  -2.822  -1.219  0.00  0.00    +0.006 A 
ATOM     10  C   UNL     1       4.156  -3.944  -1.656  0.00  0.00    +0.091 A 
ATOM     11  N   UNL     1       3.317  -5.018  -1.455  0.00  0.00    -0.345 N 
ATOM     12  H   UNL     1       3.506  -5.929  -1.726  0.00  0.00    +0.167 HD
ATOM     13  C   UNL     1       2.190  -4.611  -0.822  0.00  0.00    +0.142 A 
ATOM     14  N   UNL     1       1.151  -5.257  -0.290  0.00  0.00    -0.218 NA
ATOM     15  C   UNL     1       0.223  -4.535   0.316  0.00  0.00    +0.224 A 
ATOM     16  N   UNL     1       0.223  -3.219   0.393  0.00  0.00    -0.235 NA
ATOM     17  C   UNL     1       4.092  -1.423  -1.201  0.00  0.00    +0.136 C 
ATOM     18  N   UNL     1       3.502  -0.699  -0.092  0.00  0.00    -0.332 N 
ATOM     19  H   UNL     1       4.041  -0.582   0.705  0.00  0.00    +0.147 HD
ENDROOT
BRANCH  17  20
ATOM     20  C   UNL     1       3.735  -0.738  -2.495  0.00  0.00    +0.013 A 
ATOM     21  C   UNL     1       2.762  -1.276  -3.316  0.00  0.00    +0.012 A 
ATOM     22  C   UNL     1       2.433  -0.650  -4.503  0.00  0.00    +0.046 A 
ATOM     23  C   UNL     1       3.079   0.521  -4.872  0.00  0.00    +0.120 A 
ATOM     24  C   UNL     1       4.056   1.061  -4.048  0.00  0.00    +0.084 A 
ATOM     25  C   UNL     1       4.378   0.434  -2.857  0.00  0.00    +0.132 A 
ATOM     26  F   UNL     1       5.325   0.962  -2.051  0.00  0.00    -0.205 F 
BRANCH  23  27
ATOM     27  O   UNL     1       2.757   1.137  -6.039  0.00  0.00    -0.507 OA
ATOM     28  H   UNL     1       2.047   1.789  -5.957  0.00  0.00    +0.292 HD
ENDBRANCH  23  27
ENDBRANCH  17  20
TORSDOF 2
