REMARK  Name = CHEMBL221037
REMARK  5 active torsions:
REMARK  status: ('A' for Active; 'I' for Inactive)
REMARK    1  A    between atoms: C_1  and  C_2
REMARK    2  A    between atoms: C_2  and  C_4
REMARK    3  A    between atoms: C_2  and  N_10
REMARK    4  A    between atoms: C_13  and  N_26
REMARK    5  A    between atoms: C_29  and  O_32
REMARK                            x       y       z     vdW  Elec       q    Type
REMARK                         _______ _______ _______ _____ _____    ______ ____
ROOT
ATOM      1  N   UNL     1      -1.372  -0.511   0.012  0.00  0.00    -0.322 N 
ATOM      2  C   UNL     1      -2.070  -0.646  -1.178  0.00  0.00    +0.126 A 
ATOM      3  C   UNL     1      -1.472  -0.309  -2.388  0.00  0.00    +0.087 A 
ATOM      4  C   UNL     1      -2.212  -0.461  -3.557  0.00  0.00    +0.128 A 
ATOM      5  N   UNL     1      -3.459  -0.922  -3.479  0.00  0.00    -0.197 NA
ATOM      6  C   UNL     1      -3.994  -1.233  -2.310  0.00  0.00    +0.240 A 
ATOM      7  N   UNL     1      -3.319  -1.106  -1.179  0.00  0.00    -0.197 NA
ATOM      8  N   UNL     1      -5.301  -1.712  -2.269  0.00  0.00    -0.267 N 
ATOM      9  C   UNL     1      -6.124  -1.911  -3.338  0.00  0.00    +0.182 A 
ATOM     10  N   UNL     1      -7.276  -2.367  -2.938  0.00  0.00    -0.345 N 
ATOM     11  C   UNL     1      -7.274  -2.493  -1.590  0.00  0.00    +0.067 A 
ATOM     12  C   UNL     1      -6.005  -2.080  -1.138  0.00  0.00    +0.092 A 
ATOM     13  C   UNL     1      -5.731  -2.116   0.219  0.00  0.00    +0.139 A 
ATOM     14  N   UNL     1      -6.648  -2.534   1.070  0.00  0.00    -0.261 NA
ATOM     15  C   UNL     1      -7.847  -2.930   0.679  0.00  0.00    +0.113 A 
ATOM     16  C   UNL     1      -8.206  -2.921  -0.639  0.00  0.00    +0.047 A 
ATOM     17  H   UNL     1      -1.794  -0.752   0.852  0.00  0.00    +0.148 HD
ATOM     18  H   UNL     1      -8.022  -2.584  -3.518  0.00  0.00    +0.167 HD
ENDROOT
BRANCH   4  19
ATOM     19  N   UNL     1      -1.659  -0.138  -4.786  0.00  0.00    -0.312 N 
ATOM     20  C   UNL     1      -2.369  -0.149  -6.078  0.00  0.00    +0.109 C 
ATOM     21  C   UNL     1      -1.576   0.835  -6.975  0.00  0.00    +0.052 C 
ATOM     22  C   UNL     1      -0.117   0.557  -6.527  0.00  0.00    +0.133 C 
ATOM     23  C   UNL     1      -0.268   0.280  -5.016  0.00  0.00    +0.137 C 
BRANCH  22  24
ATOM     24  O   UNL     1       0.707   1.703  -6.751  0.00  0.00    -0.390 OA
ATOM     25  H   UNL     1       0.770   1.967  -7.679  0.00  0.00    +0.210 HD
ENDBRANCH  22  24
ENDBRANCH   4  19
BRANCH   1  27
ATOM     26  C   UNL     1      -0.019   1.526   0.010  0.00  0.00    +0.033 C 
ATOM     27  C   UNL     1       0.002  -0.004   0.002  0.00  0.00    +0.099 C 
BRANCH  27  28
ATOM     28  C   UNL     1       0.731  -0.503   1.223  0.00  0.00    -0.028 A 
ATOM     29  C   UNL     1       0.081  -0.558   2.442  0.00  0.00    +0.005 A 
ATOM     30  C   UNL     1       0.749  -1.016   3.562  0.00  0.00    +0.000 A 
ATOM     31  C   UNL     1       2.068  -1.420   3.463  0.00  0.00    +0.000 A 
ATOM     32  C   UNL     1       2.718  -1.365   2.244  0.00  0.00    +0.000 A 
ATOM     33  C   UNL     1       2.048  -0.911   1.123  0.00  0.00    +0.005 A 
ENDBRANCH  27  28
ENDBRANCH   1  27
TORSDOF 4
