REMARK  Name = CHEMBL591096
REMARK  2 active torsions:
REMARK  status: ('A' for Active; 'I' for Inactive)
REMARK    1  A    between atoms: C_17  and  C_19
REMARK    2  A    between atoms: C_22  and  O_26
REMARK                            x       y       z     vdW  Elec       q    Type
REMARK                         _______ _______ _______ _____ _____    ______ ____
ROOT
ATOM      1  C   UNL     1       0.334   1.783  -0.107  0.00  0.00    +0.001 A 
ATOM      2  C   UNL     1       1.582   2.378  -0.038  0.00  0.00    +0.002 A 
ATOM      3  C   UNL     1       2.717   1.596  -0.003  0.00  0.00    +0.023 A 
ATOM      4  C   UNL     1       2.626   0.211  -0.042  0.00  0.00    +0.036 A 
ATOM      5  C   UNL     1       1.357  -0.402  -0.132  0.00  0.00    +0.004 A 
ATOM      6  C   UNL     1       0.221   0.413  -0.152  0.00  0.00    +0.010 A 
ATOM      7  C   UNL     1       1.177  -1.859  -0.232  0.00  0.00    -0.004 A 
ATOM      8  C   UNL     1       0.082  -2.388  -0.931  0.00  0.00    +0.029 A 
ATOM      9  C   UNL     1      -0.140  -3.750  -0.947  0.00  0.00    +0.114 A 
ATOM     10  N   UNL     1       0.628  -4.627  -0.319  0.00  0.00    -0.237 NA
ATOM     11  C   UNL     1       1.701  -4.190   0.334  0.00  0.00    +0.139 A 
ATOM     12  C   UNL     1       2.020  -2.808   0.358  0.00  0.00    +0.032 A 
ATOM     13  C   UNL     1       3.332  -2.717   0.991  0.00  0.00    +0.004 A 
ATOM     14  C   UNL     1       3.661  -3.951   1.393  0.00  0.00    +0.091 A 
ATOM     15  N   UNL     1       2.666  -4.835   1.047  0.00  0.00    -0.345 N 
ATOM     16  H   UNL     1       2.652  -5.777   1.277  0.00  0.00    +0.167 HD
ATOM     17  C   UNL     1       4.100  -1.443   1.120  0.00  0.00    +0.133 C 
ATOM     18  N   UNL     1       3.763  -0.557   0.024  0.00  0.00    -0.332 N 
ATOM     19  H   UNL     1       4.386  -0.502  -0.717  0.00  0.00    +0.147 HD
ENDROOT
BRANCH  17  20
ATOM     20  C   UNL     1       3.753  -0.778   2.427  0.00  0.00    -0.020 A 
ATOM     21  C   UNL     1       2.441  -0.441   2.703  0.00  0.00    +0.009 A 
ATOM     22  C   UNL     1       2.119   0.170   3.900  0.00  0.00    +0.049 A 
ATOM     23  C   UNL     1       3.113   0.443   4.827  0.00  0.00    +0.152 A 
ATOM     24  C   UNL     1       4.431   0.103   4.549  0.00  0.00    +0.165 A 
ATOM     25  C   UNL     1       4.747  -0.512   3.351  0.00  0.00    +0.048 A 
ATOM     26  F   UNL     1       5.403   0.368   5.450  0.00  0.00    -0.202 F 
BRANCH  23  27
ATOM     27  O   UNL     1       2.799   1.044   6.006  0.00  0.00    -0.504 OA
ATOM     28  H   UNL     1       2.581   0.425   6.716  0.00  0.00    +0.292 HD
ENDBRANCH  23  27
ENDBRANCH  17  20
TORSDOF 2
