REMARK  Name = CHEMBL571118
REMARK  4 active torsions:
REMARK  status: ('A' for Active; 'I' for Inactive)
REMARK    1  A    between atoms: C_1  and  O_2
REMARK    2  A    between atoms: O_2  and  C_3
REMARK    3  A    between atoms: C_3  and  C_5
REMARK    4  A    between atoms: C_12  and  C_16
REMARK                            x       y       z     vdW  Elec       q    Type
REMARK                         _______ _______ _______ _____ _____    ______ ____
ROOT
ATOM      1  C   UNL     1      -1.252  -2.112   0.029  0.00  0.00    +0.116 C 
ATOM      2  C   UNL     1      -0.686  -2.689   1.353  0.00  0.00    +0.035 C 
ATOM      3  C   UNL     1      -1.421  -4.050   1.439  0.00  0.00    +0.107 C 
ATOM      4  N   UNL     1      -2.773  -3.782   0.917  0.00  0.00    -0.314 N 
ATOM      5  C   UNL     1      -2.713  -2.609   0.032  0.00  0.00    +0.121 C 
ATOM      6  C   UNL     1      -3.913  -4.515   1.211  0.00  0.00    +0.125 A 
ATOM      7  C   UNL     1      -3.870  -5.541   2.148  0.00  0.00    +0.072 A 
ATOM      8  C   UNL     1      -5.046  -6.249   2.408  0.00  0.00    +0.083 A 
ATOM      9  N   UNL     1      -6.160  -5.914   1.750  0.00  0.00    -0.235 NA
ATOM     10  C   UNL     1      -6.155  -4.935   0.870  0.00  0.00    +0.223 A 
ATOM     11  N   UNL     1      -5.067  -4.242   0.603  0.00  0.00    -0.221 NA
ENDROOT
BRANCH   8  12
ATOM     12  C   UNL     1      -5.058  -7.348   3.393  0.00  0.00    +0.086 A 
ATOM     13  C   UNL     1      -6.185  -8.073   3.823  0.00  0.00    +0.150 A 
ATOM     14  N   UNL     1      -5.796  -8.969   4.703  0.00  0.00    -0.150 NA
ATOM     15  N   UNL     1      -4.412  -8.870   4.885  0.00  0.00    -0.219 N 
ATOM     16  C   UNL     1      -3.947  -7.870   4.073  0.00  0.00    +0.167 A 
ATOM     17  N   UNL     1      -2.648  -7.563   4.045  0.00  0.00    -0.235 NA
ATOM     18  C   UNL     1      -1.785  -8.214   4.793  0.00  0.00    +0.114 A 
ATOM     19  C   UNL     1      -2.221  -9.245   5.635  0.00  0.00    +0.039 A 
ATOM     20  C   UNL     1      -3.541  -9.559   5.675  0.00  0.00    +0.116 A 
ATOM     21  N   UNL     1      -7.494  -7.874   3.389  0.00  0.00    -0.341 N 
ATOM     22  H   UNL     1      -7.679  -7.237   2.681  0.00  0.00    +0.144 HD
ATOM     23  H   UNL     1      -8.221  -8.373   3.794  0.00  0.00    +0.144 HD
ENDBRANCH   8  12
BRANCH   1  24
ATOM     24  C   UNL     1      -1.201  -0.606   0.039  0.00  0.00    +0.312 C 
ATOM     25  O   UNL     1      -2.226   0.033   0.047  0.00  0.00    -0.250 OA
BRANCH  24  27
ATOM     26  C   UNL     1      -0.043   1.454   0.047  0.00  0.00    +0.280 C 
ATOM     27  O   UNL     1      -0.016   0.025   0.037  0.00  0.00    -0.468 OA
ENDBRANCH  24  27
ENDBRANCH   1  24
TORSDOF 3
