REMARK  Name = CHEMBL595397
REMARK  4 active torsions:
REMARK  status: ('A' for Active; 'I' for Inactive)
REMARK    1  A    between atoms: C_1  and  O_2
REMARK    2  A    between atoms: O_2  and  C_3
REMARK    3  A    between atoms: C_3  and  C_5
REMARK    4  A    between atoms: C_5  and  C_6
REMARK                            x       y       z     vdW  Elec       q    Type
REMARK                         _______ _______ _______ _____ _____    ______ ____
ROOT
ATOM      1  C   UNL     1       1.385  -2.521  -2.400  0.00  0.00    +0.113 C 
ATOM      2  C   UNL     1       1.556  -4.004  -2.413  0.00  0.00    +0.000 A 
ATOM      3  C   UNL     1       2.550  -4.747  -1.909  0.00  0.00    +0.090 A 
ATOM      4  N   UNL     1       2.307  -6.078  -2.152  0.00  0.00    -0.345 N 
ATOM      5  H   UNL     1       2.872  -6.810  -1.859  0.00  0.00    +0.167 HD
ATOM      6  C   UNL     1       1.155  -6.218  -2.864  0.00  0.00    +0.139 A 
ATOM      7  C   UNL     1       0.591  -4.924  -3.005  0.00  0.00    +0.031 A 
ATOM      8  C   UNL     1      -0.634  -4.735  -3.655  0.00  0.00    -0.004 A 
ATOM      9  C   UNL     1      -1.184  -5.885  -4.240  0.00  0.00    +0.029 A 
ATOM     10  C   UNL     1      -0.560  -7.107  -4.087  0.00  0.00    +0.114 A 
ATOM     11  N   UNL     1       0.562  -7.278  -3.406  0.00  0.00    -0.237 NA
ATOM     12  C   UNL     1      -1.385  -3.469  -3.672  0.00  0.00    +0.004 A 
ATOM     13  C   UNL     1      -2.782  -3.524  -3.714  0.00  0.00    +0.010 A 
ATOM     14  C   UNL     1      -3.533  -2.371  -3.751  0.00  0.00    +0.001 A 
ATOM     15  C   UNL     1      -2.911  -1.134  -3.749  0.00  0.00    +0.002 A 
ATOM     16  C   UNL     1      -1.536  -1.054  -3.699  0.00  0.00    +0.023 A 
ATOM     17  C   UNL     1      -0.759  -2.204  -3.650  0.00  0.00    +0.035 A 
ATOM     18  N   UNL     1       0.609  -2.107  -3.551  0.00  0.00    -0.336 N 
ATOM     19  H   UNL     1       1.089  -1.736  -4.308  0.00  0.00    +0.147 HD
ENDROOT
BRANCH   1  20
ATOM     20  C   UNL     1       0.657  -2.104  -1.120  0.00  0.00    +0.147 C 
BRANCH  20  21
ATOM     21  C   UNL     1       0.598  -0.600  -1.043  0.00  0.00    +0.309 C 
ATOM     22  O   UNL     1       1.088   0.070  -1.921  0.00  0.00    -0.251 OA
BRANCH  21  24
ATOM     23  C   UNL     1      -0.017   1.425   0.010  0.00  0.00    +0.280 C 
ATOM     24  O   UNL     1       0.002  -0.004   0.002  0.00  0.00    -0.468 OA
ENDBRANCH  21  24
ENDBRANCH  20  21
ENDBRANCH   1  20
TORSDOF 3
