REMARK  Name = CHEMBL604038
REMARK  2 active torsions:
REMARK  status: ('A' for Active; 'I' for Inactive)
REMARK    1  A    between atoms: C_17  and  C_19
REMARK    2  A    between atoms: C_22  and  O_26
REMARK                            x       y       z     vdW  Elec       q    Type
REMARK                         _______ _______ _______ _____ _____    ______ ____
ROOT
ATOM      1  C   UNL     1       0.185   1.619  -0.067  0.00  0.00    +0.001 A 
ATOM      2  C   UNL     1       1.411   2.264  -0.029  0.00  0.00    +0.002 A 
ATOM      3  C   UNL     1       2.576   1.528  -0.010  0.00  0.00    +0.023 A 
ATOM      4  C   UNL     1       2.540   0.139  -0.033  0.00  0.00    +0.037 A 
ATOM      5  C   UNL     1       1.295  -0.524  -0.087  0.00  0.00    +0.022 A 
ATOM      6  C   UNL     1       0.126   0.245  -0.095  0.00  0.00    +0.012 A 
ATOM      7  C   UNL     1       1.169  -1.988  -0.159  0.00  0.00    +0.085 A 
ATOM      8  C   UNL     1       2.064  -2.885   0.432  0.00  0.00    +0.050 A 
ATOM      9  C   UNL     1       3.389  -2.739   1.024  0.00  0.00    +0.006 A 
ATOM     10  C   UNL     1       3.773  -3.955   1.431  0.00  0.00    +0.091 A 
ATOM     11  N   UNL     1       2.799  -4.879   1.125  0.00  0.00    -0.345 N 
ATOM     12  H   UNL     1       2.833  -5.820   1.356  0.00  0.00    +0.167 HD
ATOM     13  C   UNL     1       1.787  -4.277   0.454  0.00  0.00    +0.142 A 
ATOM     14  N   UNL     1       0.700  -4.733  -0.169  0.00  0.00    -0.218 NA
ATOM     15  C   UNL     1      -0.071  -3.851  -0.786  0.00  0.00    +0.224 A 
ATOM     16  N   UNL     1       0.130  -2.549  -0.790  0.00  0.00    -0.235 NA
ATOM     17  C   UNL     1       4.114  -1.435   1.112  0.00  0.00    +0.136 C 
ATOM     18  N   UNL     1       3.709  -0.580   0.014  0.00  0.00    -0.332 N 
ATOM     19  H   UNL     1       4.309  -0.511  -0.745  0.00  0.00    +0.147 HD
ENDROOT
BRANCH  17  20
ATOM     20  C   UNL     1       3.782  -0.764   2.420  0.00  0.00    +0.013 A 
ATOM     21  C   UNL     1       2.689  -1.186   3.155  0.00  0.00    +0.012 A 
ATOM     22  C   UNL     1       2.383  -0.572   4.354  0.00  0.00    +0.046 A 
ATOM     23  C   UNL     1       3.172   0.469   4.822  0.00  0.00    +0.120 A 
ATOM     24  C   UNL     1       4.267   0.892   4.084  0.00  0.00    +0.084 A 
ATOM     25  C   UNL     1       4.575   0.271   2.886  0.00  0.00    +0.132 A 
ATOM     26  F   UNL     1       5.645   0.678   2.169  0.00  0.00    -0.205 F 
BRANCH  23  27
ATOM     27  O   UNL     1       2.871   1.074   6.001  0.00  0.00    -0.507 OA
ATOM     28  H   UNL     1       3.295   0.669   6.770  0.00  0.00    +0.292 HD
ENDBRANCH  23  27
ENDBRANCH  17  20
TORSDOF 2
