REMARK  Name = CHEMBL218439
REMARK  3 active torsions:
REMARK  status: ('A' for Active; 'I' for Inactive)
REMARK    1  A    between atoms: C_1  and  N_2
REMARK    2  A    between atoms: C_10  and  O_23
REMARK    3  A    between atoms: O_23  and  C_24
REMARK                            x       y       z     vdW  Elec       q    Type
REMARK                         _______ _______ _______ _____ _____    ______ ____
ROOT
ATOM      1  C   UNL     1      -0.295   1.769   0.747  0.00  0.00    -0.096 C 
ATOM      2  N   UNL     1      -0.257   0.315   0.538  0.00  0.00    +0.380 N 
ATOM      3  C   UNL     1      -1.624  -0.219   0.578  0.00  0.00    -0.060 C 
ATOM      4  C   UNL     1      -1.597  -1.715   0.247  0.00  0.00    +0.088 C 
ATOM      5  N   UNL     1      -0.659  -2.379   1.166  0.00  0.00    -0.318 N 
ATOM      6  C   UNL     1       0.689  -1.808   1.312  0.00  0.00    +0.088 C 
ATOM      7  C   UNL     1       0.554  -0.308   1.592  0.00  0.00    -0.060 C 
ATOM      8  C   UNL     1      -1.034  -3.509   1.875  0.00  0.00    +0.130 A 
ATOM      9  C   UNL     1      -2.273  -4.104   1.649  0.00  0.00    +0.111 A 
ATOM     10  C   UNL     1      -2.607  -5.236   2.383  0.00  0.00    +0.227 A 
ATOM     11  N   UNL     1      -1.738  -5.710   3.271  0.00  0.00    -0.176 NA
ATOM     12  C   UNL     1      -0.570  -5.119   3.460  0.00  0.00    +0.241 A 
ATOM     13  N   UNL     1      -0.215  -4.044   2.776  0.00  0.00    -0.197 NA
ATOM     14  N   UNL     1       0.313  -5.647   4.399  0.00  0.00    -0.267 N 
ATOM     15  C   UNL     1       1.501  -5.102   4.788  0.00  0.00    +0.182 A 
ATOM     16  N   UNL     1       2.067  -5.859   5.684  0.00  0.00    -0.345 N 
ATOM     17  C   UNL     1       1.287  -6.936   5.932  0.00  0.00    +0.067 A 
ATOM     18  C   UNL     1       0.145  -6.817   5.116  0.00  0.00    +0.092 A 
ATOM     19  C   UNL     1      -0.830  -7.798   5.177  0.00  0.00    +0.139 A 
ATOM     20  N   UNL     1      -0.688  -8.825   5.992  0.00  0.00    -0.261 NA
ATOM     21  C   UNL     1       0.369  -8.966   6.773  0.00  0.00    +0.113 A 
ATOM     22  C   UNL     1       1.384  -8.050   6.773  0.00  0.00    +0.047 A 
ATOM     23  H   UNL     1       2.920  -5.678   6.110  0.00  0.00    +0.167 HD
ATOM     24  H   UNL     1       0.153   0.116  -0.362  0.00  0.00    -0.082 HD
ENDROOT
BRANCH  10  25
ATOM     25  O   UNL     1      -3.801  -5.848   2.196  0.00  0.00    -0.436 OA
BRANCH  25  26
ATOM     26  C   UNL     1      -4.447  -6.335   3.289  0.00  0.00    +0.149 A 
ATOM     27  C   UNL     1      -3.942  -6.094   4.559  0.00  0.00    +0.048 A 
ATOM     28  C   UNL     1      -4.599  -6.590   5.668  0.00  0.00    +0.004 A 
ATOM     29  C   UNL     1      -5.759  -7.326   5.514  0.00  0.00    +0.002 A 
ATOM     30  C   UNL     1      -6.265  -7.569   4.251  0.00  0.00    +0.024 A 
ATOM     31  C   UNL     1      -5.615  -7.069   3.137  0.00  0.00    +0.083 A 
ATOM     32 CL   UNL     1      -6.254  -7.367   1.551  0.00  0.00    -0.080 Cl
ENDBRANCH  25  26
ENDBRANCH  10  25
TORSDOF 2
