REMARK  Name = CHEMBL1092063
REMARK  7 active torsions:
REMARK  status: ('A' for Active; 'I' for Inactive)
REMARK    1  A    between atoms: C_1  and  C_2
REMARK    2  A    between atoms: C_4  and  C_17
REMARK    3  A    between atoms: C_7  and  C_8
REMARK    4  A    between atoms: N_13  and  C_16
REMARK    5  A    between atoms: C_24  and  C_27
REMARK    6  A    between atoms: C_30  and  C_33
REMARK    7  A    between atoms: C_33  and  N_34
REMARK                            x       y       z     vdW  Elec       q    Type
REMARK                         _______ _______ _______ _____ _____    ______ ____
ROOT
ATOM      1  C   UNL     1      -0.211  -2.863  -2.451  0.00  0.00    +0.090 A 
ATOM      2  C   UNL     1      -0.539  -2.178  -3.635  0.00  0.00    +0.139 A 
ATOM      3  N   UNL     1      -0.644  -2.823  -4.772  0.00  0.00    -0.251 NA
ATOM      4  C   UNL     1      -0.438  -4.146  -4.809  0.00  0.00    +0.090 A 
ATOM      5  C   UNL     1      -0.545  -4.858  -6.016  0.00  0.00    +0.030 A 
ATOM      6  C   UNL     1      -0.332  -6.203  -6.037  0.00  0.00    +0.003 A 
ATOM      7  C   UNL     1      -0.007  -6.899  -4.878  0.00  0.00    +0.011 A 
ATOM      8  C   UNL     1       0.109  -6.238  -3.668  0.00  0.00    +0.010 A 
ATOM      9  C   UNL     1      -0.107  -4.838  -3.618  0.00  0.00    +0.098 A 
ATOM     10  N   UNL     1       0.001  -4.168  -2.470  0.00  0.00    -0.243 NA
ENDROOT
BRANCH   1  14
ATOM     11  C   UNL     1      -0.665   1.398   0.105  0.00  0.00    +0.044 C 
ATOM     12  C   UNL     1      -0.315  -0.067   0.055  0.00  0.00    -0.038 A 
ATOM     13  C   UNL     1      -0.421  -0.761  -1.130  0.00  0.00    +0.014 A 
ATOM     14  C   UNL     1      -0.097  -2.117  -1.176  0.00  0.00    +0.002 A 
ATOM     15  C   UNL     1       0.335  -2.772  -0.021  0.00  0.00    +0.011 A 
ATOM     16  C   UNL     1       0.441  -2.079   1.164  0.00  0.00    +0.014 A 
ATOM     17  C   UNL     1       0.122  -0.720   1.210  0.00  0.00    +0.040 A 
BRANCH  17  18
ATOM     18  C   UNL     1       0.243   0.025   2.480  0.00  0.00    +0.247 C 
ATOM     19  O   UNL     1      -0.679   0.715   2.870  0.00  0.00    -0.270 OA
ATOM     20  N   UNL     1       1.375  -0.059   3.207  0.00  0.00    -0.301 N 
ATOM     21  C   UNL     1       2.550  -0.779   2.694  0.00  0.00    +0.089 C 
ATOM     22  C   UNL     1       3.775   0.132   2.827  0.00  0.00    -0.060 C 
ATOM     23  N   UNL     1       3.900   0.582   4.220  0.00  0.00    +0.380 N 
ATOM     24  C   UNL     1       2.746   1.415   4.581  0.00  0.00    -0.060 C 
ATOM     25  C   UNL     1       1.472   0.572   4.532  0.00  0.00    +0.089 C 
ATOM     26  C   UNL     1       5.133   1.365   4.371  0.00  0.00    -0.096 C 
ATOM     27  H   UNL     1       3.937  -0.221   4.829  0.00  0.00    -0.082 HD
ENDBRANCH  17  18
ENDBRANCH   1  14
BRANCH   8  28
ATOM     28  C   UNL     1       0.457  -6.986  -2.438  0.00  0.00    -0.016 A 
ATOM     29  C   UNL     1       1.484  -6.533  -1.610  0.00  0.00    +0.009 A 
ATOM     30  C   UNL     1       1.802  -7.234  -0.465  0.00  0.00    +0.005 A 
ATOM     31  C   UNL     1       1.105  -8.383  -0.138  0.00  0.00    -0.033 A 
ATOM     32  C   UNL     1       0.085  -8.837  -0.955  0.00  0.00    +0.005 A 
ATOM     33  C   UNL     1      -0.246  -8.142  -2.100  0.00  0.00    +0.009 A 
BRANCH  31  34
ATOM     34  C   UNL     1       1.458  -9.144   1.114  0.00  0.00    +0.119 C 
BRANCH  34  35
ATOM     35  N   UNL     1       0.662  -8.635   2.239  0.00  0.00    -0.295 NA
ATOM     36  C   UNL     1       0.994  -7.237   2.526  0.00  0.00    +0.107 C 
ATOM     37  C   UNL     1      -0.115  -6.602   3.372  0.00  0.00    +0.181 C 
ATOM     38  S   UNL     1      -0.215  -7.492   4.955  0.00  0.00    -0.029 S 
ATOM     39  O   UNL     1      -1.430  -7.135   5.599  0.00  0.00    -0.174 OA
ATOM     40  O   UNL     1       1.014  -7.322   5.649  0.00  0.00    -0.174 OA
ATOM     41  C   UNL     1      -0.338  -9.220   4.401  0.00  0.00    +0.181 C 
ATOM     42  C   UNL     1       0.800  -9.498   3.414  0.00  0.00    +0.107 C 
ENDBRANCH  34  35
ENDBRANCH  31  34
ENDBRANCH   8  28
TORSDOF 5
