REMARK  Name = CHEMBL382752
REMARK  3 active torsions:
REMARK  status: ('A' for Active; 'I' for Inactive)
REMARK    1  A    between atoms: C_8  and  C_10
REMARK    2  A    between atoms: N_16  and  C_17
REMARK    3  A    between atoms: C_20  and  C_23
REMARK                            x       y       z     vdW  Elec       q    Type
REMARK                         _______ _______ _______ _____ _____    ______ ____
ROOT
ATOM      1  C   UNL     1      -0.929  -5.261   0.971  0.00  0.00    +0.083 A 
ATOM      2  C   UNL     1      -1.629  -6.173   1.770  0.00  0.00    +0.049 A 
ATOM      3  C   UNL     1      -1.139  -7.461   1.881  0.00  0.00    +0.116 A 
ATOM      4  N   UNL     1      -0.031  -7.792   1.235  0.00  0.00    -0.223 NA
ATOM      5  C   UNL     1       0.612  -6.908   0.485  0.00  0.00    +0.220 A 
ATOM      6  N   UNL     1       0.176  -5.666   0.345  0.00  0.00    -0.214 NA
ATOM      7  N   UNL     1       1.767  -7.296  -0.174  0.00  0.00    -0.284 N 
ATOM      8  H   UNL     1       2.259  -6.654  -0.709  0.00  0.00    +0.155 HD
ENDROOT
BRANCH   1  16
ATOM      9  C   UNL     1      -1.855   0.748  -0.492  0.00  0.00    +0.001 A 
ATOM     10  C   UNL     1      -3.004   0.802   0.287  0.00  0.00    +0.001 A 
ATOM     11  C   UNL     1      -3.418  -0.325   0.969  0.00  0.00    +0.015 A 
ATOM     12  C   UNL     1      -2.685  -1.488   0.867  0.00  0.00    +0.020 A 
ATOM     13  C   UNL     1      -1.512  -1.570   0.082  0.00  0.00    -0.010 A 
ATOM     14  C   UNL     1      -1.123  -0.392  -0.601  0.00  0.00    +0.009 A 
ATOM     15  C   UNL     1      -0.865  -2.870   0.089  0.00  0.00    +0.026 A 
ATOM     16  C   UNL     1      -1.411  -3.873   0.819  0.00  0.00    +0.039 A 
ATOM     17  S   UNL     1      -2.849  -3.117   1.552  0.00  0.00    -0.087 S 
ENDBRANCH   1  16
BRANCH   7  18
ATOM     18  C   UNL     1       2.222  -8.608  -0.069  0.00  0.00    +0.034 A 
ATOM     19  C   UNL     1       3.587  -8.865   0.013  0.00  0.00    +0.024 A 
ATOM     20  C   UNL     1       4.040 -10.161   0.117  0.00  0.00    +0.015 A 
ATOM     21  C   UNL     1       3.127 -11.219   0.141  0.00  0.00    +0.037 A 
ATOM     22  C   UNL     1       1.756 -10.957   0.059  0.00  0.00    +0.015 A 
ATOM     23  C   UNL     1       1.310  -9.659  -0.040  0.00  0.00    +0.024 A 
BRANCH  21  24
ATOM     24  C   UNL     1       3.609 -12.609   0.251  0.00  0.00    +0.247 C 
ATOM     25  O   UNL     1       4.788 -12.830   0.446  0.00  0.00    -0.270 OA
ATOM     26  N   UNL     1       2.741 -13.634   0.136  0.00  0.00    -0.298 N 
ATOM     27  C   UNL     1       1.280 -13.512   0.025  0.00  0.00    +0.108 C 
ATOM     28  C   UNL     1       0.706 -14.942  -0.058  0.00  0.00    +0.020 C 
ATOM     29  C   UNL     1       1.827 -15.804   0.580  0.00  0.00    +0.020 C 
ATOM     30  C   UNL     1       3.100 -15.063   0.095  0.00  0.00    +0.108 C 
ENDBRANCH  21  24
ENDBRANCH   7  18
TORSDOF 3
