REMARK  Name = CHEMBL200832
REMARK  8 active torsions:
REMARK  status: ('A' for Active; 'I' for Inactive)
REMARK    1  A    between atoms: C_1  and  N_2
REMARK    2  A    between atoms: N_2  and  C_3
REMARK    3  A    between atoms: N_2  and  C_4
REMARK    4  A    between atoms: C_4  and  C_5
REMARK    5  A    between atoms: C_5  and  N_6
REMARK    6  A    between atoms: C_7  and  C_9
REMARK    7  A    between atoms: C_12  and  N_15
REMARK    8  A    between atoms: C_20  and  C_22
REMARK                            x       y       z     vdW  Elec       q    Type
REMARK                         _______ _______ _______ _____ _____    ______ ____
ROOT
ATOM      1  N   UNL     1      -8.254  -5.819  -0.177  0.00  0.00    -0.284 N 
ATOM      2  C   UNL     1      -9.298  -5.001  -0.578  0.00  0.00    +0.220 A 
ATOM      3  N   UNL     1      -9.024  -3.800  -1.068  0.00  0.00    -0.223 NA
ATOM      4  C   UNL     1      -9.992  -2.987  -1.463  0.00  0.00    +0.116 A 
ATOM      5  C   UNL     1     -11.308  -3.402  -1.361  0.00  0.00    +0.049 A 
ATOM      6  C   UNL     1     -11.567  -4.675  -0.840  0.00  0.00    +0.083 A 
ATOM      7  N   UNL     1     -10.541  -5.441  -0.468  0.00  0.00    -0.214 NA
ATOM      8  H   UNL     1      -8.432  -6.730   0.104  0.00  0.00    +0.155 HD
ENDROOT
BRANCH   6   9
ATOM      9  C   UNL     1     -12.954  -5.165  -0.710  0.00  0.00    +0.039 A 
ATOM     10  C   UNL     1     -13.382  -6.356  -0.227  0.00  0.00    +0.026 A 
ATOM     11  C   UNL     1     -14.807  -6.631  -0.190  0.00  0.00    -0.010 A 
ATOM     12  C   UNL     1     -15.472  -7.796   0.268  0.00  0.00    +0.009 A 
ATOM     13  C   UNL     1     -16.827  -7.883   0.228  0.00  0.00    +0.001 A 
ATOM     14  C   UNL     1     -17.608  -6.843  -0.259  0.00  0.00    +0.001 A 
ATOM     15  C   UNL     1     -16.999  -5.690  -0.715  0.00  0.00    +0.015 A 
ATOM     16  C   UNL     1     -15.624  -5.588  -0.680  0.00  0.00    +0.020 A 
ATOM     17  S   UNL     1     -14.466  -4.327  -1.144  0.00  0.00    -0.087 S 
ENDBRANCH   6   9
BRANCH   1  21
ATOM     18  C   UNL     1      -4.352  -4.367  -0.176  0.00  0.00    +0.037 A 
ATOM     19  C   UNL     1      -5.417  -3.513   0.123  0.00  0.00    +0.015 A 
ATOM     20  C   UNL     1      -6.706  -3.996   0.121  0.00  0.00    +0.024 A 
ATOM     21  C   UNL     1      -6.949  -5.334  -0.177  0.00  0.00    +0.034 A 
ATOM     22  C   UNL     1      -5.890  -6.187  -0.474  0.00  0.00    +0.024 A 
ATOM     23  C   UNL     1      -4.600  -5.709  -0.481  0.00  0.00    +0.015 A 
BRANCH  18  25
ATOM     24  N   UNL     1      -2.731  -2.559   0.119  0.00  0.00    -0.313 N 
ATOM     25  C   UNL     1      -2.969  -3.853  -0.175  0.00  0.00    +0.244 C 
ATOM     26  O   UNL     1      -2.043  -4.596  -0.441  0.00  0.00    -0.270 OA
ATOM     27  H   UNL     1      -3.469  -1.967   0.330  0.00  0.00    +0.149 HD
BRANCH  24  28
ATOM     28  C   UNL     1      -1.358  -2.049   0.119  0.00  0.00    +0.086 C 
BRANCH  28  29
ATOM     29  C   UNL     1      -1.367  -0.563   0.483  0.00  0.00    -0.061 C 
BRANCH  29  31
ATOM     30  C   UNL     1      -0.007   1.400   0.715  0.00  0.00    -0.097 C 
ATOM     31  N   UNL     1       0.010  -0.051   0.484  0.00  0.00    +0.377 N 
ATOM     32  C   UNL     1       0.776  -0.707   1.551  0.00  0.00    -0.097 C 
ATOM     33  H   UNL     1       0.441  -0.244  -0.408  0.00  0.00    -0.083 HD
ENDBRANCH  29  31
ENDBRANCH  28  29
ENDBRANCH  24  28
ENDBRANCH  18  25
ENDBRANCH   1  21
TORSDOF 6
