REMARK  Name = CHEMBL1078971
REMARK  8 active torsions:
REMARK  status: ('A' for Active; 'I' for Inactive)
REMARK    1  A    between atoms: C_1  and  N_2
REMARK    2  A    between atoms: N_5  and  C_8
REMARK    3  A    between atoms: C_8  and  C_9
REMARK    4  A    between atoms: C_12  and  N_15
REMARK    5  A    between atoms: C_20  and  C_22
REMARK    6  A    between atoms: C_25  and  N_28
REMARK    7  A    between atoms: N_28  and  S_29
REMARK    8  A    between atoms: S_29  and  C_32
REMARK                            x       y       z     vdW  Elec       q    Type
REMARK                         _______ _______ _______ _____ _____    ______ ____
ROOT
ATOM      1  N   UNL     1       1.655  -6.057   5.820  0.00  0.00    -0.284 N 
ATOM      2  C   UNL     1       2.971  -5.774   6.147  0.00  0.00    +0.220 A 
ATOM      3  N   UNL     1       3.665  -4.949   5.376  0.00  0.00    -0.223 NA
ATOM      4  C   UNL     1       4.925  -4.653   5.655  0.00  0.00    +0.116 A 
ATOM      5  C   UNL     1       5.522  -5.216   6.768  0.00  0.00    +0.048 A 
ATOM      6  C   UNL     1       4.766  -6.083   7.562  0.00  0.00    +0.076 A 
ATOM      7  N   UNL     1       3.502  -6.331   7.224  0.00  0.00    -0.214 NA
ATOM      8  H   UNL     1       1.111  -6.591   6.419  0.00  0.00    +0.155 HD
ENDROOT
BRANCH   1  12
ATOM      9  C   UNL     1       0.037  -4.615   2.263  0.00  0.00    -0.064 A 
ATOM     10  C   UNL     1       1.372  -4.969   2.320  0.00  0.00    +0.003 A 
ATOM     11  C   UNL     1       1.912  -5.447   3.497  0.00  0.00    +0.023 A 
ATOM     12  C   UNL     1       1.112  -5.572   4.626  0.00  0.00    +0.034 A 
ATOM     13  C   UNL     1      -0.229  -5.216   4.566  0.00  0.00    +0.023 A 
ATOM     14  C   UNL     1      -0.761  -4.733   3.386  0.00  0.00    +0.003 A 
BRANCH   9  15
ATOM     15  C   UNL     1      -0.549  -4.093   0.976  0.00  0.00    -0.043 C 
BRANCH  15  20
ATOM     16  C   UNL     1       0.640   1.235  -0.420  0.00  0.00    +0.104 C 
ATOM     17  N   UNL     1       0.472  -0.222  -0.326  0.00  0.00    -0.309 NA
ATOM     18  C   UNL     1      -0.951  -0.587  -0.303  0.00  0.00    +0.065 C 
ATOM     19  C   UNL     1      -1.083  -2.111  -0.265  0.00  0.00    -0.063 C 
ATOM     20  N   UNL     1      -0.407  -2.632   0.931  0.00  0.00    +0.384 N 
ATOM     21  C   UNL     1       1.018  -2.280   0.882  0.00  0.00    -0.063 C 
ATOM     22  C   UNL     1       1.167  -0.757   0.853  0.00  0.00    +0.065 C 
ATOM     23  H   UNL     1      -0.825  -2.228   1.756  0.00  0.00    -0.081 HD
ENDBRANCH  15  20
ENDBRANCH   9  15
ENDBRANCH   1  12
BRANCH   6  24
ATOM     24  C   UNL     1       5.360  -6.712   8.765  0.00  0.00    +0.001 A 
ATOM     25  C   UNL     1       6.681  -6.437   9.117  0.00  0.00    +0.012 A 
ATOM     26  C   UNL     1       7.231  -7.023  10.236  0.00  0.00    +0.027 A 
ATOM     27  C   UNL     1       6.470  -7.888  11.015  0.00  0.00    +0.074 A 
ATOM     28  C   UNL     1       5.152  -8.163  10.666  0.00  0.00    +0.027 A 
ATOM     29  C   UNL     1       4.596  -7.575   9.551  0.00  0.00    +0.012 A 
BRANCH  27  30
ATOM     30  N   UNL     1       7.029  -8.479  12.147  0.00  0.00    -0.103 NA
BRANCH  30  31
ATOM     31  S   UNL     1       6.123  -9.509  13.075  0.00  0.00    +0.059 S 
ATOM     32  O   UNL     1       5.075  -8.702  13.595  0.00  0.00    -0.154 OA
ATOM     33  O   UNL     1       5.837 -10.609  12.223  0.00  0.00    -0.154 OA
ATOM     34  C   UNL     1       7.233 -10.028  14.413  0.00  0.00    +0.220 C 
ENDBRANCH  30  31
ENDBRANCH  27  30
ENDBRANCH   6  24
TORSDOF 6
