REMARK  Name = CHEMBL221959
REMARK  5 active torsions:
REMARK  status: ('A' for Active; 'I' for Inactive)
REMARK    1  A    between atoms: C_1  and  C_2
REMARK    2  A    between atoms: C_8  and  N_10
REMARK    3  A    between atoms: N_10  and  C_11
REMARK    4  A    between atoms: C_22  and  C_24
REMARK    5  A    between atoms: C_24  and  C_25
REMARK                            x       y       z     vdW  Elec       q    Type
REMARK                         _______ _______ _______ _____ _____    ______ ____
ROOT
ATOM      1  C   UNL     1      -0.163   1.429  -0.043  0.00  0.00    +0.009 C 
ATOM      2  C   UNL     1      -0.086  -0.098   0.004  0.00  0.00    +0.009 C 
ATOM      3  C   UNL     1      -1.500  -0.678   0.086  0.00  0.00    +0.024 C 
ATOM      4  C   UNL     1      -1.421  -2.208   0.099  0.00  0.00    +0.108 C 
ATOM      5  N   UNL     1      -0.533  -2.627   1.191  0.00  0.00    -0.299 N 
ATOM      6  C   UNL     1       0.820  -2.059   1.259  0.00  0.00    +0.130 C 
ATOM      7  C   UNL     1       0.716  -0.531   1.234  0.00  0.00    +0.095 C 
ATOM      8  C   UNL     1      -0.952  -3.514   2.115  0.00  0.00    +0.229 C 
ATOM      9  O   UNL     1      -0.209  -3.852   3.012  0.00  0.00    -0.274 OA
ENDROOT
BRANCH   7  10
ATOM     10  N   UNL     1       0.039  -0.067   2.447  0.00  0.00    -0.313 N 
ATOM     11  C   UNL     1      -1.301  -0.562   2.774  0.00  0.00    +0.131 C 
ATOM     12  C   UNL     1       0.665   0.838   3.285  0.00  0.00    +0.134 A 
ATOM     13  C   UNL     1      -0.014   1.391   4.382  0.00  0.00    +0.059 A 
ATOM     14  C   UNL     1      -1.356   1.255   4.946  0.00  0.00    +0.032 A 
ATOM     15  C   UNL     1      -1.408   2.056   6.023  0.00  0.00    +0.085 A 
ATOM     16  N   UNL     1      -0.204   2.691   6.188  0.00  0.00    -0.346 N 
ATOM     17  H   UNL     1       0.001   3.319   6.898  0.00  0.00    +0.167 HD
ATOM     18  C   UNL     1       0.667   2.307   5.205  0.00  0.00    +0.143 A 
ATOM     19  N   UNL     1       1.929   2.614   4.908  0.00  0.00    -0.218 NA
ATOM     20  C   UNL     1       2.525   2.071   3.869  0.00  0.00    +0.225 A 
ATOM     21  N   UNL     1       1.926   1.203   3.075  0.00  0.00    -0.220 NA
ENDBRANCH   7  10
BRANCH   8  22
ATOM     22  C   UNL     1      -2.344  -4.087   2.032  0.00  0.00    +0.214 C 
BRANCH  22  23
ATOM     23  C   UNL     1      -2.555  -5.025   3.147  0.00  0.00    +0.072 C 
ATOM     24  N   UNL     1      -2.719  -5.748   4.008  0.00  0.00    -0.196 NA
ENDBRANCH  22  23
ENDBRANCH   8  22
TORSDOF 3
