REMARK  Name = CHEMBL1088030
REMARK  5 active torsions:
REMARK  status: ('A' for Active; 'I' for Inactive)
REMARK    1  A    between atoms: C_1  and  C_2
REMARK    2  A    between atoms: C_10  and  N_25
REMARK    3  A    between atoms: N_14  and  C_15
REMARK    4  A    between atoms: C_15  and  C_17
REMARK    5  A    between atoms: C_15  and  C_18
REMARK                            x       y       z     vdW  Elec       q    Type
REMARK                         _______ _______ _______ _____ _____    ______ ____
ROOT
ATOM      1  C   UNL     1       6.484  -3.818   0.016  0.00  0.00    +0.053 C 
ATOM      2  C   UNL     1       5.003  -4.097   0.011  0.00  0.00    +0.008 A 
ATOM      3  C   UNL     1       4.348  -5.283  -0.011  0.00  0.00    +0.124 A 
ATOM      4  N   UNL     1       3.028  -5.239  -0.010  0.00  0.00    -0.233 NA
ATOM      5  C   UNL     1       2.386  -4.091   0.011  0.00  0.00    +0.164 A 
ATOM      6  S   UNL     1       3.630  -2.957   0.040  0.00  0.00    -0.057 S 
ATOM      7  N   UNL     1       1.016  -3.868   0.014  0.00  0.00    -0.279 N 
ATOM      8  C   UNL     1       0.139  -4.936  -0.112  0.00  0.00    +0.131 A 
ATOM      9  C   UNL     1      -1.231  -4.715  -0.215  0.00  0.00    +0.085 A 
ATOM     10  C   UNL     1      -2.072  -5.817  -0.340  0.00  0.00    +0.105 A 
ATOM     11  N   UNL     1      -1.542  -7.038  -0.356  0.00  0.00    -0.316 N 
ATOM     12  C   UNL     1      -0.233  -7.211  -0.255  0.00  0.00    +0.196 A 
ATOM     13  N   UNL     1       0.598  -6.186  -0.140  0.00  0.00    -0.201 NA
ATOM     14  N   UNL     1       0.281  -8.495  -0.275  0.00  0.00    -0.305 N 
ATOM     15  H   UNL     1       0.671  -2.966   0.104  0.00  0.00    +0.155 HD
ATOM     16  H   UNL     1       1.238  -8.636  -0.202  0.00  0.00    +0.150 HD
ATOM     17  H   UNL     1      -2.122  -7.811  -0.442  0.00  0.00    +0.170 HD
ENDROOT
BRANCH  10  18
ATOM     18  N   UNL     1      -3.444  -5.645  -0.446  0.00  0.00    -0.312 N 
ATOM     19  C   UNL     1      -4.354  -6.801  -0.442  0.00  0.00    +0.134 C 
ATOM     20  C   UNL     1      -5.455  -6.546   0.594  0.00  0.00    +0.178 C 
ATOM     21  O   UNL     1      -6.050  -5.270   0.345  0.00  0.00    -0.377 OA
ATOM     22  C   UNL     1      -5.148  -4.169   0.477  0.00  0.00    +0.178 C 
ATOM     23  C   UNL     1      -4.032  -4.301  -0.559  0.00  0.00    +0.134 C 
ENDBRANCH  10  18
BRANCH  14  24
ATOM     24  C   UNL     1      -0.621  -9.643  -0.406  0.00  0.00    +0.138 C 
ATOM     25  C   UNL     1      -0.913  -9.895  -1.887  0.00  0.00    +0.036 C 
BRANCH  24  26
ATOM     26  C   UNL     1       0.030 -10.864   0.192  0.00  0.00    +0.149 A 
ATOM     27  N   UNL     1       1.295 -11.114  -0.080  0.00  0.00    -0.236 NA
ATOM     28  C   UNL     1       1.901 -12.176   0.426  0.00  0.00    +0.152 A 
ATOM     29  C   UNL     1       1.185 -13.030   1.254  0.00  0.00    +0.159 A 
ATOM     30  C   UNL     1      -0.146 -12.732   1.516  0.00  0.00    +0.152 A 
ATOM     31  N   UNL     1      -0.680 -11.649   0.977  0.00  0.00    -0.236 NA
ATOM     32  F   UNL     1       1.768 -14.124   1.790  0.00  0.00    -0.202 F 
ENDBRANCH  24  26
ENDBRANCH  14  24
TORSDOF 3
