REMARK  Name = CHEMBL1078934
REMARK  7 active torsions:
REMARK  status: ('A' for Active; 'I' for Inactive)
REMARK    1  A    between atoms: C_1  and  N_2
REMARK    2  A    between atoms: N_5  and  C_8
REMARK    3  A    between atoms: C_11  and  N_14
REMARK    4  A    between atoms: C_19  and  C_21
REMARK    5  A    between atoms: C_24  and  C_27
REMARK    6  A    between atoms: N_29  and  C_30
REMARK    7  A    between atoms: C_30  and  C_31
REMARK                            x       y       z     vdW  Elec       q    Type
REMARK                         _______ _______ _______ _____ _____    ______ ____
ROOT
ATOM      1  N   UNL     1      -2.347  -6.681   4.245  0.00  0.00    -0.284 N 
ATOM      2  C   UNL     1      -1.535  -7.176   5.253  0.00  0.00    +0.220 A 
ATOM      3  N   UNL     1      -0.368  -6.592   5.486  0.00  0.00    -0.223 NA
ATOM      4  C   UNL     1       0.435  -7.035   6.440  0.00  0.00    +0.116 A 
ATOM      5  C   UNL     1       0.046  -8.123   7.202  0.00  0.00    +0.048 A 
ATOM      6  C   UNL     1      -1.189  -8.717   6.933  0.00  0.00    +0.076 A 
ATOM      7  N   UNL     1      -1.948  -8.215   5.961  0.00  0.00    -0.214 NA
ATOM      8  H   UNL     1      -3.239  -7.041   4.120  0.00  0.00    +0.155 HD
ENDROOT
BRANCH   1  12
ATOM      9  C   UNL     1      -0.957  -3.642   1.751  0.00  0.00    +0.030 A 
ATOM     10  C   UNL     1      -0.078  -4.607   2.225  0.00  0.00    +0.025 A 
ATOM     11  C   UNL     1      -0.539  -5.614   3.051  0.00  0.00    +0.025 A 
ATOM     12  C   UNL     1      -1.880  -5.660   3.407  0.00  0.00    +0.034 A 
ATOM     13  C   UNL     1      -2.758  -4.695   2.933  0.00  0.00    +0.025 A 
ATOM     14  C   UNL     1      -2.297  -3.685   2.112  0.00  0.00    +0.025 A 
BRANCH   9  19
ATOM     15  C   UNL     1       0.530  -1.105  -2.850  0.00  0.00    -0.096 C 
ATOM     16  N   UNL     1       0.282  -1.280  -1.413  0.00  0.00    +0.380 N 
ATOM     17  C   UNL     1       1.115  -2.377  -0.904  0.00  0.00    -0.060 C 
ATOM     18  C   UNL     1       0.944  -2.485   0.614  0.00  0.00    +0.086 C 
ATOM     19  N   UNL     1      -0.490  -2.622   0.914  0.00  0.00    -0.333 N 
ATOM     20  C   UNL     1      -1.420  -1.655   0.308  0.00  0.00    +0.086 C 
ATOM     21  C   UNL     1      -1.137  -1.586  -1.196  0.00  0.00    -0.060 C 
ATOM     22  H   UNL     1       0.519  -0.428  -0.926  0.00  0.00    -0.082 HD
ENDBRANCH   9  19
ENDBRANCH   1  12
BRANCH   6  23
ATOM     23  C   UNL     1      -1.651  -9.885   7.721  0.00  0.00    +0.001 A 
ATOM     24  C   UNL     1      -0.852 -10.396   8.743  0.00  0.00    +0.011 A 
ATOM     25  C   UNL     1      -1.280 -11.481   9.476  0.00  0.00    +0.014 A 
ATOM     26  C   UNL     1      -2.514 -12.070   9.194  0.00  0.00    +0.037 A 
ATOM     27  C   UNL     1      -3.314 -11.558   8.170  0.00  0.00    +0.014 A 
ATOM     28  C   UNL     1      -2.886 -10.470   7.442  0.00  0.00    +0.011 A 
BRANCH  26  29
ATOM     29  C   UNL     1      -2.974 -13.235   9.979  0.00  0.00    +0.245 C 
ATOM     30  O   UNL     1      -2.278 -13.681  10.870  0.00  0.00    -0.270 OA
ATOM     31  N   UNL     1      -4.166 -13.803   9.707  0.00  0.00    -0.298 N 
ATOM     32  H   UNL     1      -4.721 -13.447   8.996  0.00  0.00    +0.150 HD
BRANCH  31  33
ATOM     33  C   UNL     1      -4.622 -14.958  10.485  0.00  0.00    +0.223 C 
BRANCH  33  34
ATOM     34  C   UNL     1      -5.942 -15.388   9.997  0.00  0.00    +0.081 C 
ATOM     35  N   UNL     1      -6.960 -15.721   9.620  0.00  0.00    -0.195 NA
ENDBRANCH  33  34
ENDBRANCH  31  33
ENDBRANCH  26  29
ENDBRANCH   6  23
TORSDOF 6
