REMARK  Name = CHEMBL591096
REMARK  2 active torsions:
REMARK  status: ('A' for Active; 'I' for Inactive)
REMARK    1  A    between atoms: C_17  and  C_19
REMARK    2  A    between atoms: C_22  and  O_26
REMARK                            x       y       z     vdW  Elec       q    Type
REMARK                         _______ _______ _______ _____ _____    ______ ____
ROOT
ATOM      1  C   UNL     1      -0.185   1.141  -0.063  0.00  0.00    +0.001 A 
ATOM      2  C   UNL     1       0.963   1.915  -0.028  0.00  0.00    +0.002 A 
ATOM      3  C   UNL     1       2.202   1.309  -0.031  0.00  0.00    +0.023 A 
ATOM      4  C   UNL     1       2.315  -0.075  -0.063  0.00  0.00    +0.036 A 
ATOM      5  C   UNL     1       1.149  -0.870  -0.080  0.00  0.00    +0.004 A 
ATOM      6  C   UNL     1      -0.096  -0.231  -0.089  0.00  0.00    +0.010 A 
ATOM      7  C   UNL     1       1.181  -2.341  -0.059  0.00  0.00    -0.004 A 
ATOM      8  C   UNL     1       0.141  -3.061   0.546  0.00  0.00    +0.029 A 
ATOM      9  C   UNL     1       0.123  -4.440   0.484  0.00  0.00    +0.114 A 
ATOM     10  N   UNL     1       1.045  -5.159  -0.137  0.00  0.00    -0.237 NA
ATOM     11  C   UNL     1       2.074  -4.536  -0.703  0.00  0.00    +0.139 A 
ATOM     12  C   UNL     1       2.185  -3.123  -0.642  0.00  0.00    +0.032 A 
ATOM     13  C   UNL     1       3.500  -2.807  -1.190  0.00  0.00    +0.004 A 
ATOM     14  C   UNL     1       4.030  -3.956  -1.629  0.00  0.00    +0.091 A 
ATOM     15  N   UNL     1       3.159  -4.993  -1.386  0.00  0.00    -0.345 N 
ATOM     16  H   UNL     1       3.298  -5.913  -1.661  0.00  0.00    +0.167 HD
ATOM     17  C   UNL     1       4.077  -1.430  -1.211  0.00  0.00    +0.133 C 
ATOM     18  N   UNL     1       3.556  -0.665  -0.097  0.00  0.00    -0.332 N 
ATOM     19  H   UNL     1       4.124  -0.562   0.683  0.00  0.00    +0.147 HD
ENDROOT
BRANCH  17  20
ATOM     20  C   UNL     1       3.705  -0.751  -2.504  0.00  0.00    -0.020 A 
ATOM     21  C   UNL     1       4.696  -0.293  -3.353  0.00  0.00    +0.009 A 
ATOM     22  C   UNL     1       4.359   0.331  -4.539  0.00  0.00    +0.049 A 
ATOM     23  C   UNL     1       3.025   0.498  -4.878  0.00  0.00    +0.152 A 
ATOM     24  C   UNL     1       2.031   0.037  -4.025  0.00  0.00    +0.165 A 
ATOM     25  C   UNL     1       2.374  -0.591  -2.841  0.00  0.00    +0.048 A 
ATOM     26  F   UNL     1       0.730   0.198  -4.352  0.00  0.00    -0.202 F 
BRANCH  23  27
ATOM     27  O   UNL     1       2.691   1.112  -6.045  0.00  0.00    -0.504 OA
ATOM     28  H   UNL     1       2.602   0.509  -6.795  0.00  0.00    +0.292 HD
ENDBRANCH  23  27
ENDBRANCH  17  20
TORSDOF 2
