REMARK  Name = CHEMBL589633
REMARK  2 active torsions:
REMARK  status: ('A' for Active; 'I' for Inactive)
REMARK    1  A    between atoms: C_17  and  C_21
REMARK    2  A    between atoms: C_24  and  O_28
REMARK                            x       y       z     vdW  Elec       q    Type
REMARK                         _______ _______ _______ _____ _____    ______ ____
ROOT
ATOM      1  C   UNL     1       0.161   1.553   0.003  0.00  0.00    +0.001 A 
ATOM      2  C   UNL     1       1.361   2.238   0.105  0.00  0.00    +0.001 A 
ATOM      3  C   UNL     1       2.546   1.545   0.137  0.00  0.00    +0.013 A 
ATOM      4  C   UNL     1       2.567   0.138   0.060  0.00  0.00    +0.044 A 
ATOM      5  C   UNL     1       1.365  -0.545  -0.076  0.00  0.00    -0.005 A 
ATOM      6  C   UNL     1       0.160   0.181  -0.085  0.00  0.00    +0.009 A 
ATOM      7  C   UNL     1       1.234  -2.001  -0.248  0.00  0.00    -0.005 A 
ATOM      8  C   UNL     1       0.414  -2.476  -1.289  0.00  0.00    +0.029 A 
ATOM      9  C   UNL     1       0.231  -3.830  -1.475  0.00  0.00    +0.114 A 
ATOM     10  N   UNL     1       0.788  -4.752  -0.707  0.00  0.00    -0.237 NA
ATOM     11  C   UNL     1       1.578  -4.366   0.289  0.00  0.00    +0.139 A 
ATOM     12  C   UNL     1       1.840  -2.987   0.526  0.00  0.00    +0.032 A 
ATOM     13  C   UNL     1       2.788  -2.966   1.631  0.00  0.00    +0.004 A 
ATOM     14  C   UNL     1       2.996  -4.230   2.018  0.00  0.00    +0.091 A 
ATOM     15  N   UNL     1       2.261  -5.080   1.228  0.00  0.00    -0.345 N 
ATOM     16  H   UNL     1       2.232  -6.045   1.324  0.00  0.00    +0.167 HD
ATOM     17  C   UNL     1       3.425  -1.712   2.190  0.00  0.00    +0.139 C 
ATOM     18  N   UNL     1       4.340  -1.226   1.141  0.00  0.00    -0.300 N 
ATOM     19  C   UNL     1       3.890  -0.482   0.145  0.00  0.00    +0.245 C 
ATOM     20  O   UNL     1       4.647  -0.294  -0.788  0.00  0.00    -0.270 OA
ATOM     21  H   UNL     1       5.282  -1.455   1.181  0.00  0.00    +0.150 HD
ENDROOT
BRANCH  17  22
ATOM     22  C   UNL     1       2.369  -0.677   2.479  0.00  0.00    +0.013 A 
ATOM     23  C   UNL     1       1.036  -1.043   2.521  0.00  0.00    +0.012 A 
ATOM     24  C   UNL     1       0.066  -0.096   2.786  0.00  0.00    +0.046 A 
ATOM     25  C   UNL     1       0.428   1.224   3.011  0.00  0.00    +0.120 A 
ATOM     26  C   UNL     1       1.765   1.591   2.969  0.00  0.00    +0.084 A 
ATOM     27  C   UNL     1       2.735   0.639   2.709  0.00  0.00    +0.132 A 
ATOM     28  F   UNL     1       4.038   0.994   2.673  0.00  0.00    -0.205 F 
BRANCH  25  29
ATOM     29  O   UNL     1      -0.525   2.157   3.271  0.00  0.00    -0.507 OA
ATOM     30  H   UNL     1      -0.729   2.260   4.211  0.00  0.00    +0.292 HD
ENDBRANCH  25  29
ENDBRANCH  17  22
TORSDOF 2
