REMARK  Name = CHEMBL1088030
REMARK  5 active torsions:
REMARK  status: ('A' for Active; 'I' for Inactive)
REMARK    1  A    between atoms: C_1  and  C_2
REMARK    2  A    between atoms: C_10  and  N_25
REMARK    3  A    between atoms: N_14  and  C_15
REMARK    4  A    between atoms: C_15  and  C_17
REMARK    5  A    between atoms: C_15  and  C_18
REMARK                            x       y       z     vdW  Elec       q    Type
REMARK                         _______ _______ _______ _____ _____    ______ ____
ROOT
ATOM      1  C   UNL     1       6.489  -3.825  -0.067  0.00  0.00    +0.053 C 
ATOM      2  C   UNL     1       5.008  -4.102  -0.058  0.00  0.00    +0.008 A 
ATOM      3  C   UNL     1       4.350  -5.287  -0.049  0.00  0.00    +0.124 A 
ATOM      4  N   UNL     1       3.030  -5.241  -0.043  0.00  0.00    -0.233 NA
ATOM      5  C   UNL     1       2.390  -4.091  -0.046  0.00  0.00    +0.164 A 
ATOM      6  S   UNL     1       3.636  -2.959  -0.050  0.00  0.00    -0.057 S 
ATOM      7  N   UNL     1       1.020  -3.866  -0.041  0.00  0.00    -0.279 N 
ATOM      8  C   UNL     1       0.141  -4.935  -0.139  0.00  0.00    +0.131 A 
ATOM      9  C   UNL     1      -1.229  -4.714  -0.244  0.00  0.00    +0.087 A 
ATOM     10  C   UNL     1      -2.072  -5.817  -0.340  0.00  0.00    +0.128 A 
ATOM     11  N   UNL     1      -1.545  -7.039  -0.329  0.00  0.00    -0.199 NA
ATOM     12  C   UNL     1      -0.235  -7.212  -0.227  0.00  0.00    +0.219 A 
ATOM     13  N   UNL     1       0.598  -6.186  -0.139  0.00  0.00    -0.199 NA
ATOM     14  N   UNL     1       0.276  -8.498  -0.218  0.00  0.00    -0.304 N 
ATOM     15  H   UNL     1       0.678  -2.961   0.031  0.00  0.00    +0.155 HD
ATOM     16  H   UNL     1      -0.322  -9.258  -0.286  0.00  0.00    +0.150 HD
ENDROOT
BRANCH  10  17
ATOM     17  N   UNL     1      -3.444  -5.645  -0.446  0.00  0.00    -0.311 N 
ATOM     18  C   UNL     1      -4.362  -6.790  -0.333  0.00  0.00    +0.134 C 
ATOM     19  C   UNL     1      -5.449  -6.439   0.689  0.00  0.00    +0.178 C 
ATOM     20  O   UNL     1      -6.038  -5.185   0.337  0.00  0.00    -0.377 OA
ATOM     21  C   UNL     1      -5.129  -4.082   0.364  0.00  0.00    +0.178 C 
ATOM     22  C   UNL     1      -4.025  -4.312  -0.668  0.00  0.00    +0.134 C 
ENDBRANCH  10  17
BRANCH  14  23
ATOM     23  C   UNL     1       1.721  -8.710  -0.107  0.00  0.00    +0.138 C 
ATOM     24  C   UNL     1       2.127  -8.696   1.368  0.00  0.00    +0.036 C 
BRANCH  23  25
ATOM     25  C   UNL     1       2.081 -10.042  -0.714  0.00  0.00    +0.149 A 
ATOM     26  N   UNL     1       1.339 -11.095  -0.435  0.00  0.00    -0.236 NA
ATOM     27  C   UNL     1       1.624 -12.280  -0.949  0.00  0.00    +0.152 A 
ATOM     28  C   UNL     1       2.720 -12.405  -1.792  0.00  0.00    +0.159 A 
ATOM     29  C   UNL     1       3.476 -11.272  -2.061  0.00  0.00    +0.152 A 
ATOM     30  N   UNL     1       3.126 -10.120  -1.513  0.00  0.00    -0.236 NA
ATOM     31  F   UNL     1       3.042 -13.598  -2.336  0.00  0.00    -0.202 F 
ENDBRANCH  23  25
ENDBRANCH  14  23
TORSDOF 3
