REMARK  Name = CHEMBL1078229
REMARK  6 active torsions:
REMARK  status: ('A' for Active; 'I' for Inactive)
REMARK    1  A    between atoms: C_3  and  N_13
REMARK    2  A    between atoms: C_5  and  N_7
REMARK    3  A    between atoms: C_18  and  C_20
REMARK    4  A    between atoms: C_23  and  C_26
REMARK    5  A    between atoms: N_28  and  C_29
REMARK    6  A    between atoms: C_29  and  C_30
REMARK                            x       y       z     vdW  Elec       q    Type
REMARK                         _______ _______ _______ _____ _____    ______ ____
ROOT
ATOM      1  N   UNL     1       3.425   2.215  -0.123  0.00  0.00    -0.284 N 
ATOM      2  C   UNL     1       3.352   3.593  -0.248  0.00  0.00    +0.220 A 
ATOM      3  N   UNL     1       2.167   4.184  -0.206  0.00  0.00    -0.223 NA
ATOM      4  C   UNL     1       2.055   5.497  -0.322  0.00  0.00    +0.116 A 
ATOM      5  C   UNL     1       3.198   6.261  -0.490  0.00  0.00    +0.048 A 
ATOM      6  C   UNL     1       4.433   5.611  -0.530  0.00  0.00    +0.076 A 
ATOM      7  N   UNL     1       4.469   4.286  -0.402  0.00  0.00    -0.214 NA
ATOM      8  H   UNL     1       4.289   1.778  -0.072  0.00  0.00    +0.155 HD
ENDROOT
BRANCH   1  11
ATOM      9  C   UNL     1      -0.031   1.111  -0.727  0.00  0.00    +0.004 A 
ATOM     10  C   UNL     1       1.128   1.862  -0.778  0.00  0.00    +0.023 A 
ATOM     11  C   UNL     1       2.252   1.456  -0.070  0.00  0.00    +0.035 A 
ATOM     12  C   UNL     1       2.211   0.294   0.689  0.00  0.00    +0.046 A 
ATOM     13  C   UNL     1       1.045  -0.457   0.738  0.00  0.00    +0.032 A 
ATOM     14  C   UNL     1      -0.076  -0.045   0.027  0.00  0.00    +0.023 A 
BRANCH  13  15
ATOM     15  N   UNL     1       0.999  -1.626   1.501  0.00  0.00    -0.325 N 
ATOM     16  C   UNL     1       2.127  -2.014   2.362  0.00  0.00    +0.133 C 
ATOM     17  C   UNL     1       1.584  -2.324   3.761  0.00  0.00    +0.178 C 
ATOM     18  O   UNL     1       0.514  -3.267   3.653  0.00  0.00    -0.377 OA
ATOM     19  C   UNL     1      -0.611  -2.792   2.910  0.00  0.00    +0.178 C 
ATOM     20  C   UNL     1      -0.182  -2.503   1.471  0.00  0.00    +0.133 C 
ENDBRANCH  13  15
ENDBRANCH   1  11
BRANCH   6  21
ATOM     21  C   UNL     1       5.686   6.384  -0.709  0.00  0.00    +0.001 A 
ATOM     22  C   UNL     1       5.636   7.773  -0.831  0.00  0.00    +0.011 A 
ATOM     23  C   UNL     1       6.799   8.492  -0.996  0.00  0.00    +0.014 A 
ATOM     24  C   UNL     1       8.028   7.831  -1.041  0.00  0.00    +0.037 A 
ATOM     25  C   UNL     1       8.077   6.441  -0.918  0.00  0.00    +0.014 A 
ATOM     26  C   UNL     1       6.913   5.723  -0.748  0.00  0.00    +0.011 A 
BRANCH  24  27
ATOM     27  C   UNL     1       9.277   8.602  -1.218  0.00  0.00    +0.245 C 
ATOM     28  O   UNL     1       9.234   9.812  -1.325  0.00  0.00    -0.270 OA
ATOM     29  N   UNL     1      10.463   7.963  -1.262  0.00  0.00    -0.298 N 
ATOM     30  H   UNL     1      10.497   6.998  -1.176  0.00  0.00    +0.150 HD
BRANCH  29  31
ATOM     31  C   UNL     1      11.700   8.727  -1.438  0.00  0.00    +0.223 C 
BRANCH  31  32
ATOM     32  C   UNL     1      12.848   7.806  -1.452  0.00  0.00    +0.081 C 
ATOM     33  N   UNL     1      13.734   7.095  -1.462  0.00  0.00    -0.195 NA
ENDBRANCH  31  32
ENDBRANCH  29  31
ENDBRANCH  24  27
ENDBRANCH   6  21
TORSDOF 6
