REMARK  Name = CHEMBL1087898
REMARK  5 active torsions:
REMARK  status: ('A' for Active; 'I' for Inactive)
REMARK    1  A    between atoms: C_1  and  C_2
REMARK    2  A    between atoms: C_12  and  N_14
REMARK    3  A    between atoms: N_14  and  C_15
REMARK    4  A    between atoms: C_15  and  C_17
REMARK    5  A    between atoms: C_15  and  C_18
REMARK                            x       y       z     vdW  Elec       q    Type
REMARK                         _______ _______ _______ _____ _____    ______ ____
ROOT
ATOM      1  C   UNL     1       6.487  -3.822  -0.041  0.00  0.00    +0.053 C 
ATOM      2  C   UNL     1       5.006  -4.099  -0.037  0.00  0.00    +0.008 A 
ATOM      3  C   UNL     1       4.349  -5.285  -0.038  0.00  0.00    +0.124 A 
ATOM      4  N   UNL     1       3.029  -5.240  -0.034  0.00  0.00    -0.233 NA
ATOM      5  C   UNL     1       2.388  -4.090  -0.029  0.00  0.00    +0.164 A 
ATOM      6  S   UNL     1       3.633  -2.958  -0.021  0.00  0.00    -0.057 S 
ATOM      7  N   UNL     1       1.019  -3.866  -0.023  0.00  0.00    -0.277 N 
ATOM      8  C   UNL     1       0.138  -4.938  -0.131  0.00  0.00    +0.145 A 
ATOM      9  C   UNL     1      -1.230  -4.707  -0.235  0.00  0.00    +0.154 A 
ATOM     10  N   UNL     1      -2.067  -5.724  -0.337  0.00  0.00    -0.256 NA
ATOM     11  C   UNL     1      -1.609  -6.962  -0.341  0.00  0.00    +0.154 A 
ATOM     12  C   UNL     1      -0.242  -7.201  -0.237  0.00  0.00    +0.140 A 
ATOM     13  N   UNL     1       0.603  -6.181  -0.140  0.00  0.00    -0.214 NA
ATOM     14  H   UNL     1       0.676  -2.962   0.055  0.00  0.00    +0.156 HD
ENDROOT
BRANCH  12  15
ATOM     15  N   UNL     1       0.239  -8.505  -0.240  0.00  0.00    -0.318 N 
ATOM     16  H   UNL     1       1.193  -8.671  -0.168  0.00  0.00    +0.148 HD
BRANCH  15  17
ATOM     17  C   UNL     1      -0.693  -9.629  -0.354  0.00  0.00    +0.137 C 
ATOM     18  C   UNL     1      -0.997  -9.893  -1.830  0.00  0.00    +0.036 C 
BRANCH  17  19
ATOM     19  C   UNL     1      -0.073 -10.859   0.259  0.00  0.00    +0.149 A 
ATOM     20  N   UNL     1       1.183 -11.147  -0.013  0.00  0.00    -0.236 NA
ATOM     21  C   UNL     1       1.762 -12.217   0.506  0.00  0.00    +0.152 A 
ATOM     22  C   UNL     1       1.026 -13.041   1.348  0.00  0.00    +0.159 A 
ATOM     23  C   UNL     1      -0.295 -12.704   1.610  0.00  0.00    +0.152 A 
ATOM     24  N   UNL     1      -0.802 -11.614   1.057  0.00  0.00    -0.236 NA
ATOM     25  F   UNL     1       1.581 -14.143   1.897  0.00  0.00    -0.202 F 
ENDBRANCH  17  19
ENDBRANCH  15  17
ENDBRANCH  12  15
TORSDOF 3
