REMARK  Name = CHEMBL570192
REMARK  7 active torsions:
REMARK  status: ('A' for Active; 'I' for Inactive)
REMARK    1  A    between atoms: C_1  and  C_2
REMARK    2  A    between atoms: C_10  and  C_28
REMARK    3  A    between atoms: C_12  and  C_26
REMARK    4  A    between atoms: C_13  and  O_15
REMARK    5  A    between atoms: O_15  and  C_16
REMARK    6  A    between atoms: C_16  and  C_18
REMARK    7  A    between atoms: C_16  and  C_19
REMARK                            x       y       z     vdW  Elec       q    Type
REMARK                         _______ _______ _______ _____ _____    ______ ____
ROOT
ATOM      1  C   UNL     1       1.722   1.356  -0.270  0.00  0.00    +0.065 C 
ATOM      2  C   UNL     1       1.348  -0.102  -0.208  0.00  0.00    +0.035 A 
ATOM      3  C   UNL     1       1.019  -0.885  -1.261  0.00  0.00    +0.068 A 
ATOM      4  C   UNL     1       0.740  -2.171  -0.771  0.00  0.00    +0.146 A 
ATOM      5  N   UNL     1       0.898  -2.153   0.532  0.00  0.00    -0.158 NA
ATOM      6  N   UNL     1       1.286  -0.860   0.907  0.00  0.00    -0.280 N 
ATOM      7  H   UNL     1       1.476  -0.561   1.810  0.00  0.00    +0.189 HD
ATOM      8  N   UNL     1       0.360  -3.279  -1.538  0.00  0.00    -0.281 N 
ATOM      9  C   UNL     1       0.082  -3.126  -2.887  0.00  0.00    +0.149 A 
ATOM     10  C   UNL     1      -0.185  -4.247  -3.676  0.00  0.00    +0.080 A 
ATOM     11  N   UNL     1      -0.450  -4.108  -4.957  0.00  0.00    -0.233 NA
ATOM     12  C   UNL     1      -0.464  -2.894  -5.506  0.00  0.00    +0.202 A 
ATOM     13  C   UNL     1      -0.197  -1.766  -4.716  0.00  0.00    +0.254 A 
ATOM     14  N   UNL     1       0.064  -1.912  -3.426  0.00  0.00    -0.194 NA
ATOM     15  C   UNL     1      -0.168  -5.622  -3.058  0.00  0.00    +0.069 C 
ATOM     16  H   UNL     1       0.291  -4.154  -1.125  0.00  0.00    +0.155 HD
ENDROOT
BRANCH  12  17
ATOM     17  C   UNL     1      -0.752  -2.741  -6.901  0.00  0.00    +0.125 C 
ATOM     18  N   UNL     1      -0.980  -2.620  -8.007  0.00  0.00    -0.189 NA
ENDBRANCH  12  17
BRANCH  13  19
ATOM     19  O   UNL     1      -0.211  -0.529  -5.270  0.00  0.00    -0.465 OA
BRANCH  19  20
ATOM     20  C   UNL     1       0.005   0.577  -4.393  0.00  0.00    +0.220 C 
ATOM     21  C   UNL     1       1.508   0.805  -4.218  0.00  0.00    +0.059 C 
BRANCH  20  22
ATOM     22  C   UNL     1      -0.626   1.814  -4.980  0.00  0.00    +0.081 A 
ATOM     23  C   UNL     1      -1.374   1.715  -6.138  0.00  0.00    +0.030 A 
ATOM     24  C   UNL     1      -1.950   2.857  -6.670  0.00  0.00    +0.042 A 
ATOM     25  C   UNL     1      -1.750   4.065  -6.014  0.00  0.00    +0.141 A 
ATOM     26  C   UNL     1      -0.989   4.086  -4.858  0.00  0.00    +0.149 A 
ATOM     27  N   UNL     1      -0.461   2.976  -4.379  0.00  0.00    -0.253 NA
ATOM     28  F   UNL     1      -2.292   5.204  -6.497  0.00  0.00    -0.204 F 
ENDBRANCH  20  22
ENDBRANCH  19  20
ENDBRANCH  13  19
TORSDOF 4
