REMARK  Name = CHEMBL520947
REMARK  4 active torsions:
REMARK  status: ('A' for Active; 'I' for Inactive)
REMARK    1  A    between atoms: C_3  and  S_18
REMARK    2  A    between atoms: C_6  and  C_7
REMARK    3  A    between atoms: C_13  and  N_17
REMARK    4  A    between atoms: S_18  and  N_21
REMARK                            x       y       z     vdW  Elec       q    Type
REMARK                         _______ _______ _______ _____ _____    ______ ____
ROOT
ATOM      1  C   UNL     1      -0.017   1.390   0.010  0.00  0.00    +0.010 A 
ATOM      2  C   UNL     1       1.170   2.093   0.002  0.00  0.00    +0.029 A 
ATOM      3  C   UNL     1       2.378   1.418  -0.013  0.00  0.00    +0.106 A 
ATOM      4  C   UNL     1       2.402   0.035  -0.022  0.00  0.00    +0.029 A 
ATOM      5  C   UNL     1       1.222  -0.679  -0.014  0.00  0.00    +0.010 A 
ATOM      6  C   UNL     1       0.002  -0.004   0.002  0.00  0.00    -0.018 A 
ENDROOT
BRANCH   6   7
ATOM      7  C   UNL     1      -1.270  -0.766   0.010  0.00  0.00    -0.017 A 
ATOM      8  C   UNL     1      -2.492  -0.068   0.020  0.00  0.00    +0.010 A 
ATOM      9  C   UNL     1      -3.680  -0.716   0.027  0.00  0.00    +0.028 A 
ATOM     10  C   UNL     1      -3.711  -2.129   0.025  0.00  0.00    +0.065 A 
ATOM     11  C   UNL     1      -2.438  -2.867   0.015  0.00  0.00    +0.039 A 
ATOM     12  C   UNL     1      -1.233  -2.145   0.002  0.00  0.00    +0.022 A 
ATOM     13  C   UNL     1      -2.770  -4.221   0.015  0.00  0.00    +0.118 A 
ATOM     14  N   UNL     1      -4.111  -4.311   0.025  0.00  0.00    -0.286 N 
ATOM     15  N   UNL     1      -4.676  -3.031   0.031  0.00  0.00    -0.298 N 
ATOM     16  H   UNL     1      -4.613  -5.141   0.027  0.00  0.00    +0.188 HD
ATOM     17  H   UNL     1      -5.626  -2.837   0.038  0.00  0.00    +0.187 HD
BRANCH  13  18
ATOM     18  N   UNL     1      -1.879  -5.281   0.007  0.00  0.00    -0.343 N 
ATOM     19  H   UNL     1      -0.924  -5.112   0.000  0.00  0.00    +0.144 HD
ATOM     20  H   UNL     1      -2.210  -6.193   0.008  0.00  0.00    +0.144 HD
ENDBRANCH  13  18
ENDBRANCH   6   7
BRANCH   3  21
ATOM     21  S   UNL     1       3.889   2.323  -0.024  0.00  0.00    +0.061 S 
ATOM     22  O   UNL     1       4.872   1.466  -0.589  0.00  0.00    -0.153 OA
ATOM     23  O   UNL     1       3.593   3.603  -0.565  0.00  0.00    -0.153 OA
BRANCH  21  24
ATOM     24  N   UNL     1       4.325   2.566   1.555  0.00  0.00    -0.172 NA
ATOM     25  C   UNL     1       3.872   3.756   2.292  0.00  0.00    +0.137 C 
ATOM     26  C   UNL     1       3.263   3.299   3.622  0.00  0.00    +0.177 C 
ATOM     27  O   UNL     1       4.193   2.450   4.299  0.00  0.00    -0.377 OA
ATOM     28  C   UNL     1       4.505   1.245   3.595  0.00  0.00    +0.177 C 
ATOM     29  C   UNL     1       5.172   1.595   2.265  0.00  0.00    +0.137 C 
ENDBRANCH  21  24
ENDBRANCH   3  21
TORSDOF 4
