REMARK  Name = CHEMBL1078689
REMARK  7 active torsions:
REMARK  status: ('A' for Active; 'I' for Inactive)
REMARK    1  A    between atoms: C_1  and  S_2
REMARK    2  A    between atoms: S_2  and  N_5
REMARK    3  A    between atoms: N_5  and  C_6
REMARK    4  A    between atoms: C_9  and  C_12
REMARK    5  A    between atoms: N_18  and  C_19
REMARK    6  A    between atoms: C_22  and  C_25
REMARK    7  A    between atoms: C_25  and  N_26
REMARK                            x       y       z     vdW  Elec       q    Type
REMARK                         _______ _______ _______ _____ _____    ______ ____
ROOT
ATOM      1  C   UNL     1       1.647  -5.848  -2.681  0.00  0.00    +0.076 A 
ATOM      2  C   UNL     1       2.048  -6.189  -3.977  0.00  0.00    +0.048 A 
ATOM      3  C   UNL     1       2.024  -7.522  -4.344  0.00  0.00    +0.116 A 
ATOM      4  N   UNL     1       1.625  -8.429  -3.466  0.00  0.00    -0.223 NA
ATOM      5  C   UNL     1       1.250  -8.078  -2.244  0.00  0.00    +0.220 A 
ATOM      6  N   UNL     1       1.264  -6.814  -1.849  0.00  0.00    -0.214 NA
ATOM      7  N   UNL     1       0.840  -9.058  -1.356  0.00  0.00    -0.284 N 
ATOM      8  H   UNL     1       0.487  -8.809  -0.487  0.00  0.00    +0.155 HD
ENDROOT
BRANCH   1  12
ATOM      9  C   UNL     1       1.672  -1.790  -1.412  0.00  0.00    +0.074 A 
ATOM     10  C   UNL     1       1.268  -2.790  -0.533  0.00  0.00    +0.027 A 
ATOM     11  C   UNL     1       1.260  -4.105  -0.942  0.00  0.00    +0.012 A 
ATOM     12  C   UNL     1       1.656  -4.434  -2.239  0.00  0.00    +0.001 A 
ATOM     13  C   UNL     1       2.060  -3.429  -3.118  0.00  0.00    +0.012 A 
ATOM     14  C   UNL     1       2.062  -2.115  -2.707  0.00  0.00    +0.027 A 
BRANCH   9  15
ATOM     15  N   UNL     1       1.680  -0.460  -0.996  0.00  0.00    -0.103 NA
BRANCH  15  17
ATOM     16  C   UNL     1       1.381   1.733   0.642  0.00  0.00    +0.220 C 
ATOM     17  S   UNL     1       1.216  -0.071   0.546  0.00  0.00    +0.059 S 
ATOM     18  O   UNL     1       2.179  -0.696   1.383  0.00  0.00    -0.154 OA
ATOM     19  O   UNL     1      -0.154  -0.442   0.616  0.00  0.00    -0.154 OA
ENDBRANCH  15  17
ENDBRANCH   9  15
ENDBRANCH   1  12
BRANCH   7  20
ATOM     20  C   UNL     1       0.934 -10.407  -1.712  0.00  0.00    +0.034 A 
ATOM     21  C   UNL     1       2.036 -10.865  -2.422  0.00  0.00    +0.023 A 
ATOM     22  C   UNL     1       2.125 -12.198  -2.772  0.00  0.00    +0.007 A 
ATOM     23  C   UNL     1       1.119 -13.077  -2.415  0.00  0.00    -0.033 A 
ATOM     24  C   UNL     1       0.021 -12.625  -1.708  0.00  0.00    +0.007 A 
ATOM     25  C   UNL     1      -0.072 -11.294  -1.349  0.00  0.00    +0.023 A 
BRANCH  23  26
ATOM     26  C   UNL     1       1.220 -14.531  -2.799  0.00  0.00    +0.119 C 
BRANCH  26  27
ATOM     27  N   UNL     1       1.909 -15.272  -1.735  0.00  0.00    -0.294 NA
ATOM     28  C   UNL     1       3.312 -14.849  -1.622  0.00  0.00    +0.113 C 
ATOM     29  C   UNL     1       3.975 -15.601  -0.464  0.00  0.00    +0.175 C 
ATOM     30  O   UNL     1       3.850 -17.009  -0.684  0.00  0.00    -0.377 OA
ATOM     31  C   UNL     1       2.496 -17.455  -0.798  0.00  0.00    +0.175 C 
ATOM     32  C   UNL     1       1.819 -16.722  -1.959  0.00  0.00    +0.113 C 
ENDBRANCH  26  27
ENDBRANCH  23  26
ENDBRANCH   7  20
TORSDOF 6
