REMARK  Name = CHEMBL568790
REMARK  4 active torsions:
REMARK  status: ('A' for Active; 'I' for Inactive)
REMARK    1  A    between atoms: C_1  and  C_2
REMARK    2  A    between atoms: C_2  and  C_3
REMARK    3  A    between atoms: C_2  and  N_4
REMARK    4  A    between atoms: C_7  and  C_11
REMARK                            x       y       z     vdW  Elec       q    Type
REMARK                         _______ _______ _______ _____ _____    ______ ____
ROOT
ATOM      1  C   UNL     1       5.043  -0.065   1.018  0.00  0.00    +0.086 A 
ATOM      2  C   UNL     1       6.436  -0.237   1.122  0.00  0.00    +0.150 A 
ATOM      3  N   UNL     1       6.822   0.176   2.309  0.00  0.00    -0.150 NA
ATOM      4  N   UNL     1       5.709   0.631   3.025  0.00  0.00    -0.219 N 
ATOM      5  C   UNL     1       4.604   0.489   2.229  0.00  0.00    +0.167 A 
ATOM      6  N   UNL     1       3.396   0.854   2.668  0.00  0.00    -0.235 NA
ATOM      7  C   UNL     1       3.240   1.360   3.871  0.00  0.00    +0.114 A 
ATOM      8  C   UNL     1       4.347   1.523   4.714  0.00  0.00    +0.039 A 
ATOM      9  C   UNL     1       5.577   1.149   4.279  0.00  0.00    +0.116 A 
ATOM     10  N   UNL     1       7.267  -0.758   0.132  0.00  0.00    -0.341 N 
ATOM     11  H   UNL     1       6.906  -0.970  -0.743  0.00  0.00    +0.144 HD
ATOM     12  H   UNL     1       8.207  -0.909   0.318  0.00  0.00    +0.144 HD
ENDROOT
BRANCH   1  16
ATOM     13  N   UNL     1       0.686  -0.498  -1.195  0.00  0.00    -0.327 N 
ATOM     14  C   UNL     1       2.068  -0.603  -1.210  0.00  0.00    +0.123 A 
ATOM     15  C   UNL     1       2.813  -0.276  -0.082  0.00  0.00    +0.072 A 
ATOM     16  C   UNL     1       4.203  -0.399  -0.149  0.00  0.00    +0.083 A 
ATOM     17  N   UNL     1       4.760  -0.825  -1.287  0.00  0.00    -0.235 NA
ATOM     18  C   UNL     1       4.016  -1.124  -2.331  0.00  0.00    +0.223 A 
ATOM     19  N   UNL     1       2.702  -1.025  -2.304  0.00  0.00    -0.221 NA
ATOM     20  H   UNL     1       0.173  -0.732  -1.985  0.00  0.00    +0.148 HD
BRANCH  13  22
ATOM     21  C   UNL     1      -0.030   1.496   0.026  0.00  0.00    +0.027 C 
ATOM     22  C   UNL     1      -0.000  -0.033   0.013  0.00  0.00    +0.066 C 
ATOM     23  C   UNL     1      -1.433  -0.572   0.025  0.00  0.00    +0.027 C 
ENDBRANCH  13  22
ENDBRANCH   1  16
TORSDOF 2
