REMARK  Name = CHEMBL582808
REMARK  3 active torsions:
REMARK  status: ('A' for Active; 'I' for Inactive)
REMARK    1  A    between atoms: C_5  and  C_11
REMARK    2  A    between atoms: C_13  and  N_17
REMARK    3  A    between atoms: C_21  and  C_22
REMARK                            x       y       z     vdW  Elec       q    Type
REMARK                         _______ _______ _______ _____ _____    ______ ____
ROOT
ATOM      1  C   UNL     1       4.862  -0.547  -0.042  0.00  0.00    +0.083 A 
ATOM      2  C   UNL     1       5.809  -1.570   0.046  0.00  0.00    +0.072 A 
ATOM      3  C   UNL     1       7.156  -1.223   0.032  0.00  0.00    +0.126 A 
ATOM      4  N   UNL     1       7.492   0.063  -0.062  0.00  0.00    -0.221 NA
ATOM      5  C   UNL     1       6.570   1.001  -0.143  0.00  0.00    +0.223 A 
ATOM      6  N   UNL     1       5.284   0.718  -0.139  0.00  0.00    -0.235 NA
ENDROOT
BRANCH   1  11
ATOM      7  C   UNL     1       1.206  -4.288  -0.045  0.00  0.00    +0.039 A 
ATOM      8  C   UNL     1       2.599  -4.427  -0.058  0.00  0.00    +0.114 A 
ATOM      9  N   UNL     1       3.369  -3.362  -0.055  0.00  0.00    -0.235 NA
ATOM     10  C   UNL     1       2.842  -2.135  -0.039  0.00  0.00    +0.167 A 
ATOM     11  C   UNL     1       3.420  -0.857  -0.032  0.00  0.00    +0.086 A 
ATOM     12  C   UNL     1       2.364   0.074  -0.015  0.00  0.00    +0.150 A 
ATOM     13  N   UNL     1       1.225  -0.583  -0.011  0.00  0.00    -0.150 NA
ATOM     14  N   UNL     1       1.484  -1.958  -0.026  0.00  0.00    -0.219 N 
ATOM     15  C   UNL     1       0.661  -3.045  -0.029  0.00  0.00    +0.116 A 
ATOM     16  N   UNL     1       2.503   1.461  -0.002  0.00  0.00    -0.341 N 
ATOM     17  H   UNL     1       3.383   1.861  -0.081  0.00  0.00    +0.144 HD
ATOM     18  H   UNL     1       1.719   2.026   0.085  0.00  0.00    +0.144 HD
ENDBRANCH   1  11
BRANCH   3  19
ATOM     19  N   UNL     1       8.135  -2.201   0.117  0.00  0.00    -0.308 N 
ATOM     20  C   UNL     1       9.585  -1.958   0.224  0.00  0.00    +0.107 C 
ATOM     21  C   UNL     1      10.153  -3.234   0.895  0.00  0.00    +0.021 C 
ATOM     22  C   UNL     1       9.274  -4.340   0.254  0.00  0.00    +0.029 C 
ATOM     23  C   UNL     1       7.899  -3.652   0.121  0.00  0.00    +0.105 C 
BRANCH  23  24
ATOM     24  C   UNL     1       7.244  -4.069  -1.171  0.00  0.00    -0.027 A 
ATOM     25  C   UNL     1       7.653  -3.506  -2.365  0.00  0.00    +0.008 A 
ATOM     26  C   UNL     1       7.053  -3.887  -3.551  0.00  0.00    +0.038 A 
ATOM     27  C   UNL     1       6.042  -4.833  -3.541  0.00  0.00    +0.123 A 
ATOM     28  C   UNL     1       5.633  -5.396  -2.344  0.00  0.00    +0.038 A 
ATOM     29  C   UNL     1       6.238  -5.017  -1.161  0.00  0.00    +0.008 A 
ATOM     30  F   UNL     1       5.455  -5.206  -4.699  0.00  0.00    -0.205 F 
ENDBRANCH  23  24
ENDBRANCH   3  19
TORSDOF 3
