REMARK  Name = CHEMBL1078720
REMARK  14 active torsions:
REMARK  status: ('A' for Active; 'I' for Inactive)
REMARK    1  A    between atoms: C_1  and  C_2
REMARK    2  A    between atoms: C_2  and  N_3
REMARK    3  A    between atoms: N_3  and  C_4
REMARK    4  A    between atoms: N_3  and  C_6
REMARK    5  A    between atoms: C_4  and  C_5
REMARK    6  A    between atoms: C_6  and  C_7
REMARK    7  A    between atoms: C_7  and  C_8
REMARK    8  A    between atoms: C_8  and  O_9
REMARK    9  A    between atoms: O_9  and  C_10
REMARK   10  A    between atoms: C_13  and  N_16
REMARK   11  A    between atoms: C_21  and  C_23
REMARK   12  A    between atoms: C_26  and  C_29
REMARK   13  A    between atoms: N_31  and  C_32
REMARK   14  A    between atoms: C_32  and  C_33
REMARK                            x       y       z     vdW  Elec       q    Type
REMARK                         _______ _______ _______ _____ _____    ______ ____
ROOT
ATOM      1  N   UNL     1      -4.696  -9.058  -1.898  0.00  0.00    -0.284 N 
ATOM      2  C   UNL     1      -3.990 -10.062  -1.257  0.00  0.00    +0.220 A 
ATOM      3  N   UNL     1      -2.972  -9.736  -0.472  0.00  0.00    -0.223 NA
ATOM      4  C   UNL     1      -2.272 -10.665   0.157  0.00  0.00    +0.116 A 
ATOM      5  C   UNL     1      -2.612 -11.997  -0.009  0.00  0.00    +0.048 A 
ATOM      6  C   UNL     1      -3.689 -12.310  -0.842  0.00  0.00    +0.076 A 
ATOM      7  N   UNL     1      -4.351 -11.322  -1.439  0.00  0.00    -0.214 NA
ATOM      8  H   UNL     1      -5.493  -9.275  -2.408  0.00  0.00    +0.155 HD
ENDROOT
BRANCH   1  12
ATOM      9  C   UNL     1      -3.400  -5.104  -1.641  0.00  0.00    +0.121 A 
ATOM     10  C   UNL     1      -2.475  -6.138  -1.646  0.00  0.00    +0.047 A 
ATOM     11  C   UNL     1      -2.904  -7.448  -1.732  0.00  0.00    +0.027 A 
ATOM     12  C   UNL     1      -4.261  -7.730  -1.811  0.00  0.00    +0.034 A 
ATOM     13  C   UNL     1      -5.186  -6.695  -1.805  0.00  0.00    +0.027 A 
ATOM     14  C   UNL     1      -4.756  -5.385  -1.714  0.00  0.00    +0.047 A 
BRANCH   9  15
ATOM     15  O   UNL     1      -2.977  -3.814  -1.557  0.00  0.00    -0.492 OA
BRANCH  15  16
ATOM     16  C   UNL     1      -1.566  -3.598  -1.484  0.00  0.00    +0.227 C 
BRANCH  16  17
ATOM     17  C   UNL     1      -1.285  -2.096  -1.396  0.00  0.00    +0.022 C 
BRANCH  17  18
ATOM     18  C   UNL     1       0.226  -1.864  -1.318  0.00  0.00    -0.076 C 
BRANCH  18  19
ATOM     19  N   UNL     1       0.496  -0.423  -1.233  0.00  0.00    +0.379 N 
ATOM     20  H   UNL     1       0.056   0.048  -2.010  0.00  0.00    -0.082 HD
BRANCH  19  22
ATOM     21  C   UNL     1       0.110   1.626   0.052  0.00  0.00    -0.017 C 
ATOM     22  C   UNL     1      -0.044   0.103   0.028  0.00  0.00    -0.082 C 
ENDBRANCH  19  22
BRANCH  19  23
ATOM     23  C   UNL     1       1.946  -0.193  -1.279  0.00  0.00    -0.082 C 
ATOM     24  C   UNL     1       2.486  -0.609  -2.649  0.00  0.00    -0.017 C 
ENDBRANCH  19  23
ENDBRANCH  18  19
ENDBRANCH  17  18
ENDBRANCH  16  17
ENDBRANCH  15  16
ENDBRANCH   9  15
ENDBRANCH   1  12
BRANCH   6  25
ATOM     25  C   UNL     1      -4.092 -13.722  -1.052  0.00  0.00    +0.001 A 
ATOM     26  C   UNL     1      -3.398 -14.748  -0.411  0.00  0.00    +0.011 A 
ATOM     27  C   UNL     1      -3.772 -16.059  -0.606  0.00  0.00    +0.014 A 
ATOM     28  C   UNL     1      -4.847 -16.361  -1.445  0.00  0.00    +0.037 A 
ATOM     29  C   UNL     1      -5.542 -15.333  -2.086  0.00  0.00    +0.014 A 
ATOM     30  C   UNL     1      -5.169 -14.022  -1.886  0.00  0.00    +0.011 A 
BRANCH  28  31
ATOM     31  C   UNL     1      -5.249 -17.768  -1.655  0.00  0.00    +0.245 C 
ATOM     32  O   UNL     1      -4.644 -18.663  -1.097  0.00  0.00    -0.270 OA
ATOM     33  N   UNL     1      -6.287 -18.059  -2.464  0.00  0.00    -0.298 N 
ATOM     34  H   UNL     1      -6.769 -17.345  -2.909  0.00  0.00    +0.150 HD
BRANCH  33  35
ATOM     35  C   UNL     1      -6.685 -19.454  -2.672  0.00  0.00    +0.223 C 
BRANCH  35  36
ATOM     36  C   UNL     1      -7.834 -19.504  -3.591  0.00  0.00    +0.081 C 
ATOM     37  N   UNL     1      -8.721 -19.543  -4.300  0.00  0.00    -0.195 NA
ENDBRANCH  35  36
ENDBRANCH  33  35
ENDBRANCH  28  31
ENDBRANCH   6  25
TORSDOF 12
