REMARK  Name = CHEMBL559626
REMARK  20 active torsions:
REMARK  status: ('A' for Active; 'I' for Inactive)
REMARK    1  A    between atoms: C_1  and  C_2
REMARK    2  A    between atoms: C_2  and  C_3
REMARK    3  A    between atoms: C_3  and  C_20
REMARK    4  A    between atoms: C_4  and  C_5
REMARK    5  A    between atoms: C_4  and  C_7
REMARK    6  A    between atoms: C_5  and  C_6
REMARK    7  A    between atoms: C_10  and  O_19
REMARK    8  A    between atoms: C_11  and  C_13
REMARK    9  A    between atoms: C_13  and  N_14
REMARK   10  A    between atoms: N_14  and  C_15
REMARK   11  A    between atoms: N_14  and  C_17
REMARK   12  A    between atoms: C_15  and  C_16
REMARK   13  A    between atoms: C_17  and  C_18
REMARK   14  A    between atoms: C_23  and  O_32
REMARK   15  A    between atoms: C_24  and  C_26
REMARK   16  A    between atoms: C_26  and  N_27
REMARK   17  A    between atoms: N_27  and  C_28
REMARK   18  A    between atoms: N_27  and  C_30
REMARK   19  A    between atoms: C_28  and  C_29
REMARK   20  A    between atoms: C_30  and  C_31
REMARK                            x       y       z     vdW  Elec       q    Type
REMARK                         _______ _______ _______ _____ _____    ______ ____
ROOT
ATOM      1  C   UNL     1       2.040   1.661   0.073  0.00  0.00    -0.037 C 
ATOM      2  C   UNL     1       2.709   2.018  -1.036  0.00  0.00    -0.037 C 
ENDROOT
BRANCH   2   3
ATOM      3  C   UNL     1       4.143   2.348  -0.956  0.00  0.00    -0.021 A 
ATOM      4  C   UNL     1       4.554   3.557  -0.385  0.00  0.00    +0.012 A 
ATOM      5  C   UNL     1       5.896   3.861  -0.313  0.00  0.00    +0.046 A 
ATOM      6  C   UNL     1       6.840   2.970  -0.807  0.00  0.00    +0.118 A 
ATOM      7  C   UNL     1       6.437   1.768  -1.375  0.00  0.00    -0.022 A 
ATOM      8  C   UNL     1       5.097   1.452  -1.446  0.00  0.00    +0.013 A 
BRANCH   6   9
ATOM      9  O   UNL     1       8.162   3.275  -0.735  0.00  0.00    -0.507 OA
ATOM     10  H   UNL     1       8.591   2.974   0.078  0.00  0.00    +0.292 HD
ENDBRANCH   6   9
BRANCH   7  11
ATOM     11  C   UNL     1       7.466   0.806  -1.909  0.00  0.00    -0.039 C 
BRANCH  11  12
ATOM     12  N   UNL     1       7.927   1.263  -3.227  0.00  0.00    +0.382 N 
ATOM     13  H   UNL     1       8.252   2.216  -3.158  0.00  0.00    -0.081 HD
BRANCH  12  14
ATOM     14  C   UNL     1       9.025   0.404  -3.688  0.00  0.00    -0.082 C 
ATOM     15  C   UNL     1       9.587   0.953  -5.000  0.00  0.00    -0.017 C 
ENDBRANCH  12  14
BRANCH  12  16
ATOM     16  C   UNL     1       6.816   1.193  -4.185  0.00  0.00    -0.082 C 
ATOM     17  C   UNL     1       6.314  -0.249  -4.281  0.00  0.00    -0.017 C 
ENDBRANCH  12  16
ENDBRANCH  11  12
ENDBRANCH   7  11
ENDBRANCH   2   3
BRANCH   1  18
ATOM     18  C   UNL     1       0.581   1.464   0.021  0.00  0.00    -0.021 A 
ATOM     19  C   UNL     1      -0.266   2.556  -0.193  0.00  0.00    +0.012 A 
ATOM     20  C   UNL     1      -1.630   2.368  -0.241  0.00  0.00    +0.046 A 
ATOM     21  C   UNL     1      -2.164   1.096  -0.076  0.00  0.00    +0.118 A 
ATOM     22  C   UNL     1      -1.327   0.009   0.137  0.00  0.00    -0.022 A 
ATOM     23  C   UNL     1       0.039   0.186   0.180  0.00  0.00    +0.013 A 
BRANCH  21  24
ATOM     24  O   UNL     1      -3.510   0.916  -0.122  0.00  0.00    -0.507 OA
ATOM     25  H   UNL     1      -3.851   0.730  -1.008  0.00  0.00    +0.292 HD
ENDBRANCH  21  24
BRANCH  22  26
ATOM     26  C   UNL     1      -1.913  -1.368   0.316  0.00  0.00    -0.039 C 
BRANCH  26  27
ATOM     27  N   UNL     1      -2.257  -1.574   1.729  0.00  0.00    +0.382 N 
ATOM     28  H   UNL     1      -1.455  -1.366   2.304  0.00  0.00    -0.081 HD
BRANCH  27  29
ATOM     29  C   UNL     1      -3.368  -0.686   2.097  0.00  0.00    -0.082 C 
ATOM     30  C   UNL     1      -4.623  -1.090   1.322  0.00  0.00    -0.017 C 
ENDBRANCH  27  29
BRANCH  27  31
ATOM     31  C   UNL     1      -2.659  -2.972   1.936  0.00  0.00    -0.082 C 
ATOM     32  C   UNL     1      -2.917  -3.213   3.425  0.00  0.00    -0.017 C 
ENDBRANCH  27  31
ENDBRANCH  26  27
ENDBRANCH  22  26
ENDBRANCH   1  18
BRANCH   1  34
ATOM     33  C   UNL     1       3.125  -0.022   1.536  0.00  0.00    +0.009 C 
ATOM     34  C   UNL     1       2.782   1.460   1.369  0.00  0.00    +0.032 C 
ENDBRANCH   1  34
BRANCH   2  35
ATOM     35  C   UNL     1       1.994   2.082  -2.360  0.00  0.00    +0.032 C 
ATOM     36  C   UNL     1       2.186   0.760  -3.108  0.00  0.00    +0.009 C 
ENDBRANCH   2  35
TORSDOF 14
