REMARK  Name = CHEMBL1087398
REMARK  5 active torsions:
REMARK  status: ('A' for Active; 'I' for Inactive)
REMARK    1  A    between atoms: C_1  and  C_2
REMARK    2  A    between atoms: C_2  and  C_4
REMARK    3  A    between atoms: C_2  and  N_11
REMARK    4  A    between atoms: C_16  and  N_18
REMARK    5  A    between atoms: C_28  and  C_30
REMARK                            x       y       z     vdW  Elec       q    Type
REMARK                         _______ _______ _______ _____ _____    ______ ____
ROOT
ATOM      1  N   UNL     1       0.706  -0.480   1.144  0.00  0.00    -0.305 N 
ATOM      2  C   UNL     1       0.049  -0.637   2.352  0.00  0.00    +0.219 A 
ATOM      3  N   UNL     1      -1.243  -0.351   2.425  0.00  0.00    -0.199 NA
ATOM      4  C   UNL     1      -1.908  -0.490   3.569  0.00  0.00    +0.131 A 
ATOM      5  C   UNL     1      -1.229  -0.943   4.697  0.00  0.00    +0.087 A 
ATOM      6  C   UNL     1       0.128  -1.233   4.581  0.00  0.00    +0.128 A 
ATOM      7  N   UNL     1       0.726  -1.074   3.402  0.00  0.00    -0.199 NA
ATOM      8  N   UNL     1      -3.261  -0.188   3.637  0.00  0.00    -0.278 N 
ATOM      9  C   UNL     1      -3.903   0.361   2.543  0.00  0.00    +0.165 A 
ATOM     10  N   UNL     1      -3.416   0.577   1.335  0.00  0.00    -0.232 NA
ATOM     11  C   UNL     1      -4.149   1.110   0.388  0.00  0.00    +0.139 A 
ATOM     12  C   UNL     1      -5.455   1.432   0.726  0.00  0.00    +0.110 A 
ATOM     13  S   UNL     1      -5.491   0.906   2.433  0.00  0.00    -0.042 S 
ATOM     14  H   UNL     1       1.651  -0.689   1.075  0.00  0.00    +0.150 HD
ATOM     15  H   UNL     1      -3.757  -0.362   4.453  0.00  0.00    +0.155 HD
ENDROOT
BRANCH   6  16
ATOM     16  N   UNL     1       0.845  -1.686   5.677  0.00  0.00    -0.311 N 
ATOM     17  C   UNL     1       2.312  -1.791   5.632  0.00  0.00    +0.134 C 
ATOM     18  C   UNL     1       2.886  -1.084   6.865  0.00  0.00    +0.178 C 
ATOM     19  O   UNL     1       2.249  -1.594   8.039  0.00  0.00    -0.377 OA
ATOM     20  C   UNL     1       0.840  -1.354   8.091  0.00  0.00    +0.178 C 
ATOM     21  C   UNL     1       0.162  -2.070   6.923  0.00  0.00    +0.134 C 
ENDBRANCH   6  16
BRANCH   1  23
ATOM     22  C   UNL     1      -0.058   1.532  -0.018  0.00  0.00    +0.034 C 
ATOM     23  C   UNL     1      -0.025   0.002  -0.030  0.00  0.00    +0.119 C 
BRANCH  23  24
ATOM     24  C   UNL     1       0.666  -0.474  -1.282  0.00  0.00    +0.061 A 
ATOM     25  C   UNL     1      -0.057  -0.604  -2.454  0.00  0.00    +0.028 A 
ATOM     26  C   UNL     1       0.586  -1.042  -3.600  0.00  0.00    +0.042 A 
ATOM     27  C   UNL     1       1.941  -1.337  -3.525  0.00  0.00    +0.141 A 
ATOM     28  C   UNL     1       2.598  -1.183  -2.317  0.00  0.00    +0.149 A 
ATOM     29  N   UNL     1       1.953  -0.757  -1.248  0.00  0.00    -0.255 NA
ATOM     30  F   UNL     1       2.609  -1.768  -4.617  0.00  0.00    -0.204 F 
ENDBRANCH  23  24
ENDBRANCH   1  23
BRANCH  12  31
ATOM     31  C   UNL     1      -6.489   2.017  -0.072  0.00  0.00    +0.108 C 
ATOM     32  N   UNL     1      -7.310   2.482  -0.706  0.00  0.00    -0.190 NA
ENDBRANCH  12  31
TORSDOF 4
