REMARK  Name = CHEMBL576486
REMARK  2 active torsions:
REMARK  status: ('A' for Active; 'I' for Inactive)
REMARK    1  A    between atoms: C_5  and  C_11
REMARK    2  A    between atoms: C_13  and  N_17
REMARK                            x       y       z     vdW  Elec       q    Type
REMARK                         _______ _______ _______ _____ _____    ______ ____
ROOT
ATOM      1  C   UNL     1       1.247  -4.294  -0.096  0.00  0.00    +0.039 A 
ATOM      2  C   UNL     1       2.640  -4.432  -0.106  0.00  0.00    +0.114 A 
ATOM      3  N   UNL     1       3.409  -3.366  -0.092  0.00  0.00    -0.235 NA
ATOM      4  C   UNL     1       2.880  -2.140  -0.069  0.00  0.00    +0.167 A 
ATOM      5  C   UNL     1       3.456  -0.861  -0.050  0.00  0.00    +0.086 A 
ATOM      6  C   UNL     1       2.399   0.068  -0.029  0.00  0.00    +0.150 A 
ATOM      7  N   UNL     1       1.261  -0.590  -0.034  0.00  0.00    -0.150 NA
ATOM      8  N   UNL     1       1.522  -1.965  -0.058  0.00  0.00    -0.219 N 
ATOM      9  C   UNL     1       0.700  -3.052  -0.072  0.00  0.00    +0.116 A 
ATOM     10  N   UNL     1       2.536   1.455  -0.005  0.00  0.00    -0.341 N 
ATOM     11  H   UNL     1       3.416   1.857  -0.077  0.00  0.00    +0.144 HD
ATOM     12  H   UNL     1       1.751   2.019   0.083  0.00  0.00    +0.144 HD
ENDROOT
BRANCH   5  13
ATOM     13  C   UNL     1       4.898  -0.549  -0.052  0.00  0.00    +0.083 A 
ATOM     14  C   UNL     1       5.846  -1.572   0.033  0.00  0.00    +0.072 A 
ATOM     15  C   UNL     1       7.193  -1.223   0.026  0.00  0.00    +0.125 A 
ATOM     16  N   UNL     1       7.527   0.064  -0.061  0.00  0.00    -0.221 NA
ATOM     17  C   UNL     1       6.604   1.001  -0.140  0.00  0.00    +0.223 A 
ATOM     18  N   UNL     1       5.319   0.716  -0.142  0.00  0.00    -0.235 NA
BRANCH  15  19
ATOM     19  N   UNL     1       8.173  -2.200   0.109  0.00  0.00    -0.311 N 
ATOM     20  C   UNL     1       9.584  -1.841   0.320  0.00  0.00    +0.134 C 
ATOM     21  C   UNL     1      10.126  -2.675   1.486  0.00  0.00    +0.178 C 
ATOM     22  O   UNL     1       9.852  -4.057   1.244  0.00  0.00    -0.377 OA
ATOM     23  C   UNL     1       8.460  -4.374   1.172  0.00  0.00    +0.178 C 
ATOM     24  C   UNL     1       7.831  -3.627  -0.004  0.00  0.00    +0.134 C 
ENDBRANCH  15  19
ENDBRANCH   5  13
TORSDOF 2
