REMARK  Name = CHEMBL1082023
REMARK  6 active torsions:
REMARK  status: ('A' for Active; 'I' for Inactive)
REMARK    1  A    between atoms: C_1  and  C_2
REMARK    2  A    between atoms: C_4  and  C_16
REMARK    3  A    between atoms: C_7  and  C_8
REMARK    4  A    between atoms: N_25  and  C_26
REMARK    5  A    between atoms: C_29  and  N_32
REMARK    6  A    between atoms: N_35  and  C_38
REMARK                            x       y       z     vdW  Elec       q    Type
REMARK                         _______ _______ _______ _____ _____    ______ ____
ROOT
ATOM      1  C   UNL     1      -0.540  -2.564  -2.789  0.00  0.00    +0.027 A 
ATOM      2  C   UNL     1      -1.666  -2.479  -3.605  0.00  0.00    +0.012 A 
ATOM      3  C   UNL     1      -1.732  -3.201  -4.782  0.00  0.00    +0.003 A 
ATOM      4  C   UNL     1      -0.685  -4.014  -5.165  0.00  0.00    +0.031 A 
ATOM      5  C   UNL     1       0.452  -4.113  -4.361  0.00  0.00    +0.112 A 
ATOM      6  C   UNL     1       0.527  -3.380  -3.169  0.00  0.00    +0.165 A 
ATOM      7  O   UNL     1       1.728  -3.667  -2.618  0.00  0.00    -0.424 OA
ATOM      8  C   UNL     1       2.366  -4.529  -3.429  0.00  0.00    +0.293 A 
ATOM      9  N   UNL     1       1.617  -4.810  -4.464  0.00  0.00    -0.195 NA
ATOM     10  N   UNL     1       3.620  -5.050  -3.197  0.00  0.00    -0.269 N 
ATOM     11  H   UNL     1       4.124  -4.773  -2.415  0.00  0.00    +0.157 HD
ENDROOT
BRANCH   1  15
ATOM     12  C   UNL     1      -1.027   1.770  -0.366  0.00  0.00    +0.044 C 
ATOM     13  C   UNL     1      -0.708   0.297  -0.362  0.00  0.00    -0.038 A 
ATOM     14  C   UNL     1      -0.770  -0.424  -1.532  0.00  0.00    +0.012 A 
ATOM     15  C   UNL     1      -0.473  -1.788  -1.529  0.00  0.00    -0.014 A 
ATOM     16  C   UNL     1      -0.115  -2.422  -0.338  0.00  0.00    +0.009 A 
ATOM     17  C   UNL     1      -0.052  -1.702   0.834  0.00  0.00    +0.014 A 
ATOM     18  C   UNL     1      -0.343  -0.335   0.830  0.00  0.00    +0.040 A 
BRANCH  18  19
ATOM     19  C   UNL     1      -0.270   0.439   2.085  0.00  0.00    +0.247 C 
ATOM     20  O   UNL     1      -1.196   1.158   2.410  0.00  0.00    -0.270 OA
ATOM     21  N   UNL     1       0.822   0.350   2.870  0.00  0.00    -0.293 N 
ATOM     22  C   UNL     1       2.006  -0.409   2.437  0.00  0.00    +0.136 C 
ATOM     23  C   UNL     1       3.241   0.483   2.608  0.00  0.00    +0.179 C 
ATOM     24  O   UNL     1       3.269   0.996   3.942  0.00  0.00    -0.377 OA
ATOM     25  C   UNL     1       2.156   1.831   4.271  0.00  0.00    +0.179 C 
ATOM     26  C   UNL     1       0.867   1.013   4.183  0.00  0.00    +0.136 C 
ENDBRANCH  18  19
ENDBRANCH   1  15
BRANCH  10  27
ATOM     27  C   UNL     1       4.168  -5.980  -4.089  0.00  0.00    +0.035 A 
ATOM     28  C   UNL     1       3.840  -5.926  -5.437  0.00  0.00    +0.025 A 
ATOM     29  C   UNL     1       4.380  -6.843  -6.317  0.00  0.00    +0.025 A 
ATOM     30  C   UNL     1       5.253  -7.819  -5.854  0.00  0.00    +0.030 A 
ATOM     31  C   UNL     1       5.582  -7.873  -4.506  0.00  0.00    +0.025 A 
ATOM     32  C   UNL     1       5.045  -6.953  -3.627  0.00  0.00    +0.025 A 
BRANCH  30  33
ATOM     33  N   UNL     1       5.800  -8.748  -6.746  0.00  0.00    -0.327 N 
ATOM     34  C   UNL     1       6.614  -9.872  -6.259  0.00  0.00    +0.120 C 
ATOM     35  C   UNL     1       6.065 -11.169  -6.863  0.00  0.00    +0.103 C 
ATOM     36  N   UNL     1       6.001 -11.035  -8.325  0.00  0.00    -0.302 NA
ATOM     37  C   UNL     1       5.067  -9.973  -8.722  0.00  0.00    +0.103 C 
ATOM     38  C   UNL     1       5.571  -8.630  -8.194  0.00  0.00    +0.120 C 
ATOM     39  C   UNL     1       5.643 -12.313  -8.955  0.00  0.00    +0.105 C 
ENDBRANCH  30  33
ENDBRANCH  10  27
TORSDOF 4
