REMARK  Name = CHEMBL1081443
REMARK  8 active torsions:
REMARK  status: ('A' for Active; 'I' for Inactive)
REMARK    1  A    between atoms: C_1  and  O_2
REMARK    2  A    between atoms: O_2  and  C_3
REMARK    3  A    between atoms: C_5  and  N_13
REMARK    4  A    between atoms: C_7  and  O_11
REMARK    5  A    between atoms: C_8  and  O_9
REMARK    6  A    between atoms: O_9  and  C_10
REMARK    7  A    between atoms: O_11  and  C_12
REMARK    8  A    between atoms: C_20  and  C_23
REMARK                            x       y       z     vdW  Elec       q    Type
REMARK                         _______ _______ _______ _____ _____    ______ ____
ROOT
ATOM      1  N   UNL     1       2.361   0.321  -4.157  0.00  0.00    -0.269 N 
ATOM      2  C   UNL     1       3.063  -0.285  -5.176  0.00  0.00    +0.293 A 
ATOM      3  N   UNL     1       3.172  -1.578  -5.346  0.00  0.00    -0.195 NA
ATOM      4  C   UNL     1       3.935  -1.810  -6.449  0.00  0.00    +0.112 A 
ATOM      5  C   UNL     1       4.372  -2.971  -7.091  0.00  0.00    +0.031 A 
ATOM      6  C   UNL     1       5.156  -2.880  -8.222  0.00  0.00    +0.003 A 
ATOM      7  C   UNL     1       5.515  -1.644  -8.731  0.00  0.00    +0.014 A 
ATOM      8  C   UNL     1       5.089  -0.475  -8.105  0.00  0.00    +0.045 A 
ATOM      9  C   UNL     1       4.295  -0.555  -6.959  0.00  0.00    +0.166 A 
ATOM     10  O   UNL     1       3.731   0.365  -6.145  0.00  0.00    -0.424 OA
ATOM     11  H   UNL     1       2.256   1.285  -4.148  0.00  0.00    +0.157 HD
ENDROOT
BRANCH   1  14
ATOM     12  C   UNL     1       1.851  -2.412  -1.744  0.00  0.00    +0.167 A 
ATOM     13  C   UNL     1       2.406  -1.644  -2.755  0.00  0.00    +0.073 A 
ATOM     14  C   UNL     1       1.800  -0.454  -3.136  0.00  0.00    +0.042 A 
ATOM     15  C   UNL     1       0.638  -0.033  -2.503  0.00  0.00    +0.073 A 
ATOM     16  C   UNL     1       0.083  -0.800  -1.491  0.00  0.00    +0.167 A 
ATOM     17  C   UNL     1       0.685  -1.994  -1.113  0.00  0.00    +0.204 A 
BRANCH  12  19
ATOM     18  C   UNL     1       3.639  -3.947  -2.062  0.00  0.00    +0.277 C 
ATOM     19  O   UNL     1       2.444  -3.578  -1.372  0.00  0.00    -0.491 OA
ENDBRANCH  12  19
BRANCH  17  20
ATOM     20  O   UNL     1       0.137  -2.750  -0.123  0.00  0.00    -0.488 OA
ATOM     21  C   UNL     1       0.568  -2.482   1.213  0.00  0.00    +0.277 C 
ENDBRANCH  17  20
BRANCH  16  22
ATOM     22  O   UNL     1      -1.055  -0.386  -0.871  0.00  0.00    -0.491 OA
ATOM     23  C   UNL     1      -1.624   0.848  -1.314  0.00  0.00    +0.277 C 
ENDBRANCH  16  22
ENDBRANCH   1  14
BRANCH   8  24
ATOM     24  C   UNL     1       5.476   0.847  -8.652  0.00  0.00    +0.075 A 
ATOM     25  C   UNL     1       6.265   0.916  -9.800  0.00  0.00    +0.028 A 
ATOM     26  C   UNL     1       6.618   2.157 -10.299  0.00  0.00    +0.004 A 
ATOM     27  C   UNL     1       6.171   3.291  -9.633  0.00  0.00    +0.020 A 
ATOM     28  C   UNL     1       5.392   3.149  -8.500  0.00  0.00    +0.111 A 
ATOM     29  N   UNL     1       5.065   1.955  -8.049  0.00  0.00    -0.255 NA
ENDBRANCH   8  24
TORSDOF 5
