REMARK  Name = CHEMBL392998
REMARK  7 active torsions:
REMARK  status: ('A' for Active; 'I' for Inactive)
REMARK    1  A    between atoms: C_1  and  C_2
REMARK    2  A    between atoms: C_2  and  C_4
REMARK    3  A    between atoms: C_2  and  N_10
REMARK    4  A    between atoms: C_14  and  C_30
REMARK    5  A    between atoms: N_15  and  C_29
REMARK    6  A    between atoms: N_32  and  S_33
REMARK    7  A    between atoms: S_33  and  C_36
REMARK                            x       y       z     vdW  Elec       q    Type
REMARK                         _______ _______ _______ _____ _____    ______ ____
ROOT
ATOM      1  N   UNL     1       0.711  -0.489   1.189  0.00  0.00    -0.322 N 
ATOM      2  C   UNL     1       0.035  -0.637   2.384  0.00  0.00    +0.134 A 
ATOM      3  C   UNL     1       0.702  -1.097   3.537  0.00  0.00    +0.059 A 
ATOM      4  C   UNL     1       2.028  -1.490   3.820  0.00  0.00    +0.046 A 
ATOM      5  C   UNL     1       2.080  -1.844   5.132  0.00  0.00    +0.112 A 
ATOM      6  N   UNL     1       0.825  -1.687   5.692  0.00  0.00    -0.324 N 
ATOM      7  C   UNL     1      -0.035  -1.230   4.731  0.00  0.00    +0.148 A 
ATOM      8  N   UNL     1      -1.328  -0.916   4.724  0.00  0.00    -0.194 NA
ATOM      9  C   UNL     1      -1.913  -0.488   3.619  0.00  0.00    +0.240 A 
ATOM     10  N   UNL     1      -1.257  -0.344   2.475  0.00  0.00    -0.196 NA
ATOM     11  N   UNL     1      -3.268  -0.172   3.658  0.00  0.00    -0.267 N 
ATOM     12  C   UNL     1      -4.086  -0.251   4.746  0.00  0.00    +0.182 A 
ATOM     13  N   UNL     1      -5.293   0.120   4.426  0.00  0.00    -0.345 N 
ATOM     14  C   UNL     1      -5.333   0.463   3.117  0.00  0.00    +0.067 A 
ATOM     15  C   UNL     1      -4.034   0.287   2.603  0.00  0.00    +0.092 A 
ATOM     16  C   UNL     1      -3.794   0.576   1.270  0.00  0.00    +0.139 A 
ATOM     17  N   UNL     1      -4.771   1.012   0.499  0.00  0.00    -0.261 NA
ATOM     18  C   UNL     1      -6.001   1.190   0.950  0.00  0.00    +0.113 A 
ATOM     19  C   UNL     1      -6.330   0.923   2.250  0.00  0.00    +0.047 A 
ATOM     20  C   UNL     1       0.473  -1.964   7.087  0.00  0.00    +0.151 C 
ATOM     21  H   UNL     1       1.654  -0.707   1.135  0.00  0.00    +0.148 HD
ATOM     22  H   UNL     1      -6.048   0.147   5.034  0.00  0.00    +0.167 HD
ENDROOT
BRANCH   5  23
ATOM     23  C   UNL     1       3.279  -2.317   5.841  0.00  0.00    +0.312 C 
ATOM     24  O   UNL     1       3.205  -2.641   7.153  0.00  0.00    -0.262 OA
ATOM     25  N   UNL     1       4.412  -2.425   5.206  0.00  0.00    -0.084 NA
BRANCH  25  26
ATOM     26  S   UNL     1       5.761  -2.959   6.004  0.00  0.00    +0.102 S 
ATOM     27  O   UNL     1       6.082  -1.966   6.969  0.00  0.00    -0.146 OA
ATOM     28  O   UNL     1       5.515  -4.313   6.358  0.00  0.00    -0.146 OA
BRANCH  26  29
ATOM     29  C   UNL     1       7.084  -2.975   4.840  0.00  0.00    +0.113 A 
ATOM     30  C   UNL     1       7.327  -4.107   4.086  0.00  0.00    +0.029 A 
ATOM     31  C   UNL     1       8.364  -4.120   3.172  0.00  0.00    +0.002 A 
ATOM     32  C   UNL     1       9.158  -3.000   3.013  0.00  0.00    +0.000 A 
ATOM     33  C   UNL     1       8.915  -1.867   3.767  0.00  0.00    +0.002 A 
ATOM     34  C   UNL     1       7.875  -1.853   4.677  0.00  0.00    +0.029 A 
ENDBRANCH  26  29
ENDBRANCH  25  26
ENDBRANCH   5  23
BRANCH   1  36
ATOM     35  C   UNL     1      -0.019   1.526   0.010  0.00  0.00    +0.033 C 
ATOM     36  C   UNL     1       0.002  -0.004   0.002  0.00  0.00    +0.099 C 
BRANCH  36  37
ATOM     37  C   UNL     1       0.707  -0.490  -1.238  0.00  0.00    -0.028 A 
ATOM     38  C   UNL     1       2.089  -0.511  -1.284  0.00  0.00    +0.005 A 
ATOM     39  C   UNL     1       2.736  -0.957  -2.421  0.00  0.00    +0.000 A 
ATOM     40  C   UNL     1       2.002  -1.382  -3.512  0.00  0.00    +0.000 A 
ATOM     41  C   UNL     1       0.620  -1.362  -3.466  0.00  0.00    +0.000 A 
ATOM     42  C   UNL     1      -0.027  -0.920  -2.327  0.00  0.00    +0.005 A 
ENDBRANCH  36  37
ENDBRANCH   1  36
TORSDOF 5
