REMARK  Name = CHEMBL583030
REMARK  3 active torsions:
REMARK  status: ('A' for Active; 'I' for Inactive)
REMARK    1  A    between atoms: C_3  and  C_7
REMARK    2  A    between atoms: C_7  and  N_8
REMARK    3  A    between atoms: C_11  and  C_15
REMARK                            x       y       z     vdW  Elec       q    Type
REMARK                         _______ _______ _______ _____ _____    ______ ____
ROOT
ATOM      1  N   UNL     1       4.130   2.291   1.355  0.00  0.00    -0.325 N 
ATOM      2  C   UNL     1       5.341   2.920   1.600  0.00  0.00    +0.123 A 
ATOM      3  C   UNL     1       6.135   3.357   0.544  0.00  0.00    +0.072 A 
ATOM      4  C   UNL     1       7.346   3.986   0.845  0.00  0.00    +0.083 A 
ATOM      5  N   UNL     1       7.692   4.143   2.127  0.00  0.00    -0.235 NA
ATOM      6  C   UNL     1       6.909   3.713   3.094  0.00  0.00    +0.223 A 
ATOM      7  N   UNL     1       5.758   3.120   2.849  0.00  0.00    -0.221 NA
ATOM      8  H   UNL     1       3.580   1.993   2.096  0.00  0.00    +0.148 HD
ENDROOT
BRANCH   4   9
ATOM      9  C   UNL     1       8.228   4.470  -0.234  0.00  0.00    +0.086 A 
ATOM     10  C   UNL     1       9.419   5.203  -0.076  0.00  0.00    +0.150 A 
ATOM     11  N   UNL     1       9.922   5.449  -1.266  0.00  0.00    -0.150 NA
ATOM     12  N   UNL     1       9.090   4.892  -2.244  0.00  0.00    -0.219 N 
ATOM     13  C   UNL     1       8.042   4.279  -1.612  0.00  0.00    +0.167 A 
ATOM     14  N   UNL     1       7.091   3.657  -2.314  0.00  0.00    -0.235 NA
ATOM     15  C   UNL     1       7.141   3.616  -3.627  0.00  0.00    +0.114 A 
ATOM     16  C   UNL     1       8.199   4.228  -4.310  0.00  0.00    +0.039 A 
ATOM     17  C   UNL     1       9.166   4.869  -3.605  0.00  0.00    +0.116 A 
ATOM     18  N   UNL     1       9.972   5.604   1.139  0.00  0.00    -0.341 N 
ATOM     19  H   UNL     1       9.570   5.315   1.973  0.00  0.00    +0.144 HD
ATOM     20  H   UNL     1      10.759   6.171   1.150  0.00  0.00    +0.144 HD
ENDBRANCH   4   9
BRANCH   1  21
ATOM     21  C   UNL     1       3.682   2.076  -0.023  0.00  0.00    +0.139 C 
BRANCH  21  24
ATOM     22  C   UNL     1      -0.035   1.427   0.014  0.00  0.00    +0.020 A 
ATOM     23  C   UNL     1       1.170   2.112   0.006  0.00  0.00    +0.008 A 
ATOM     24  C   UNL     1       2.346   1.378  -0.013  0.00  0.00    -0.012 A 
ATOM     25  C   UNL     1       2.278  -0.002  -0.025  0.00  0.00    +0.115 A 
ATOM     26  N   UNL     1       1.113  -0.620  -0.018  0.00  0.00    -0.263 NA
ATOM     27  C   UNL     1      -0.025   0.045   0.002  0.00  0.00    +0.111 A 
ENDBRANCH  21  24
ENDBRANCH   1  21
TORSDOF 3
