REMARK  Name = CHEMBL583895
REMARK  4 active torsions:
REMARK  status: ('A' for Active; 'I' for Inactive)
REMARK    1  A    between atoms: C_1  and  C_2
REMARK    2  A    between atoms: C_2  and  C_4
REMARK    3  A    between atoms: C_2  and  N_11
REMARK    4  A    between atoms: C_14  and  C_18
REMARK                            x       y       z     vdW  Elec       q    Type
REMARK                         _______ _______ _______ _____ _____    ______ ____
ROOT
ATOM      1  N   UNL     1      -1.380  -0.489   0.011  0.00  0.00    -0.322 N 
ATOM      2  C   UNL     1      -2.052  -0.646   1.213  0.00  0.00    +0.123 A 
ATOM      3  C   UNL     1      -1.435  -0.312   2.414  0.00  0.00    +0.072 A 
ATOM      4  C   UNL     1      -2.156  -0.488   3.598  0.00  0.00    +0.083 A 
ATOM      5  N   UNL     1      -3.402  -0.968   3.531  0.00  0.00    -0.235 NA
ATOM      6  C   UNL     1      -3.946  -1.271   2.371  0.00  0.00    +0.223 A 
ATOM      7  N   UNL     1      -3.299  -1.113   1.234  0.00  0.00    -0.221 NA
ATOM      8  H   UNL     1      -1.818  -0.721  -0.824  0.00  0.00    +0.148 HD
ENDROOT
BRANCH   4   9
ATOM      9  C   UNL     1      -1.552  -0.151   4.902  0.00  0.00    +0.086 A 
ATOM     10  C   UNL     1      -2.192  -0.184   6.154  0.00  0.00    +0.150 A 
ATOM     11  N   UNL     1      -1.330   0.181   7.077  0.00  0.00    -0.150 NA
ATOM     12  N   UNL     1      -0.100   0.465   6.473  0.00  0.00    -0.219 N 
ATOM     13  C   UNL     1      -0.229   0.257   5.126  0.00  0.00    +0.167 A 
ATOM     14  N   UNL     1       0.806   0.452   4.304  0.00  0.00    -0.235 NA
ATOM     15  C   UNL     1       1.971   0.845   4.768  0.00  0.00    +0.114 A 
ATOM     16  C   UNL     1       2.143   1.066   6.140  0.00  0.00    +0.039 A 
ATOM     17  C   UNL     1       1.096   0.877   6.982  0.00  0.00    +0.116 A 
ATOM     18  N   UNL     1      -3.521  -0.543   6.379  0.00  0.00    -0.341 N 
ATOM     19  H   UNL     1      -4.066  -0.870   5.646  0.00  0.00    +0.144 HD
ATOM     20  H   UNL     1      -3.900  -0.467   7.269  0.00  0.00    +0.144 HD
ENDBRANCH   4   9
BRANCH   1  22
ATOM     21  C   UNL     1      -0.038   1.555   0.014  0.00  0.00    +0.033 C 
ATOM     22  C   UNL     1      -0.008   0.025  -0.000  0.00  0.00    +0.099 C 
BRANCH  22  23
ATOM     23  C   UNL     1       0.698  -0.452  -1.244  0.00  0.00    -0.027 A 
ATOM     24  C   UNL     1       0.025  -0.482  -2.451  0.00  0.00    +0.008 A 
ATOM     25  C   UNL     1       0.671  -0.919  -3.592  0.00  0.00    +0.038 A 
ATOM     26  C   UNL     1       1.993  -1.327  -3.525  0.00  0.00    +0.123 A 
ATOM     27  C   UNL     1       2.665  -1.296  -2.315  0.00  0.00    +0.038 A 
ATOM     28  C   UNL     1       2.019  -0.854  -1.177  0.00  0.00    +0.008 A 
ATOM     29  F   UNL     1       2.626  -1.754  -4.639  0.00  0.00    -0.205 F 
ENDBRANCH  22  23
ENDBRANCH   1  22
TORSDOF 3
