REMARK  Name = CHEMBL375205
REMARK  5 active torsions:
REMARK  status: ('A' for Active; 'I' for Inactive)
REMARK    1  A    between atoms: C_1  and  C_2
REMARK    2  A    between atoms: C_2  and  C_4
REMARK    3  A    between atoms: C_2  and  N_10
REMARK    4  A    between atoms: C_13  and  C_28
REMARK    5  A    between atoms: C_23  and  C_26
REMARK                            x       y       z     vdW  Elec       q    Type
REMARK                         _______ _______ _______ _____ _____    ______ ____
ROOT
ATOM      1  N   UNL     1       0.711  -0.489   1.189  0.00  0.00    -0.322 N 
ATOM      2  C   UNL     1       0.033  -0.638   2.389  0.00  0.00    +0.125 A 
ATOM      3  C   UNL     1      -1.325  -0.333   2.475  0.00  0.00    +0.072 A 
ATOM      4  C   UNL     1      -1.963  -0.498   3.703  0.00  0.00    +0.081 A 
ATOM      5  N   UNL     1      -1.258  -0.939   4.745  0.00  0.00    -0.212 NA
ATOM      6  C   UNL     1       0.029  -1.217   4.623  0.00  0.00    +0.239 A 
ATOM      7  N   UNL     1       0.667  -1.077   3.472  0.00  0.00    -0.197 NA
ATOM      8  N   UNL     1       0.732  -1.674   5.735  0.00  0.00    -0.267 N 
ATOM      9  C   UNL     1       0.225  -1.882   6.984  0.00  0.00    +0.207 A 
ATOM     10  N   UNL     1       1.159  -2.312   7.780  0.00  0.00    -0.235 NA
ATOM     11  C   UNL     1       2.331  -2.412   7.103  0.00  0.00    +0.089 A 
ATOM     12  C   UNL     1       2.075  -2.009   5.779  0.00  0.00    +0.077 A 
ATOM     13  C   UNL     1       3.095  -2.012   4.845  0.00  0.00    +0.047 A 
ATOM     14  C   UNL     1       4.374  -2.418   5.224  0.00  0.00    +0.054 A 
ATOM     15  C   UNL     1       4.621  -2.821   6.544  0.00  0.00    +0.021 A 
ATOM     16  C   UNL     1       3.620  -2.812   7.468  0.00  0.00    +0.031 A 
ATOM     17  H   UNL     1       1.654  -0.707   1.135  0.00  0.00    +0.148 HD
ENDROOT
BRANCH   4  18
ATOM     18  C   UNL     1      -3.405  -0.188   3.848  0.00  0.00    +0.038 A 
ATOM     19  C   UNL     1      -4.195  -0.204   5.085  0.00  0.00    +0.051 A 
ATOM     20  C   UNL     1      -5.444   0.142   4.732  0.00  0.00    +0.195 A 
ATOM     21  O   UNL     1      -5.478   0.363   3.409  0.00  0.00    -0.470 OA
ATOM     22  C   UNL     1      -4.269   0.176   2.864  0.00  0.00    +0.204 A 
ENDBRANCH   4  18
BRANCH   1  24
ATOM     23  C   UNL     1      -0.019   1.526   0.010  0.00  0.00    +0.033 C 
ATOM     24  C   UNL     1       0.002  -0.004   0.002  0.00  0.00    +0.099 C 
BRANCH  24  25
ATOM     25  C   UNL     1       0.707  -0.490  -1.238  0.00  0.00    -0.028 A 
ATOM     26  C   UNL     1       2.089  -0.511  -1.284  0.00  0.00    +0.005 A 
ATOM     27  C   UNL     1       2.736  -0.957  -2.421  0.00  0.00    +0.000 A 
ATOM     28  C   UNL     1       2.002  -1.382  -3.512  0.00  0.00    +0.000 A 
ATOM     29  C   UNL     1       0.620  -1.362  -3.466  0.00  0.00    +0.000 A 
ATOM     30  C   UNL     1      -0.027  -0.920  -2.327  0.00  0.00    +0.005 A 
ENDBRANCH  24  25
ENDBRANCH   1  24
BRANCH  14  31
ATOM     31  C   UNL     1       5.436  -2.425   4.264  0.00  0.00    +0.099 C 
ATOM     32  N   UNL     1       6.279  -2.430   3.502  0.00  0.00    -0.191 NA
ENDBRANCH  14  31
TORSDOF 4
