REMARK  Name = CHEMBL482189
REMARK  8 active torsions:
REMARK  status: ('A' for Active; 'I' for Inactive)
REMARK    1  A    between atoms: C_1  and  C_2
REMARK    2  A    between atoms: C_2  and  C_3
REMARK    3  A    between atoms: C_2  and  C_4
REMARK    4  A    between atoms: C_2  and  N_5
REMARK    5  A    between atoms: N_5  and  S_6
REMARK    6  A    between atoms: S_6  and  C_9
REMARK    7  A    between atoms: C_12  and  C_16
REMARK    8  A    between atoms: C_22  and  N_26
REMARK                            x       y       z     vdW  Elec       q    Type
REMARK                         _______ _______ _______ _____ _____    ______ ____
ROOT
ATOM      1  C   UNL     1       2.943  -0.208  -0.015  0.00  0.00    +0.107 A 
ATOM      2  C   UNL     1       2.885   0.507   1.169  0.00  0.00    +0.029 A 
ATOM      3  C   UNL     1       3.673   0.139   2.240  0.00  0.00    +0.012 A 
ATOM      4  C   UNL     1       4.529  -0.956   2.129  0.00  0.00    +0.001 A 
ATOM      5  C   UNL     1       4.584  -1.672   0.933  0.00  0.00    +0.051 A 
ATOM      6  C   UNL     1       3.787  -1.297  -0.130  0.00  0.00    +0.049 A 
ATOM      7 CL   UNL     1       5.647  -3.037   0.785  0.00  0.00    -0.083 Cl
ENDROOT
BRANCH   4   8
ATOM      8  C   UNL     1       5.379  -1.356   3.276  0.00  0.00    -0.016 A 
ATOM      9  C   UNL     1       6.155  -0.383   3.932  0.00  0.00    +0.011 A 
ATOM     10  C   UNL     1       6.947  -0.697   4.984  0.00  0.00    +0.031 A 
ATOM     11  C   UNL     1       7.007  -2.030   5.448  0.00  0.00    +0.094 A 
ATOM     12  C   UNL     1       6.198  -3.054   4.768  0.00  0.00    +0.042 A 
ATOM     13  C   UNL     1       5.389  -2.674   3.684  0.00  0.00    +0.022 A 
ATOM     14  C   UNL     1       6.452  -4.256   5.427  0.00  0.00    +0.119 A 
ATOM     15  N   UNL     1       7.328  -4.001   6.414  0.00  0.00    -0.263 N 
ATOM     16  N   UNL     1       7.660  -2.642   6.418  0.00  0.00    -0.172 NA
ATOM     17  H   UNL     1       7.678  -4.662   7.031  0.00  0.00    +0.190 HD
BRANCH  14  18
ATOM     18  N   UNL     1       5.901  -5.489   5.121  0.00  0.00    -0.343 N 
ATOM     19  H   UNL     1       5.273  -5.571   4.386  0.00  0.00    +0.144 HD
ATOM     20  H   UNL     1       6.142  -6.271   5.643  0.00  0.00    +0.144 HD
ENDBRANCH  14  18
ENDBRANCH   4   8
BRANCH   1  21
ATOM     21  S   UNL     1       1.933   0.269  -1.377  0.00  0.00    +0.059 S 
ATOM     22  O   UNL     1       2.439  -0.415  -2.516  0.00  0.00    -0.153 OA
ATOM     23  O   UNL     1       1.822   1.685  -1.325  0.00  0.00    -0.153 OA
BRANCH  21  24
ATOM     24  N   UNL     1       0.417  -0.335  -1.098  0.00  0.00    -0.185 NA
ATOM     25  H   UNL     1      -0.319   0.269  -0.911  0.00  0.00    +0.149 HD
BRANCH  24  27
ATOM     26  C   UNL     1       1.202  -2.481  -0.226  0.00  0.00    +0.029 C 
ATOM     27  C   UNL     1       0.186  -1.782  -1.131  0.00  0.00    +0.032 C 
ATOM     28  C   UNL     1       0.346  -2.290  -2.565  0.00  0.00    +0.029 C 
ATOM     29  C   UNL     1      -1.230  -2.084  -0.638  0.00  0.00    +0.029 C 
ENDBRANCH  24  27
ENDBRANCH  21  24
ENDBRANCH   1  21
TORSDOF 5
