REMARK  Name = CHEMBL510641
REMARK  3 active torsions:
REMARK  status: ('A' for Active; 'I' for Inactive)
REMARK    1  A    between atoms: C_1  and  C_2
REMARK    2  A    between atoms: C_3  and  C_8
REMARK    3  A    between atoms: C_5  and  C_7
REMARK                            x       y       z     vdW  Elec       q    Type
REMARK                         _______ _______ _______ _____ _____    ______ ____
ROOT
ATOM      1  C   UNL     1      -0.166  -0.392  -2.609  0.00  0.00    -0.009 A 
ATOM      2  C   UNL     1      -0.085   0.962  -2.966  0.00  0.00    +0.011 A 
ATOM      3  C   UNL     1      -0.175   1.343  -4.271  0.00  0.00    +0.028 A 
ATOM      4  C   UNL     1      -0.350   0.387  -5.271  0.00  0.00    +0.068 A 
ATOM      5  C   UNL     1      -0.433  -0.976  -4.926  0.00  0.00    +0.042 A 
ATOM      6  C   UNL     1      -0.335  -1.361  -3.588  0.00  0.00    +0.022 A 
ATOM      7  C   UNL     1      -0.613  -1.707  -6.182  0.00  0.00    +0.146 A 
ATOM      8  N   UNL     1      -0.629  -0.831  -7.151  0.00  0.00    -0.158 NA
ATOM      9  N   UNL     1      -0.472   0.459  -6.634  0.00  0.00    -0.275 N 
ATOM     10  H   UNL     1      -0.452   1.275  -7.158  0.00  0.00    +0.189 HD
ATOM     11  N   UNL     1      -0.743  -3.092  -6.319  0.00  0.00    -0.341 N 
ATOM     12  H   UNL     1      -0.717  -3.661  -5.535  0.00  0.00    +0.144 HD
ATOM     13  H   UNL     1      -0.858  -3.483  -7.199  0.00  0.00    +0.144 HD
ENDROOT
BRANCH   1  16
ATOM     14  C   UNL     1      -1.669   0.879  -0.199  0.00  0.00    +0.067 C 
ATOM     15  C   UNL     1      -0.699  -0.269  -0.087  0.00  0.00    +0.053 A 
ATOM     16  C   UNL     1      -0.066  -0.787  -1.187  0.00  0.00    +0.042 A 
ATOM     17  S   UNL     1       0.912  -2.073  -0.427  0.00  0.00    -0.072 S 
ATOM     18  C   UNL     1       0.427  -1.823   1.165  0.00  0.00    +0.076 A 
ATOM     19  N   UNL     1      -0.412  -0.821   1.072  0.00  0.00    -0.249 NA
ATOM     20  C   UNL     1       0.859  -2.568   2.402  0.00  0.00    +0.073 C 
ENDBRANCH   1  16
TORSDOF 1
