REMARK  Name = CHEMBL391492
REMARK  7 active torsions:
REMARK  status: ('A' for Active; 'I' for Inactive)
REMARK    1  A    between atoms: C_1  and  C_2
REMARK    2  A    between atoms: C_2  and  C_4
REMARK    3  A    between atoms: C_2  and  N_10
REMARK    4  A    between atoms: C_14  and  C_30
REMARK    5  A    between atoms: N_15  and  C_29
REMARK    6  A    between atoms: N_32  and  O_33
REMARK    7  A    between atoms: O_33  and  C_34
REMARK                            x       y       z     vdW  Elec       q    Type
REMARK                         _______ _______ _______ _____ _____    ______ ____
ROOT
ATOM      1  N   UNL     1       1.144  -0.611   1.142  0.00  0.00    -0.322 N 
ATOM      2  C   UNL     1       0.329  -0.723   2.250  0.00  0.00    +0.134 A 
ATOM      3  C   UNL     1       0.851  -1.144   3.490  0.00  0.00    +0.059 A 
ATOM      4  C   UNL     1       2.132  -1.522   3.943  0.00  0.00    +0.046 A 
ATOM      5  C   UNL     1       2.026  -1.834   5.264  0.00  0.00    +0.108 A 
ATOM      6  N   UNL     1       0.710  -1.664   5.662  0.00  0.00    -0.324 N 
ATOM      7  C   UNL     1      -0.025  -1.242   4.591  0.00  0.00    +0.148 A 
ATOM      8  N   UNL     1      -1.308  -0.934   4.416  0.00  0.00    -0.194 NA
ATOM      9  C   UNL     1      -1.754  -0.543   3.235  0.00  0.00    +0.240 A 
ATOM     10  N   UNL     1      -0.965  -0.433   2.174  0.00  0.00    -0.196 NA
ATOM     11  N   UNL     1      -3.103  -0.232   3.099  0.00  0.00    -0.267 N 
ATOM     12  C   UNL     1      -4.048  -0.279   4.082  0.00  0.00    +0.182 A 
ATOM     13  N   UNL     1      -5.206   0.078   3.606  0.00  0.00    -0.345 N 
ATOM     14  C   UNL     1      -5.088   0.378   2.292  0.00  0.00    +0.067 A 
ATOM     15  C   UNL     1      -3.736   0.190   1.944  0.00  0.00    +0.092 A 
ATOM     16  C   UNL     1      -3.336   0.436   0.641  0.00  0.00    +0.139 A 
ATOM     17  N   UNL     1      -4.213   0.843  -0.256  0.00  0.00    -0.261 NA
ATOM     18  C   UNL     1      -5.488   1.032   0.037  0.00  0.00    +0.113 A 
ATOM     19  C   UNL     1      -5.972   0.807   1.296  0.00  0.00    +0.047 A 
ATOM     20  C   UNL     1       0.191  -1.899   7.012  0.00  0.00    +0.151 C 
ATOM     21  H   UNL     1       2.087  -0.826   1.210  0.00  0.00    +0.148 HD
ATOM     22  H   UNL     1      -6.030   0.122   4.117  0.00  0.00    +0.167 HD
ENDROOT
BRANCH   5  23
ATOM     23  C   UNL     1       3.127  -2.278   6.126  0.00  0.00    +0.283 C 
ATOM     24  O   UNL     1       2.942  -2.430   7.319  0.00  0.00    -0.266 OA
ATOM     25  N   UNL     1       4.343  -2.518   5.596  0.00  0.00    -0.190 N 
ATOM     26  H   UNL     1       4.510  -2.327   4.660  0.00  0.00    +0.183 HD
BRANCH  25  27
ATOM     27  O   UNL     1       5.376  -3.049   6.406  0.00  0.00    -0.283 OA
ATOM     28  C   UNL     1       6.610  -3.253   5.715  0.00  0.00    +0.226 C 
ENDBRANCH  25  27
ENDBRANCH   5  23
BRANCH   1  30
ATOM     29  C   UNL     1       0.562   1.363  -0.179  0.00  0.00    +0.033 C 
ATOM     30  C   UNL     1       0.584  -0.166  -0.137  0.00  0.00    +0.099 C 
BRANCH  30  31
ATOM     31  C   UNL     1       1.435  -0.688  -1.266  0.00  0.00    -0.028 A 
ATOM     32  C   UNL     1       2.811  -0.704  -1.144  0.00  0.00    +0.005 A 
ATOM     33  C   UNL     1       3.592  -1.182  -2.180  0.00  0.00    +0.000 A 
ATOM     34  C   UNL     1       2.995  -1.645  -3.338  0.00  0.00    +0.000 A 
ATOM     35  C   UNL     1       1.618  -1.630  -3.459  0.00  0.00    +0.000 A 
ATOM     36  C   UNL     1       0.838  -1.155  -2.422  0.00  0.00    +0.005 A 
ENDBRANCH  30  31
ENDBRANCH   1  30
TORSDOF 4
