REMARK  Name = CHEMBL1081975
REMARK  8 active torsions:
REMARK  status: ('A' for Active; 'I' for Inactive)
REMARK    1  A    between atoms: C_1  and  O_2
REMARK    2  A    between atoms: O_2  and  C_3
REMARK    3  A    between atoms: C_5  and  N_13
REMARK    4  A    between atoms: C_7  and  O_11
REMARK    5  A    between atoms: C_8  and  O_9
REMARK    6  A    between atoms: O_9  and  C_10
REMARK    7  A    between atoms: O_11  and  C_12
REMARK    8  A    between atoms: C_20  and  C_23
REMARK                            x       y       z     vdW  Elec       q    Type
REMARK                         _______ _______ _______ _____ _____    ______ ____
ROOT
ATOM      1  N   UNL     1      -4.786   0.201   0.038  0.00  0.00    -0.269 N 
ATOM      2  C   UNL     1      -6.004  -0.436  -0.058  0.00  0.00    +0.293 A 
ATOM      3  N   UNL     1      -6.173  -1.734  -0.063  0.00  0.00    -0.195 NA
ATOM      4  C   UNL     1      -7.504  -2.000  -0.171  0.00  0.00    +0.112 A 
ATOM      5  C   UNL     1      -8.249  -3.180  -0.225  0.00  0.00    +0.031 A 
ATOM      6  C   UNL     1      -9.622  -3.124  -0.338  0.00  0.00    +0.003 A 
ATOM      7  C   UNL     1     -10.273  -1.904  -0.400  0.00  0.00    +0.012 A 
ATOM      8  C   UNL     1      -9.547  -0.717  -0.348  0.00  0.00    +0.027 A 
ATOM      9  C   UNL     1      -8.157  -0.762  -0.232  0.00  0.00    +0.165 A 
ATOM     10  O   UNL     1      -7.193   0.184  -0.153  0.00  0.00    -0.424 OA
ATOM     11  H   UNL     1      -4.750   1.167   0.121  0.00  0.00    +0.157 HD
ENDROOT
BRANCH   8  12
ATOM     12  C   UNL     1     -10.248   0.588  -0.414  0.00  0.00    -0.014 A 
ATOM     13  C   UNL     1      -9.963   1.582   0.536  0.00  0.00    +0.011 A 
ATOM     14  C   UNL     1     -10.590   2.786   0.497  0.00  0.00    +0.029 A 
ATOM     15  C   UNL     1     -11.541   3.053  -0.504  0.00  0.00    +0.071 A 
ATOM     16  C   UNL     1     -11.836   2.056  -1.468  0.00  0.00    +0.001 A 
ATOM     17  C   UNL     1     -11.174   0.820  -1.415  0.00  0.00    +0.018 A 
ATOM     18  C   UNL     1     -12.789   2.331  -2.467  0.00  0.00    +0.011 A 
ATOM     19  C   UNL     1     -13.392   3.557  -2.462  0.00  0.00    +0.020 A 
ATOM     20  C   UNL     1     -13.056   4.492  -1.486  0.00  0.00    +0.111 A 
ATOM     21  N   UNL     1     -12.168   4.233  -0.558  0.00  0.00    -0.255 NA
ENDBRANCH   8  12
BRANCH   1  24
ATOM     22  C   UNL     1      -2.373  -2.475  -0.719  0.00  0.00    +0.167 A 
ATOM     23  C   UNL     1      -3.546  -1.736  -0.695  0.00  0.00    +0.073 A 
ATOM     24  C   UNL     1      -3.602  -0.545   0.016  0.00  0.00    +0.042 A 
ATOM     25  C   UNL     1      -2.484  -0.093   0.703  0.00  0.00    +0.073 A 
ATOM     26  C   UNL     1      -1.310  -0.830   0.681  0.00  0.00    +0.167 A 
ATOM     27  C   UNL     1      -1.255  -2.026  -0.026  0.00  0.00    +0.204 A 
BRANCH  22  29
ATOM     28  C   UNL     1      -3.505  -4.043  -2.103  0.00  0.00    +0.277 C 
ATOM     29  O   UNL     1      -2.318  -3.642  -1.415  0.00  0.00    -0.491 OA
ENDBRANCH  22  29
BRANCH  27  30
ATOM     30  O   UNL     1      -0.104  -2.753  -0.044  0.00  0.00    -0.488 OA
ATOM     31  C   UNL     1       0.829  -2.465  -1.087  0.00  0.00    +0.277 C 
ENDBRANCH  27  30
BRANCH  26  32
ATOM     32  O   UNL     1      -0.215  -0.387   1.354  0.00  0.00    -0.491 OA
ATOM     33  C   UNL     1      -0.345   0.847   2.063  0.00  0.00    +0.277 C 
ENDBRANCH  26  32
ENDBRANCH   1  24
TORSDOF 5
