REMARK  Name = CHEMBL221029
REMARK  3 active torsions:
REMARK  status: ('A' for Active; 'I' for Inactive)
REMARK    1  A    between atoms: C_1  and  C_2
REMARK    2  A    between atoms: C_2  and  C_4
REMARK    3  A    between atoms: C_2  and  N_10
REMARK                            x       y       z     vdW  Elec       q    Type
REMARK                         _______ _______ _______ _____ _____    ______ ____
ROOT
ATOM      1  N   UNL     1      -1.372  -0.511   0.012  0.00  0.00    -0.322 N 
ATOM      2  C   UNL     1      -2.070  -0.646  -1.177  0.00  0.00    +0.124 A 
ATOM      3  C   UNL     1      -1.471  -0.308  -2.393  0.00  0.00    +0.063 A 
ATOM      4  C   UNL     1      -2.204  -0.459  -3.553  0.00  0.00    +0.118 A 
ATOM      5  N   UNL     1      -3.446  -0.917  -3.479  0.00  0.00    -0.220 NA
ATOM      6  C   UNL     1      -3.988  -1.230  -2.313  0.00  0.00    +0.238 A 
ATOM      7  N   UNL     1      -3.317  -1.105  -1.179  0.00  0.00    -0.197 NA
ATOM      8  N   UNL     1      -5.295  -1.709  -2.279  0.00  0.00    -0.267 N 
ATOM      9  C   UNL     1      -5.996  -2.068  -1.166  0.00  0.00    +0.182 A 
ATOM     10  N   UNL     1      -7.189  -2.470  -1.500  0.00  0.00    -0.345 N 
ATOM     11  C   UNL     1      -7.337  -2.397  -2.843  0.00  0.00    +0.067 A 
ATOM     12  C   UNL     1      -6.126  -1.903  -3.366  0.00  0.00    +0.092 A 
ATOM     13  C   UNL     1      -6.008  -1.724  -4.734  0.00  0.00    +0.139 A 
ATOM     14  N   UNL     1      -7.019  -2.013  -5.531  0.00  0.00    -0.261 NA
ATOM     15  C   UNL     1      -8.170  -2.475  -5.072  0.00  0.00    +0.113 A 
ATOM     16  C   UNL     1      -8.372  -2.689  -3.738  0.00  0.00    +0.047 A 
ATOM     17  H   UNL     1      -1.794  -0.752   0.852  0.00  0.00    +0.148 HD
ATOM     18  H   UNL     1      -7.870  -2.775  -0.879  0.00  0.00    +0.167 HD
ENDROOT
BRANCH   1  20
ATOM     19  C   UNL     1      -0.019   1.526   0.010  0.00  0.00    +0.033 C 
ATOM     20  C   UNL     1       0.002  -0.004   0.002  0.00  0.00    +0.099 C 
BRANCH  20  21
ATOM     21  C   UNL     1       0.731  -0.503   1.223  0.00  0.00    -0.028 A 
ATOM     22  C   UNL     1       0.081  -0.558   2.442  0.00  0.00    +0.005 A 
ATOM     23  C   UNL     1       0.749  -1.016   3.562  0.00  0.00    +0.000 A 
ATOM     24  C   UNL     1       2.068  -1.420   3.463  0.00  0.00    +0.000 A 
ATOM     25  C   UNL     1       2.718  -1.365   2.244  0.00  0.00    +0.000 A 
ATOM     26  C   UNL     1       2.048  -0.911   1.123  0.00  0.00    +0.005 A 
ENDBRANCH  20  21
ENDBRANCH   1  20
TORSDOF 2
