REMARK  Name = CHEMBL232147
REMARK  9 active torsions:
REMARK  status: ('A' for Active; 'I' for Inactive)
REMARK    1  A    between atoms: C_1  and  C_2
REMARK    2  A    between atoms: C_2  and  C_4
REMARK    3  A    between atoms: C_2  and  N_8
REMARK    4  A    between atoms: C_4  and  C_5
REMARK    5  A    between atoms: C_4  and  C_6
REMARK    6  A    between atoms: C_4  and  O_7
REMARK    7  A    between atoms: C_12  and  C_28
REMARK    8  A    between atoms: N_13  and  C_27
REMARK    9  A    between atoms: N_33  and  C_36
REMARK                            x       y       z     vdW  Elec       q    Type
REMARK                         _______ _______ _______ _____ _____    ______ ____
ROOT
ATOM      1  N   UNL     1       0.088  -2.217   1.226  0.00  0.00    -0.323 N 
ATOM      2  C   UNL     1      -0.361  -1.730   2.437  0.00  0.00    +0.134 A 
ATOM      3  C   UNL     1       0.501  -1.661   3.551  0.00  0.00    +0.059 A 
ATOM      4  C   UNL     1       1.852  -1.997   3.774  0.00  0.00    +0.046 A 
ATOM      5  C   UNL     1       2.140  -1.703   5.072  0.00  0.00    +0.107 A 
ATOM      6  N   UNL     1       1.006  -1.188   5.679  0.00  0.00    -0.324 N 
ATOM      7  C   UNL     1      -0.008  -1.154   4.765  0.00  0.00    +0.148 A 
ATOM      8  N   UNL     1      -1.279  -0.762   4.811  0.00  0.00    -0.194 NA
ATOM      9  C   UNL     1      -2.051  -0.845   3.741  0.00  0.00    +0.240 A 
ATOM     10  N   UNL     1      -1.613  -1.310   2.579  0.00  0.00    -0.196 NA
ATOM     11  N   UNL     1      -3.373  -0.423   3.837  0.00  0.00    -0.267 N 
ATOM     12  C   UNL     1      -3.982   0.088   4.945  0.00  0.00    +0.182 A 
ATOM     13  N   UNL     1      -5.223   0.379   4.679  0.00  0.00    -0.345 N 
ATOM     14  C   UNL     1      -5.498   0.076   3.389  0.00  0.00    +0.067 A 
ATOM     15  C   UNL     1      -4.315  -0.440   2.824  0.00  0.00    +0.092 A 
ATOM     16  C   UNL     1      -4.319  -0.828   1.496  0.00  0.00    +0.139 A 
ATOM     17  N   UNL     1      -5.416  -0.713   0.774  0.00  0.00    -0.261 NA
ATOM     18  C   UNL     1      -6.542  -0.231   1.272  0.00  0.00    +0.113 A 
ATOM     19  C   UNL     1      -6.631   0.170   2.575  0.00  0.00    +0.047 A 
ATOM     20  C   UNL     1       0.910  -0.752   7.075  0.00  0.00    +0.151 C 
ATOM     21  H   UNL     1       1.004  -2.521   1.135  0.00  0.00    +0.148 HD
ATOM     22  H   UNL     1      -5.855   0.756   5.311  0.00  0.00    +0.167 HD
ENDROOT
BRANCH   5  23
ATOM     23  C   UNL     1       3.441  -1.900   5.722  0.00  0.00    +0.263 C 
ATOM     24  O   UNL     1       3.502  -2.048   6.928  0.00  0.00    -0.268 OA
ATOM     25  N   UNL     1       4.567  -1.918   4.983  0.00  0.00    -0.300 N 
ATOM     26  C   UNL     1       4.539  -1.581   3.551  0.00  0.00    +0.089 C 
ATOM     27  C   UNL     1       5.623  -0.533   3.277  0.00  0.00    -0.060 C 
ATOM     28  N   UNL     1       6.918  -1.034   3.756  0.00  0.00    +0.380 N 
ATOM     29  C   UNL     1       6.883  -1.194   5.215  0.00  0.00    -0.060 C 
ATOM     30  C   UNL     1       5.862  -2.269   5.587  0.00  0.00    +0.089 C 
ATOM     31  C   UNL     1       7.974  -0.079   3.394  0.00  0.00    -0.096 C 
ATOM     32  H   UNL     1       7.112  -1.925   3.325  0.00  0.00    -0.082 HD
ENDBRANCH   5  23
BRANCH   1  34
ATOM     33  C   UNL     1      -0.829  -0.923  -0.635  0.00  0.00    +0.030 C 
ATOM     34  C   UNL     1      -0.821  -2.276   0.079  0.00  0.00    +0.100 C 
BRANCH  34  35
ATOM     35  C   UNL     1      -0.349  -3.361  -0.891  0.00  0.00    +0.078 C 
ATOM     36  C   UNL     1      -0.341  -4.715  -0.177  0.00  0.00    +0.043 C 
ATOM     37  C   UNL     1      -1.298  -3.423  -2.089  0.00  0.00    +0.043 C 
BRANCH  35  38
ATOM     38  O   UNL     1       0.971  -3.054  -1.343  0.00  0.00    -0.387 OA
ATOM     39  H   UNL     1       1.627  -2.999  -0.635  0.00  0.00    +0.210 HD
ENDBRANCH  35  38
ENDBRANCH  34  35
ENDBRANCH   1  34
TORSDOF 4
