REMARK  Name = CHEMBL568815
REMARK  4 active torsions:
REMARK  status: ('A' for Active; 'I' for Inactive)
REMARK    1  A    between atoms: C_5  and  C_11
REMARK    2  A    between atoms: C_13  and  O_17
REMARK    3  A    between atoms: O_17  and  C_18
REMARK    4  A    between atoms: C_18  and  C_19
REMARK                            x       y       z     vdW  Elec       q    Type
REMARK                         _______ _______ _______ _____ _____    ______ ____
ROOT
ATOM      1  C   UNL     1       4.867  -0.567  -0.042  0.00  0.00    +0.085 A 
ATOM      2  C   UNL     1       5.806  -1.599   0.045  0.00  0.00    +0.095 A 
ATOM      3  C   UNL     1       7.153  -1.263   0.031  0.00  0.00    +0.218 A 
ATOM      4  N   UNL     1       7.500   0.018  -0.064  0.00  0.00    -0.201 NA
ATOM      5  C   UNL     1       6.587   0.965  -0.144  0.00  0.00    +0.225 A 
ATOM      6  N   UNL     1       5.298   0.693  -0.139  0.00  0.00    -0.235 NA
ENDROOT
BRANCH   1  11
ATOM      7  C   UNL     1       1.181  -4.279  -0.053  0.00  0.00    +0.039 A 
ATOM      8  C   UNL     1       2.573  -4.430  -0.067  0.00  0.00    +0.114 A 
ATOM      9  N   UNL     1       3.352  -3.371  -0.061  0.00  0.00    -0.235 NA
ATOM     10  C   UNL     1       2.834  -2.140  -0.042  0.00  0.00    +0.167 A 
ATOM     11  C   UNL     1       3.421  -0.866  -0.033  0.00  0.00    +0.086 A 
ATOM     12  C   UNL     1       2.373   0.073  -0.013  0.00  0.00    +0.150 A 
ATOM     13  N   UNL     1       1.229  -0.576  -0.010  0.00  0.00    -0.150 NA
ATOM     14  N   UNL     1       1.478  -1.952  -0.028  0.00  0.00    -0.219 N 
ATOM     15  C   UNL     1       0.646  -3.032  -0.033  0.00  0.00    +0.116 A 
ATOM     16  N   UNL     1       2.523   1.458   0.002  0.00  0.00    -0.341 N 
ATOM     17  H   UNL     1       3.406   1.852  -0.075  0.00  0.00    +0.144 HD
ATOM     18  H   UNL     1       1.743   2.030   0.090  0.00  0.00    +0.144 HD
ENDBRANCH   1  11
BRANCH   3  19
ATOM     19  O   UNL     1       8.103  -2.227   0.113  0.00  0.00    -0.472 OA
BRANCH  19  20
ATOM     20  C   UNL     1       9.466  -1.799   0.092  0.00  0.00    +0.266 C 
BRANCH  20  21
ATOM     21  C   UNL     1      10.371  -2.999   0.192  0.00  0.00    -0.010 A 
ATOM     22  C   UNL     1      10.771  -3.462   1.432  0.00  0.00    +0.010 A 
ATOM     23  C   UNL     1      11.601  -4.563   1.525  0.00  0.00    +0.039 A 
ATOM     24  C   UNL     1      12.032  -5.203   0.376  0.00  0.00    +0.123 A 
ATOM     25  C   UNL     1      11.631  -4.739  -0.866  0.00  0.00    +0.039 A 
ATOM     26  C   UNL     1      10.797  -3.641  -0.956  0.00  0.00    +0.010 A 
ATOM     27  F   UNL     1      12.844  -6.279   0.465  0.00  0.00    -0.205 F 
ENDBRANCH  20  21
ENDBRANCH  19  20
ENDBRANCH   3  19
TORSDOF 4
