REMARK  Name = CHEMBL603048
REMARK  2 active torsions:
REMARK  status: ('A' for Active; 'I' for Inactive)
REMARK    1  A    between atoms: C_17  and  C_19
REMARK    2  A    between atoms: C_22  and  O_26
REMARK                            x       y       z     vdW  Elec       q    Type
REMARK                         _______ _______ _______ _____ _____    ______ ____
ROOT
ATOM      1  C   UNL     1      -0.019   1.371  -0.192  0.00  0.00    +0.001 A 
ATOM      2  C   UNL     1       1.169   2.083  -0.254  0.00  0.00    +0.002 A 
ATOM      3  C   UNL     1       2.383   1.432  -0.225  0.00  0.00    +0.028 A 
ATOM      4  C   UNL     1       2.432   0.035  -0.133  0.00  0.00    +0.074 A 
ATOM      5  C   UNL     1       1.214  -0.680  -0.071  0.00  0.00    +0.026 A 
ATOM      6  C   UNL     1       0.001  -0.007  -0.101  0.00  0.00    +0.012 A 
ATOM      7  C   UNL     1       1.053  -2.144   0.028  0.00  0.00    +0.086 A 
ATOM      8  C   UNL     1       2.092  -3.077   0.083  0.00  0.00    +0.054 A 
ATOM      9  C   UNL     1       3.550  -2.894   0.057  0.00  0.00    +0.030 A 
ATOM     10  C   UNL     1       4.075  -4.136   0.140  0.00  0.00    +0.095 A 
ATOM     11  N   UNL     1       3.061  -5.060   0.212  0.00  0.00    -0.345 N 
ATOM     12  H   UNL     1       3.194  -6.019   0.279  0.00  0.00    +0.167 HD
ATOM     13  C   UNL     1       1.839  -4.446   0.179  0.00  0.00    +0.143 A 
ATOM     14  N   UNL     1       0.556  -4.810   0.212  0.00  0.00    -0.218 NA
ATOM     15  C   UNL     1      -0.402  -3.906   0.157  0.00  0.00    +0.224 A 
ATOM     16  N   UNL     1      -0.190  -2.599   0.067  0.00  0.00    -0.235 NA
ATOM     17  C   UNL     1       4.256  -1.605  -0.040  0.00  0.00    +0.082 C 
ATOM     18  N   UNL     1       3.715  -0.405  -0.117  0.00  0.00    -0.246 NA
ENDROOT
BRANCH  17  19
ATOM     19  C   UNL     1       5.732  -1.662  -0.053  0.00  0.00    +0.020 A 
ATOM     20  C   UNL     1       6.439  -1.274  -1.194  0.00  0.00    +0.015 A 
ATOM     21  C   UNL     1       7.814  -1.329  -1.202  0.00  0.00    +0.046 A 
ATOM     22  C   UNL     1       8.501  -1.771  -0.077  0.00  0.00    +0.118 A 
ATOM     23  C   UNL     1       7.804  -2.159   1.060  0.00  0.00    +0.066 A 
ATOM     24  C   UNL     1       6.426  -2.100   1.079  0.00  0.00    +0.054 A 
ATOM     25 CL   UNL     1       5.555  -2.577   2.503  0.00  0.00    -0.083 Cl
BRANCH  22  26
ATOM     26  O   UNL     1       9.858  -1.823  -0.089  0.00  0.00    -0.507 OA
ATOM     27  H   UNL     1      10.286  -1.010   0.211  0.00  0.00    +0.292 HD
ENDBRANCH  22  26
ENDBRANCH  17  19
TORSDOF 2
