REMARK  Name = CHEMBL571118
REMARK  4 active torsions:
REMARK  status: ('A' for Active; 'I' for Inactive)
REMARK    1  A    between atoms: C_1  and  O_2
REMARK    2  A    between atoms: O_2  and  C_3
REMARK    3  A    between atoms: C_3  and  C_5
REMARK    4  A    between atoms: C_12  and  C_16
REMARK                            x       y       z     vdW  Elec       q    Type
REMARK                         _______ _______ _______ _____ _____    ______ ____
ROOT
ATOM      1  C   UNL     1      -1.230  -2.148   0.033  0.00  0.00    +0.116 C 
ATOM      2  C   UNL     1      -0.711  -2.716  -1.314  0.00  0.00    +0.035 C 
ATOM      3  C   UNL     1      -1.449  -4.067  -1.426  0.00  0.00    +0.107 C 
ATOM      4  N   UNL     1      -2.646  -3.983  -0.576  0.00  0.00    -0.314 N 
ATOM      5  C   UNL     1      -2.698  -2.642   0.035  0.00  0.00    +0.121 C 
ATOM      6  C   UNL     1      -3.572  -4.996  -0.381  0.00  0.00    +0.125 A 
ATOM      7  C   UNL     1      -3.361  -6.259  -0.925  0.00  0.00    +0.072 A 
ATOM      8  C   UNL     1      -4.324  -7.245  -0.699  0.00  0.00    +0.083 A 
ATOM      9  N   UNL     1      -5.404  -6.939   0.026  0.00  0.00    -0.235 NA
ATOM     10  C   UNL     1      -5.564  -5.730   0.522  0.00  0.00    +0.223 A 
ATOM     11  N   UNL     1      -4.674  -4.775   0.334  0.00  0.00    -0.221 NA
ENDROOT
BRANCH   8  12
ATOM     12  C   UNL     1      -4.152  -8.602  -1.252  0.00  0.00    +0.086 A 
ATOM     13  C   UNL     1      -4.987  -9.711  -1.022  0.00  0.00    +0.150 A 
ATOM     14  N   UNL     1      -4.510 -10.741  -1.685  0.00  0.00    -0.150 NA
ATOM     15  N   UNL     1      -3.354 -10.354  -2.372  0.00  0.00    -0.219 N 
ATOM     16  C   UNL     1      -3.129  -9.028  -2.112  0.00  0.00    +0.167 A 
ATOM     17  N   UNL     1      -2.083  -8.396  -2.650  0.00  0.00    -0.235 NA
ATOM     18  C   UNL     1      -1.248  -9.030  -3.443  0.00  0.00    +0.114 A 
ATOM     19  C   UNL     1      -1.445 -10.385  -3.735  0.00  0.00    +0.039 A 
ATOM     20  C   UNL     1      -2.502 -11.037  -3.187  0.00  0.00    +0.116 A 
ATOM     21  N   UNL     1      -6.130  -9.717  -0.222  0.00  0.00    -0.341 N 
ATOM     22  H   UNL     1      -6.449  -8.891   0.173  0.00  0.00    +0.144 HD
ATOM     23  H   UNL     1      -6.604 -10.547  -0.061  0.00  0.00    +0.144 HD
ENDBRANCH   8  12
BRANCH   1  24
ATOM     24  C   UNL     1      -1.167  -0.642   0.044  0.00  0.00    +0.312 C 
ATOM     25  O   UNL     1      -2.187   0.005   0.052  0.00  0.00    -0.250 OA
BRANCH  24  27
ATOM     26  C   UNL     1       0.008   1.409   0.055  0.00  0.00    +0.280 C 
ATOM     27  O   UNL     1       0.023  -0.020   0.044  0.00  0.00    -0.468 OA
ENDBRANCH  24  27
ENDBRANCH   1  24
TORSDOF 3
