REMARK  Name = CHEMBL1093191
REMARK  10 active torsions:
REMARK  status: ('A' for Active; 'I' for Inactive)
REMARK    1  A    between atoms: C_1  and  O_2
REMARK    2  A    between atoms: O_2  and  C_3
REMARK    3  A    between atoms: C_5  and  C_13
REMARK    4  A    between atoms: C_7  and  O_11
REMARK    5  A    between atoms: C_8  and  O_9
REMARK    6  A    between atoms: O_9  and  C_10
REMARK    7  A    between atoms: O_11  and  C_12
REMARK    8  A    between atoms: C_20  and  C_23
REMARK    9  A    between atoms: C_26  and  C_29
REMARK   10  A    between atoms: C_29  and  C_30
REMARK                            x       y       z     vdW  Elec       q    Type
REMARK                         _______ _______ _______ _____ _____    ______ ____
ROOT
ATOM      1  C   UNL     1      -4.859   0.238   0.038  0.00  0.00    +0.090 A 
ATOM      2  C   UNL     1      -4.805   1.640  -0.072  0.00  0.00    +0.139 A 
ATOM      3  N   UNL     1      -5.905   2.353  -0.065  0.00  0.00    -0.251 NA
ATOM      4  C   UNL     1      -7.093   1.744   0.048  0.00  0.00    +0.090 A 
ATOM      5  C   UNL     1      -8.286   2.488   0.058  0.00  0.00    +0.030 A 
ATOM      6  C   UNL     1      -9.486   1.854   0.173  0.00  0.00    +0.003 A 
ATOM      7  C   UNL     1      -9.561   0.470   0.284  0.00  0.00    +0.011 A 
ATOM      8  C   UNL     1      -8.413  -0.301   0.278  0.00  0.00    +0.010 A 
ATOM      9  C   UNL     1      -7.151   0.333   0.159  0.00  0.00    +0.098 A 
ATOM     10  N   UNL     1      -6.024  -0.380   0.145  0.00  0.00    -0.243 NA
ENDROOT
BRANCH   1  13
ATOM     11  C   UNL     1      -1.201  -0.638   0.010  0.00  0.00    +0.166 A 
ATOM     12  C   UNL     1      -2.371   0.100   0.019  0.00  0.00    +0.059 A 
ATOM     13  C   UNL     1      -3.605  -0.550   0.027  0.00  0.00    +0.009 A 
ATOM     14  C   UNL     1      -3.657  -1.944   0.026  0.00  0.00    +0.059 A 
ATOM     15  C   UNL     1      -2.484  -2.679   0.016  0.00  0.00    +0.166 A 
ATOM     16  C   UNL     1      -1.255  -2.028   0.003  0.00  0.00    +0.204 A 
BRANCH  11  18
ATOM     17  C   UNL     1      -0.017   1.425   0.010  0.00  0.00    +0.277 C 
ATOM     18  O   UNL     1       0.002  -0.004   0.002  0.00  0.00    -0.491 OA
ENDBRANCH  11  18
BRANCH  16  19
ATOM     19  O   UNL     1      -0.103  -2.752  -0.011  0.00  0.00    -0.488 OA
ATOM     20  C   UNL     1       0.458  -3.104   1.255  0.00  0.00    +0.277 C 
ENDBRANCH  16  19
BRANCH  15  21
ATOM     21  O   UNL     1      -2.534  -4.038   0.015  0.00  0.00    -0.491 OA
ATOM     22  C   UNL     1      -3.830  -4.639   0.024  0.00  0.00    +0.277 C 
ENDBRANCH  15  21
ENDBRANCH   1  13
BRANCH   8  23
ATOM     23  C   UNL     1      -8.501  -1.775   0.396  0.00  0.00    -0.016 A 
ATOM     24  C   UNL     1      -7.817  -2.591  -0.504  0.00  0.00    +0.009 A 
ATOM     25  C   UNL     1      -7.902  -3.964  -0.388  0.00  0.00    +0.005 A 
ATOM     26  C   UNL     1      -8.665  -4.530   0.618  0.00  0.00    -0.039 A 
ATOM     27  C   UNL     1      -9.346  -3.725   1.514  0.00  0.00    +0.005 A 
ATOM     28  C   UNL     1      -9.263  -2.351   1.412  0.00  0.00    +0.009 A 
BRANCH  26  29
ATOM     29  C   UNL     1      -8.754  -6.029   0.739  0.00  0.00    +0.131 C 
BRANCH  29  30
ATOM     30  C   UNL     1      -7.652  -6.527   1.637  0.00  0.00    +0.220 C 
ATOM     31  O   UNL     1      -6.871  -5.742   2.131  0.00  0.00    -0.275 OA
ATOM     32  N   UNL     1      -7.534  -7.846   1.892  0.00  0.00    -0.297 N 
ATOM     33  C   UNL     1      -8.466  -8.818   1.300  0.00  0.00    +0.136 C 
ATOM     34  C   UNL     1      -7.646  -9.936   0.645  0.00  0.00    +0.179 C 
ATOM     35  O   UNL     1      -6.710 -10.451   1.595  0.00  0.00    -0.377 OA
ATOM     36  C   UNL     1      -5.747  -9.495   2.045  0.00  0.00    +0.179 C 
ATOM     37  C   UNL     1      -6.466  -8.356   2.767  0.00  0.00    +0.136 C 
ENDBRANCH  29  30
ENDBRANCH  26  29
ENDBRANCH   8  23
TORSDOF 7
