REMARK  Name = CHEMBL272424
REMARK  1 active torsions:
REMARK  status: ('A' for Active; 'I' for Inactive)
REMARK    1  A    between atoms: C_4  and  C_8
REMARK                            x       y       z     vdW  Elec       q    Type
REMARK                         _______ _______ _______ _____ _____    ______ ____
ROOT
ATOM      1  C   UNL     1       3.696  -0.687  -0.037  0.00  0.00    +0.143 A 
ATOM      2  N   UNL     1       3.847  -2.041   0.045  0.00  0.00    -0.337 N 
ATOM      3  H   UNL     1       3.136  -2.696   0.125  0.00  0.00    +0.167 HD
ATOM      4  C   UNL     1       5.202  -2.303  -0.005  0.00  0.00    +0.075 A 
ATOM      5  C   UNL     1       5.947  -3.499   0.037  0.00  0.00    +0.015 A 
ATOM      6  C   UNL     1       5.298  -4.756   0.154  0.00  0.00    +0.028 A 
ATOM      7  C   UNL     1       6.030  -5.884   0.194  0.00  0.00    +0.086 A 
ATOM      8  N   UNL     1       7.392  -5.855   0.123  0.00  0.00    -0.329 N 
ATOM      9  H   UNL     1       7.887  -6.689   0.155  0.00  0.00    +0.168 HD
ATOM     10  C   UNL     1       8.065  -4.693   0.011  0.00  0.00    +0.257 A 
ATOM     11  O   UNL     1       9.283  -4.694  -0.051  0.00  0.00    -0.267 OA
ATOM     12  C   UNL     1       7.352  -3.472  -0.035  0.00  0.00    +0.056 A 
ATOM     13  C   UNL     1       8.051  -2.192  -0.157  0.00  0.00    -0.000 A 
ATOM     14  C   UNL     1       9.445  -2.131  -0.231  0.00  0.00    +0.047 A 
ATOM     15  C   UNL     1      10.068  -0.908  -0.346  0.00  0.00    +0.124 A 
ATOM     16  C   UNL     1       9.320   0.266  -0.387  0.00  0.00    +0.039 A 
ATOM     17  C   UNL     1       7.958   0.229  -0.316  0.00  0.00    +0.013 A 
ATOM     18  C   UNL     1       7.299  -0.998  -0.200  0.00  0.00    +0.011 A 
ATOM     19  C   UNL     1       5.834  -1.066  -0.120  0.00  0.00    +0.098 A 
ATOM     20  N   UNL     1       4.878  -0.122  -0.140  0.00  0.00    -0.227 NA
ATOM     21  F   UNL     1      11.415  -0.846  -0.418  0.00  0.00    -0.205 F 
ENDROOT
BRANCH   1  25
ATOM     22  C   UNL     1      -0.016   1.380   0.011  0.00  0.00    +0.004 A 
ATOM     23  C   UNL     1       0.000  -0.003  -0.015  0.00  0.00    +0.039 A 
ATOM     24  C   UNL     1       1.204  -0.683  -0.032  0.00  0.00    +0.135 A 
ATOM     25  C   UNL     1       2.405   0.032  -0.021  0.00  0.00    +0.071 A 
ATOM     26  C   UNL     1       2.379   1.428   0.006  0.00  0.00    +0.054 A 
ATOM     27  C   UNL     1       1.169   2.093   0.022  0.00  0.00    +0.021 A 
ATOM     28 CL   UNL     1       3.865   2.326   0.021  0.00  0.00    -0.083 Cl
ATOM     29  F   UNL     1       1.219  -2.033  -0.058  0.00  0.00    -0.205 F 
ENDBRANCH   1  25
TORSDOF 1
