REMARK  Name = CHEMBL1081977
REMARK  11 active torsions:
REMARK  status: ('A' for Active; 'I' for Inactive)
REMARK    1  A    between atoms: C_1  and  O_2
REMARK    2  A    between atoms: O_2  and  C_3
REMARK    3  A    between atoms: C_5  and  N_13
REMARK    4  A    between atoms: C_7  and  O_11
REMARK    5  A    between atoms: C_8  and  O_9
REMARK    6  A    between atoms: O_9  and  C_10
REMARK    7  A    between atoms: O_11  and  C_12
REMARK    8  A    between atoms: C_20  and  C_23
REMARK    9  A    between atoms: C_26  and  N_29
REMARK   10  A    between atoms: N_29  and  S_30
REMARK   11  A    between atoms: S_30  and  C_33
REMARK                            x       y       z     vdW  Elec       q    Type
REMARK                         _______ _______ _______ _____ _____    ______ ____
ROOT
ATOM      1  N   UNL     1      -4.786   0.201   0.039  0.00  0.00    -0.269 N 
ATOM      2  C   UNL     1      -6.004  -0.436  -0.057  0.00  0.00    +0.293 A 
ATOM      3  N   UNL     1      -6.173  -1.734  -0.061  0.00  0.00    -0.195 NA
ATOM      4  C   UNL     1      -7.504  -2.000  -0.168  0.00  0.00    +0.112 A 
ATOM      5  C   UNL     1      -8.249  -3.180  -0.220  0.00  0.00    +0.031 A 
ATOM      6  C   UNL     1      -9.622  -3.124  -0.332  0.00  0.00    +0.003 A 
ATOM      7  C   UNL     1     -10.273  -1.904  -0.393  0.00  0.00    +0.012 A 
ATOM      8  C   UNL     1      -9.548  -0.717  -0.342  0.00  0.00    +0.027 A 
ATOM      9  C   UNL     1      -8.157  -0.762  -0.229  0.00  0.00    +0.165 A 
ATOM     10  O   UNL     1      -7.193   0.183  -0.152  0.00  0.00    -0.424 OA
ATOM     11  H   UNL     1      -4.750   1.167   0.121  0.00  0.00    +0.157 HD
ENDROOT
BRANCH   1  14
ATOM     12  C   UNL     1      -2.373  -2.475  -0.717  0.00  0.00    +0.167 A 
ATOM     13  C   UNL     1      -3.546  -1.737  -0.694  0.00  0.00    +0.073 A 
ATOM     14  C   UNL     1      -3.602  -0.545   0.016  0.00  0.00    +0.042 A 
ATOM     15  C   UNL     1      -2.484  -0.092   0.704  0.00  0.00    +0.073 A 
ATOM     16  C   UNL     1      -1.310  -0.830   0.681  0.00  0.00    +0.167 A 
ATOM     17  C   UNL     1      -1.255  -2.026  -0.025  0.00  0.00    +0.204 A 
BRANCH  12  19
ATOM     18  C   UNL     1      -3.505  -4.043  -2.102  0.00  0.00    +0.277 C 
ATOM     19  O   UNL     1      -2.318  -3.642  -1.413  0.00  0.00    -0.491 OA
ENDBRANCH  12  19
BRANCH  17  20
ATOM     20  O   UNL     1      -0.105  -2.754  -0.043  0.00  0.00    -0.488 OA
ATOM     21  C   UNL     1       0.829  -2.466  -1.086  0.00  0.00    +0.277 C 
ENDBRANCH  17  20
BRANCH  16  22
ATOM     22  O   UNL     1      -0.215  -0.386   1.353  0.00  0.00    -0.491 OA
ATOM     23  C   UNL     1      -0.344   0.848   2.062  0.00  0.00    +0.277 C 
ENDBRANCH  16  22
ENDBRANCH   1  14
BRANCH   8  24
ATOM     24  C   UNL     1     -10.249   0.588  -0.409  0.00  0.00    -0.014 A 
ATOM     25  C   UNL     1      -9.969   1.579   0.531  0.00  0.00    +0.010 A 
ATOM     26  C   UNL     1     -10.621   2.792   0.467  0.00  0.00    +0.027 A 
ATOM     27  C   UNL     1     -11.557   3.027  -0.533  0.00  0.00    +0.074 A 
ATOM     28  C   UNL     1     -11.838   2.040  -1.471  0.00  0.00    +0.027 A 
ATOM     29  C   UNL     1     -11.184   0.828  -1.414  0.00  0.00    +0.010 A 
BRANCH  27  30
ATOM     30  N   UNL     1     -12.217   4.255  -0.595  0.00  0.00    -0.103 NA
BRANCH  30  31
ATOM     31  S   UNL     1     -13.333   4.537  -1.786  0.00  0.00    +0.059 S 
ATOM     32  O   UNL     1     -12.591   4.487  -2.997  0.00  0.00    -0.154 OA
ATOM     33  O   UNL     1     -14.374   3.603  -1.536  0.00  0.00    -0.154 OA
ATOM     34  C   UNL     1     -13.922   6.226  -1.484  0.00  0.00    +0.220 C 
ENDBRANCH  30  31
ENDBRANCH  27  30
ENDBRANCH   8  24
TORSDOF 7
