REMARK  Name = CHEMBL584052
REMARK  2 active torsions:
REMARK  status: ('A' for Active; 'I' for Inactive)
REMARK    1  A    between atoms: C_17  and  C_21
REMARK    2  A    between atoms: C_24  and  O_27
REMARK                            x       y       z     vdW  Elec       q    Type
REMARK                         _______ _______ _______ _____ _____    ______ ____
ROOT
ATOM      1  C   UNL     1      -0.678   0.605  -0.199  0.00  0.00    +0.001 A 
ATOM      2  C   UNL     1       0.423   1.329   0.228  0.00  0.00    +0.002 A 
ATOM      3  C   UNL     1       1.651   0.718   0.321  0.00  0.00    +0.024 A 
ATOM      4  C   UNL     1       1.814  -0.637  -0.004  0.00  0.00    +0.041 A 
ATOM      5  C   UNL     1       0.711  -1.365  -0.413  0.00  0.00    +0.004 A 
ATOM      6  C   UNL     1      -0.538  -0.724  -0.517  0.00  0.00    +0.010 A 
ATOM      7  C   UNL     1       0.722  -2.802  -0.736  0.00  0.00    -0.004 A 
ATOM      8  C   UNL     1      -0.265  -3.622  -0.158  0.00  0.00    +0.029 A 
ATOM      9  C   UNL     1      -0.315  -4.968  -0.450  0.00  0.00    +0.114 A 
ATOM     10  N   UNL     1       0.529  -5.568  -1.274  0.00  0.00    -0.237 NA
ATOM     11  C   UNL     1       1.488  -4.846  -1.847  0.00  0.00    +0.139 A 
ATOM     12  C   UNL     1       1.619  -3.456  -1.577  0.00  0.00    +0.031 A 
ATOM     13  C   UNL     1       2.799  -3.035  -2.322  0.00  0.00    -0.004 A 
ATOM     14  C   UNL     1       3.260  -4.095  -2.993  0.00  0.00    +0.089 A 
ATOM     15  N   UNL     1       2.471  -5.188  -2.726  0.00  0.00    -0.346 N 
ATOM     16  H   UNL     1       2.595  -6.071  -3.107  0.00  0.00    +0.167 HD
ATOM     17  C   UNL     1       3.372  -1.633  -2.287  0.00  0.00    +0.137 C 
ATOM     18  C   UNL     1       3.914  -1.449  -0.882  0.00  0.00    +0.229 C 
ATOM     19  O   UNL     1       5.097  -1.609  -0.666  0.00  0.00    -0.274 OA
ATOM     20  N   UNL     1       3.105  -1.116   0.110  0.00  0.00    -0.284 N 
ATOM     21  H   UNL     1       3.455  -1.217   1.009  0.00  0.00    +0.155 HD
ENDROOT
BRANCH  17  22
ATOM     22  C   UNL     1       2.290  -0.622  -2.565  0.00  0.00    -0.031 A 
ATOM     23  C   UNL     1       2.502   0.713  -2.272  0.00  0.00    +0.008 A 
ATOM     24  C   UNL     1       1.511   1.642  -2.525  0.00  0.00    +0.046 A 
ATOM     25  C   UNL     1       0.304   1.235  -3.075  0.00  0.00    +0.117 A 
ATOM     26  C   UNL     1       0.095  -0.104  -3.368  0.00  0.00    +0.046 A 
ATOM     27  C   UNL     1       1.090  -1.029  -3.118  0.00  0.00    +0.008 A 
BRANCH  25  28
ATOM     28  O   UNL     1      -0.672   2.148  -3.324  0.00  0.00    -0.507 OA
ATOM     29  H   UNL     1      -0.628   2.539  -4.207  0.00  0.00    +0.292 HD
ENDBRANCH  25  28
ENDBRANCH  17  22
TORSDOF 2
