REMARK  Name = CHEMBL231733
REMARK  9 active torsions:
REMARK  status: ('A' for Active; 'I' for Inactive)
REMARK    1  A    between atoms: C_1  and  C_2
REMARK    2  A    between atoms: C_2  and  C_4
REMARK    3  A    between atoms: C_2  and  N_10
REMARK    4  A    between atoms: C_14  and  C_30
REMARK    5  A    between atoms: N_15  and  C_29
REMARK    6  A    between atoms: N_32  and  C_33
REMARK    7  A    between atoms: C_33  and  C_34
REMARK    8  A    between atoms: C_34  and  C_35
REMARK    9  A    between atoms: C_35  and  N_36
REMARK                            x       y       z     vdW  Elec       q    Type
REMARK                         _______ _______ _______ _____ _____    ______ ____
ROOT
ATOM      1  N   UNL     1       1.174  -0.628   1.143  0.00  0.00    -0.322 N 
ATOM      2  C   UNL     1       0.354  -0.736   2.248  0.00  0.00    +0.134 A 
ATOM      3  C   UNL     1       0.871  -1.155   3.492  0.00  0.00    +0.059 A 
ATOM      4  C   UNL     1       2.148  -1.533   3.951  0.00  0.00    +0.046 A 
ATOM      5  C   UNL     1       2.036  -1.841   5.272  0.00  0.00    +0.106 A 
ATOM      6  N   UNL     1       0.718  -1.668   5.665  0.00  0.00    -0.324 N 
ATOM      7  C   UNL     1      -0.011  -1.248   4.588  0.00  0.00    +0.148 A 
ATOM      8  N   UNL     1      -1.293  -0.939   4.407  0.00  0.00    -0.194 NA
ATOM      9  C   UNL     1      -1.733  -0.551   3.223  0.00  0.00    +0.240 A 
ATOM     10  N   UNL     1      -0.939  -0.444   2.166  0.00  0.00    -0.196 NA
ATOM     11  N   UNL     1      -3.081  -0.238   3.080  0.00  0.00    -0.267 N 
ATOM     12  C   UNL     1      -4.030  -0.282   4.058  0.00  0.00    +0.182 A 
ATOM     13  N   UNL     1      -5.186   0.075   3.577  0.00  0.00    -0.345 N 
ATOM     14  C   UNL     1      -5.061   0.372   2.262  0.00  0.00    +0.067 A 
ATOM     15  C   UNL     1      -3.708   0.181   1.921  0.00  0.00    +0.092 A 
ATOM     16  C   UNL     1      -3.302   0.423   0.620  0.00  0.00    +0.139 A 
ATOM     17  N   UNL     1      -4.174   0.829  -0.283  0.00  0.00    -0.261 NA
ATOM     18  C   UNL     1      -5.450   1.021   0.004  0.00  0.00    +0.113 A 
ATOM     19  C   UNL     1      -5.940   0.800   1.261  0.00  0.00    +0.047 A 
ATOM     20  C   UNL     1       0.193  -1.899   7.013  0.00  0.00    +0.151 C 
ATOM     21  H   UNL     1       2.117  -0.844   1.216  0.00  0.00    +0.148 HD
ATOM     22  H   UNL     1      -6.012   0.122   4.084  0.00  0.00    +0.167 HD
ENDROOT
BRANCH   5  23
ATOM     23  C   UNL     1       3.132  -2.285   6.141  0.00  0.00    +0.261 C 
ATOM     24  O   UNL     1       2.942  -2.433   7.333  0.00  0.00    -0.269 OA
ATOM     25  N   UNL     1       4.351  -2.527   5.617  0.00  0.00    -0.310 N 
ATOM     26  H   UNL     1       4.523  -2.338   4.682  0.00  0.00    +0.149 HD
BRANCH  25  27
ATOM     27  C   UNL     1       5.414  -3.077   6.462  0.00  0.00    +0.106 C 
BRANCH  27  28
ATOM     28  C   UNL     1       6.685  -3.256   5.628  0.00  0.00    +0.040 C 
BRANCH  28  29
ATOM     29  C   UNL     1       7.796  -3.829   6.510  0.00  0.00    +0.124 C 
BRANCH  29  30
ATOM     30  N   UNL     1       9.013  -4.000   5.713  0.00  0.00    -0.338 N 
ATOM     31  C   UNL     1       9.368  -5.115   5.001  0.00  0.00    +0.104 A 
ATOM     32  C   UNL     1      10.552  -4.845   4.420  0.00  0.00    +0.101 A 
ATOM     33  N   UNL     1      10.911  -3.600   4.767  0.00  0.00    -0.352 N 
ATOM     34  C   UNL     1       9.992  -3.087   5.538  0.00  0.00    +0.173 A 
ATOM     35  H   UNL     1      11.725  -3.152   4.487  0.00  0.00    +0.166 HD
ENDBRANCH  29  30
ENDBRANCH  28  29
ENDBRANCH  27  28
ENDBRANCH  25  27
ENDBRANCH   5  23
BRANCH   1  37
ATOM     36  C   UNL     1       0.601   1.344  -0.186  0.00  0.00    +0.033 C 
ATOM     37  C   UNL     1       0.621  -0.185  -0.139  0.00  0.00    +0.099 C 
BRANCH  37  38
ATOM     38  C   UNL     1       1.476  -0.711  -1.263  0.00  0.00    -0.028 A 
ATOM     39  C   UNL     1       2.852  -0.729  -1.134  0.00  0.00    +0.005 A 
ATOM     40  C   UNL     1       3.637  -1.212  -2.166  0.00  0.00    +0.000 A 
ATOM     41  C   UNL     1       3.045  -1.677  -3.325  0.00  0.00    +0.000 A 
ATOM     42  C   UNL     1       1.668  -1.660  -3.453  0.00  0.00    +0.000 A 
ATOM     43  C   UNL     1       0.884  -1.181  -2.420  0.00  0.00    +0.005 A 
ENDBRANCH  37  38
ENDBRANCH   1  37
TORSDOF 7
