REMARK  Name = CHEMBL1088857
REMARK  10 active torsions:
REMARK  status: ('A' for Active; 'I' for Inactive)
REMARK    1  A    between atoms: C_1  and  O_2
REMARK    2  A    between atoms: O_2  and  C_3
REMARK    3  A    between atoms: C_5  and  C_13
REMARK    4  A    between atoms: C_7  and  O_11
REMARK    5  A    between atoms: C_8  and  O_9
REMARK    6  A    between atoms: O_9  and  C_10
REMARK    7  A    between atoms: O_11  and  C_12
REMARK    8  A    between atoms: C_20  and  C_23
REMARK    9  A    between atoms: C_26  and  C_30
REMARK   10  A    between atoms: C_30  and  N_31
REMARK                            x       y       z     vdW  Elec       q    Type
REMARK                         _______ _______ _______ _____ _____    ______ ____
ROOT
ATOM      1  C   UNL     1      -4.859   0.238   0.038  0.00  0.00    +0.090 A 
ATOM      2  C   UNL     1      -4.805   1.640  -0.072  0.00  0.00    +0.139 A 
ATOM      3  N   UNL     1      -5.905   2.353  -0.064  0.00  0.00    -0.251 NA
ATOM      4  C   UNL     1      -7.093   1.744   0.050  0.00  0.00    +0.090 A 
ATOM      5  C   UNL     1      -8.286   2.488   0.060  0.00  0.00    +0.030 A 
ATOM      6  C   UNL     1      -9.486   1.855   0.176  0.00  0.00    +0.003 A 
ATOM      7  C   UNL     1      -9.561   0.470   0.287  0.00  0.00    +0.011 A 
ATOM      8  C   UNL     1      -8.412  -0.300   0.281  0.00  0.00    +0.010 A 
ATOM      9  C   UNL     1      -7.151   0.333   0.161  0.00  0.00    +0.098 A 
ATOM     10  N   UNL     1      -6.024  -0.380   0.146  0.00  0.00    -0.243 NA
ENDROOT
BRANCH   8  11
ATOM     11  C   UNL     1      -8.501  -1.774   0.400  0.00  0.00    -0.013 A 
ATOM     12  C   UNL     1      -7.817  -2.591  -0.501  0.00  0.00    +0.009 A 
ATOM     13  C   UNL     1      -7.902  -3.964  -0.387  0.00  0.00    +0.008 A 
ATOM     14  C   UNL     1      -8.664  -4.531   0.619  0.00  0.00    +0.002 A 
ATOM     15  C   UNL     1      -9.345  -3.726   1.517  0.00  0.00    +0.128 A 
ATOM     16  C   UNL     1      -9.262  -2.350   1.415  0.00  0.00    +0.047 A 
ATOM     17  F   UNL     1     -10.088  -4.287   2.497  0.00  0.00    -0.205 F 
BRANCH  14  18
ATOM     18  C   UNL     1      -8.752  -6.031   0.738  0.00  0.00    +0.122 C 
BRANCH  18  19
ATOM     19  N   UNL     1      -7.930  -6.482   1.868  0.00  0.00    -0.294 NA
ATOM     20  C   UNL     1      -6.503  -6.242   1.611  0.00  0.00    +0.113 C 
ATOM     21  C   UNL     1      -5.690  -6.671   2.835  0.00  0.00    +0.175 C 
ATOM     22  O   UNL     1      -5.964  -8.044   3.127  0.00  0.00    -0.377 OA
ATOM     23  C   UNL     1      -7.345  -8.313   3.383  0.00  0.00    +0.175 C 
ATOM     24  C   UNL     1      -8.175  -7.901   2.164  0.00  0.00    +0.113 C 
ENDBRANCH  18  19
ENDBRANCH  14  18
ENDBRANCH   8  11
BRANCH   1  27
ATOM     25  C   UNL     1      -1.201  -0.638   0.010  0.00  0.00    +0.166 A 
ATOM     26  C   UNL     1      -2.371   0.100   0.019  0.00  0.00    +0.059 A 
ATOM     27  C   UNL     1      -3.605  -0.550   0.028  0.00  0.00    +0.009 A 
ATOM     28  C   UNL     1      -3.657  -1.944   0.027  0.00  0.00    +0.059 A 
ATOM     29  C   UNL     1      -2.484  -2.679   0.017  0.00  0.00    +0.166 A 
ATOM     30  C   UNL     1      -1.255  -2.028   0.003  0.00  0.00    +0.204 A 
BRANCH  25  32
ATOM     31  C   UNL     1      -0.017   1.425   0.010  0.00  0.00    +0.277 C 
ATOM     32  O   UNL     1       0.002  -0.004   0.002  0.00  0.00    -0.491 OA
ENDBRANCH  25  32
BRANCH  30  33
ATOM     33  O   UNL     1      -0.103  -2.752  -0.012  0.00  0.00    -0.488 OA
ATOM     34  C   UNL     1       0.459  -3.104   1.254  0.00  0.00    +0.277 C 
ENDBRANCH  30  33
BRANCH  29  35
ATOM     35  O   UNL     1      -2.534  -4.038   0.016  0.00  0.00    -0.491 OA
ATOM     36  C   UNL     1      -3.830  -4.639   0.026  0.00  0.00    +0.277 C 
ENDBRANCH  29  35
ENDBRANCH   1  27
TORSDOF 7
