REMARK  Name = CHEMBL1080322
REMARK  1 active torsions:
REMARK  status: ('A' for Active; 'I' for Inactive)
REMARK    1  A    between atoms: N_17  and  C_22
REMARK                            x       y       z     vdW  Elec       q    Type
REMARK                         _______ _______ _______ _____ _____    ______ ____
ROOT
ATOM      1  C   UNL     1      -0.017   1.384   0.010  0.00  0.00    +0.022 A 
ATOM      2  C   UNL     1       1.159   2.099   0.002  0.00  0.00    +0.031 A 
ATOM      3  C   UNL     1       2.382   1.423  -0.013  0.00  0.00    +0.090 A 
ATOM      4  C   UNL     1       2.396   0.018  -0.021  0.00  0.00    +0.078 A 
ATOM      5  C   UNL     1       1.202  -0.686  -0.013  0.00  0.00    +0.048 A 
ATOM      6  C   UNL     1       0.002  -0.004   0.002  0.00  0.00    +0.043 A 
ATOM      7 CL   UNL     1      -1.493  -0.887   0.012  0.00  0.00    -0.083 Cl
ATOM      8  N   UNL     1       3.730  -0.349  -0.035  0.00  0.00    -0.267 N 
ATOM      9  C   UNL     1       4.466   0.800  -0.036  0.00  0.00    +0.207 A 
ATOM     10  N   UNL     1       3.677   1.834  -0.023  0.00  0.00    -0.235 NA
ATOM     11  C   UNL     1       4.229  -1.651  -0.047  0.00  0.00    +0.238 A 
ATOM     12  N   UNL     1       3.377  -2.665  -0.050  0.00  0.00    -0.218 NA
ATOM     13  C   UNL     1       3.807  -3.918  -0.061  0.00  0.00    +0.144 A 
ATOM     14  C   UNL     1       5.171  -4.156  -0.070  0.00  0.00    +0.105 A 
ATOM     15  C   UNL     1       6.045  -3.061  -0.067  0.00  0.00    +0.167 A 
ATOM     16  N   UNL     1       5.540  -1.835  -0.061  0.00  0.00    -0.192 NA
ATOM     17  N   UNL     1       7.328  -3.575  -0.077  0.00  0.00    -0.273 N 
ATOM     18  C   UNL     1       7.253  -4.919  -0.086  0.00  0.00    +0.329 A 
ATOM     19  O   UNL     1       8.207  -5.674  -0.096  0.00  0.00    -0.246 OA
ATOM     20  N   UNL     1       5.961  -5.302  -0.082  0.00  0.00    -0.303 N 
ATOM     21  H   UNL     1       5.638  -6.216  -0.086  0.00  0.00    +0.171 HD
ENDROOT
BRANCH  17  22
ATOM     22  C   UNL     1       8.564  -2.788  -0.078  0.00  0.00    +0.098 C 
ATOM     23  C   UNL     1       9.382  -3.121  -1.329  0.00  0.00    +0.053 C 
ATOM     24  C   UNL     1      10.706  -2.353  -1.283  0.00  0.00    +0.162 C 
ATOM     25  O   UNL     1      11.411  -2.694  -0.087  0.00  0.00    -0.380 OA
ATOM     26  C   UNL     1      10.714  -2.362   1.115  0.00  0.00    +0.162 C 
ATOM     27  C   UNL     1       9.390  -3.129   1.165  0.00  0.00    +0.053 C 
ENDBRANCH  17  22
TORSDOF 1
