REMARK  Name = CHEMBL386637
REMARK  9 active torsions:
REMARK  status: ('A' for Active; 'I' for Inactive)
REMARK    1  A    between atoms: C_1  and  N_2
REMARK    2  A    between atoms: N_2  and  C_3
REMARK    3  A    between atoms: N_2  and  C_4
REMARK    4  A    between atoms: N_9  and  C_11
REMARK    5  A    between atoms: C_14  and  C_36
REMARK    6  A    between atoms: C_16  and  N_17
REMARK    7  A    between atoms: C_18  and  C_20
REMARK    8  A    between atoms: C_22  and  C_27
REMARK    9  A    between atoms: C_28  and  C_29
REMARK                            x       y       z     vdW  Elec       q    Type
REMARK                         _______ _______ _______ _____ _____    ______ ____
ROOT
ATOM      1  N   UNL     1       0.137  -1.535  -4.611  0.00  0.00    -0.280 N 
ATOM      2  C   UNL     1      -0.892  -1.083  -5.354  0.00  0.00    +0.251 C 
ATOM      3  O   UNL     1      -1.730  -1.860  -5.770  0.00  0.00    -0.270 OA
ATOM      4  H   UNL     1       0.760  -0.908  -4.212  0.00  0.00    +0.155 HD
ENDROOT
BRANCH   2   5
ATOM      5  C   UNL     1      -1.003   0.357  -5.664  0.00  0.00    +0.073 A 
ATOM      6  C   UNL     1      -0.041   1.249  -5.193  0.00  0.00    +0.032 A 
ATOM      7  C   UNL     1      -0.153   2.606  -5.490  0.00  0.00    +0.026 A 
ATOM      8  C   UNL     1      -1.229   3.066  -6.258  0.00  0.00    +0.019 A 
ATOM      9  C   UNL     1      -2.178   2.179  -6.721  0.00  0.00    +0.040 A 
ATOM     10  C   UNL     1      -2.071   0.829  -6.435  0.00  0.00    +0.136 A 
ATOM     11  F   UNL     1      -3.001  -0.034  -6.898  0.00  0.00    -0.205 F 
BRANCH   7  12
ATOM     12  C   UNL     1       0.831   3.529  -5.010  0.00  0.00    -0.061 C 
ATOM     13  C   UNL     1       1.638   4.286  -4.616  0.00  0.00    -0.058 C 
BRANCH  13  14
ATOM     14  C   UNL     1       2.622   5.209  -4.136  0.00  0.00    +0.062 A 
ATOM     15  C   UNL     1       3.709   4.767  -3.370  0.00  0.00    +0.132 A 
ATOM     16  N   UNL     1       4.595   5.650  -2.946  0.00  0.00    -0.222 NA
ATOM     17  C   UNL     1       4.465   6.937  -3.236  0.00  0.00    +0.213 A 
ATOM     18  N   UNL     1       3.451   7.395  -3.957  0.00  0.00    -0.222 NA
ATOM     19  C   UNL     1       2.526   6.577  -4.424  0.00  0.00    +0.132 A 
ATOM     20  N   UNL     1       5.415   7.829  -2.772  0.00  0.00    -0.327 N 
ATOM     21  H   UNL     1       6.163   7.509  -2.243  0.00  0.00    +0.145 HD
ATOM     22  H   UNL     1       5.335   8.774  -2.976  0.00  0.00    +0.145 HD
ENDBRANCH  13  14
ENDBRANCH   7  12
ENDBRANCH   2   5
BRANCH   1  28
ATOM     23  C   UNL     1       0.996  -3.378  -3.294  0.00  0.00    +0.051 A 
ATOM     24  C   UNL     1       1.155  -4.743  -3.103  0.00  0.00    +0.025 A 
ATOM     25  C   UNL     1       0.637  -5.635  -4.022  0.00  0.00    +0.014 A 
ATOM     26  C   UNL     1      -0.041  -5.172  -5.135  0.00  0.00    +0.057 A 
ATOM     27  C   UNL     1      -0.205  -3.814  -5.334  0.00  0.00    +0.037 A 
ATOM     28  C   UNL     1       0.307  -2.912  -4.414  0.00  0.00    +0.055 A 
BRANCH  23  33
ATOM     29  C   UNL     1       0.684  -0.498  -1.199  0.00  0.00    -0.052 C 
ATOM     30  C   UNL     1       2.118   0.036  -1.206  0.00  0.00    -0.012 C 
ATOM     31  C   UNL     1       2.828  -0.417  -2.484  0.00  0.00    +0.017 C 
ATOM     32  C   UNL     1       2.882  -1.948  -2.517  0.00  0.00    +0.105 C 
ATOM     33  N   UNL     1       1.519  -2.473  -2.365  0.00  0.00    -0.330 N 
ATOM     34  C   UNL     1       0.714  -2.030  -1.218  0.00  0.00    +0.090 C 
BRANCH  29  36
ATOM     35  C   UNL     1      -0.033   1.433   0.030  0.00  0.00    -0.096 C 
ATOM     36  N   UNL     1      -0.006  -0.036   0.012  0.00  0.00    +0.379 N 
ATOM     37  C   UNL     1      -1.382  -0.551   0.019  0.00  0.00    -0.096 C 
ATOM     38  H   UNL     1       0.484  -0.374   0.828  0.00  0.00    -0.082 HD
ENDBRANCH  29  36
ENDBRANCH  23  33
BRANCH  26  39
ATOM     39  C   UNL     1      -0.602  -6.151  -6.134  0.00  0.00    +0.417 C 
ATOM     40  F   UNL     1      -0.312  -7.456  -5.721  0.00  0.00    -0.166 F 
ATOM     41  F   UNL     1      -1.989  -5.987  -6.219  0.00  0.00    -0.166 F 
ATOM     42  F   UNL     1      -0.027  -5.920  -7.388  0.00  0.00    -0.166 F 
ENDBRANCH  26  39
ENDBRANCH   1  28
TORSDOF 7
