REMARK  Name = CHEMBL595397
REMARK  4 active torsions:
REMARK  status: ('A' for Active; 'I' for Inactive)
REMARK    1  A    between atoms: C_1  and  O_2
REMARK    2  A    between atoms: O_2  and  C_3
REMARK    3  A    between atoms: C_3  and  C_5
REMARK    4  A    between atoms: C_5  and  C_6
REMARK                            x       y       z     vdW  Elec       q    Type
REMARK                         _______ _______ _______ _____ _____    ______ ____
ROOT
ATOM      1  C   UNL     1       1.385  -2.521  -2.400  0.00  0.00    +0.113 C 
ATOM      2  C   UNL     1       1.331  -4.006  -2.540  0.00  0.00    +0.000 A 
ATOM      3  C   UNL     1       0.399  -4.769  -3.124  0.00  0.00    +0.090 A 
ATOM      4  N   UNL     1       0.753  -6.094  -3.029  0.00  0.00    -0.345 N 
ATOM      5  H   UNL     1       0.222  -6.838  -3.356  0.00  0.00    +0.167 HD
ATOM      6  C   UNL     1       1.960  -6.209  -2.409  0.00  0.00    +0.139 A 
ATOM      7  C   UNL     1       2.351  -4.906  -2.011  0.00  0.00    +0.031 A 
ATOM      8  C   UNL     1       3.537  -4.691  -1.299  0.00  0.00    -0.004 A 
ATOM      9  C   UNL     1       4.340  -5.827  -1.120  0.00  0.00    +0.029 A 
ATOM     10  C   UNL     1       3.906  -7.061  -1.564  0.00  0.00    +0.114 A 
ATOM     11  N   UNL     1       2.747  -7.255  -2.172  0.00  0.00    -0.237 NA
ATOM     12  C   UNL     1       3.919  -3.413  -0.676  0.00  0.00    +0.004 A 
ATOM     13  C   UNL     1       4.677  -3.446   0.499  0.00  0.00    +0.010 A 
ATOM     14  C   UNL     1       5.078  -2.281   1.113  0.00  0.00    +0.001 A 
ATOM     15  C   UNL     1       4.735  -1.054   0.571  0.00  0.00    +0.002 A 
ATOM     16  C   UNL     1       3.982  -0.996  -0.583  0.00  0.00    +0.023 A 
ATOM     17  C   UNL     1       3.557  -2.159  -1.212  0.00  0.00    +0.035 A 
ATOM     18  N   UNL     1       2.765  -2.085  -2.333  0.00  0.00    -0.336 N 
ATOM     19  H   UNL     1       3.159  -1.714  -3.139  0.00  0.00    +0.147 HD
ENDROOT
BRANCH   1  20
ATOM     20  C   UNL     1       0.657  -2.104  -1.120  0.00  0.00    +0.147 C 
BRANCH  20  21
ATOM     21  C   UNL     1       0.598  -0.600  -1.043  0.00  0.00    +0.309 C 
ATOM     22  O   UNL     1       1.088   0.070  -1.921  0.00  0.00    -0.251 OA
BRANCH  21  24
ATOM     23  C   UNL     1      -0.017   1.425   0.010  0.00  0.00    +0.280 C 
ATOM     24  O   UNL     1       0.002  -0.004   0.002  0.00  0.00    -0.468 OA
ENDBRANCH  21  24
ENDBRANCH  20  21
ENDBRANCH   1  20
TORSDOF 3
