REMARK  Name = CHEMBL1078934
REMARK  7 active torsions:
REMARK  status: ('A' for Active; 'I' for Inactive)
REMARK    1  A    between atoms: C_1  and  N_2
REMARK    2  A    between atoms: N_5  and  C_8
REMARK    3  A    between atoms: C_11  and  N_14
REMARK    4  A    between atoms: C_19  and  C_21
REMARK    5  A    between atoms: C_24  and  C_27
REMARK    6  A    between atoms: N_29  and  C_30
REMARK    7  A    between atoms: C_30  and  C_31
REMARK                            x       y       z     vdW  Elec       q    Type
REMARK                         _______ _______ _______ _____ _____    ______ ____
ROOT
ATOM      1  N   UNL     1      -2.316  -6.886   3.883  0.00  0.00    -0.284 N 
ATOM      2  C   UNL     1      -1.528  -7.401   4.898  0.00  0.00    +0.220 A 
ATOM      3  N   UNL     1      -0.382  -6.803   5.192  0.00  0.00    -0.223 NA
ATOM      4  C   UNL     1       0.400  -7.263   6.155  0.00  0.00    +0.116 A 
ATOM      5  C   UNL     1       0.010  -8.387   6.864  0.00  0.00    +0.048 A 
ATOM      6  C   UNL     1      -1.203  -8.995   6.532  0.00  0.00    +0.076 A 
ATOM      7  N   UNL     1      -1.940  -8.474   5.554  0.00  0.00    -0.214 NA
ATOM      8  H   UNL     1      -3.195  -7.260   3.715  0.00  0.00    +0.155 HD
ENDROOT
BRANCH   1  12
ATOM      9  C   UNL     1      -0.911  -3.730   1.547  0.00  0.00    +0.030 A 
ATOM     10  C   UNL     1      -0.028  -4.694   2.015  0.00  0.00    +0.025 A 
ATOM     11  C   UNL     1      -0.493  -5.739   2.789  0.00  0.00    +0.025 A 
ATOM     12  C   UNL     1      -1.844  -5.826   3.098  0.00  0.00    +0.034 A 
ATOM     13  C   UNL     1      -2.727  -4.862   2.630  0.00  0.00    +0.025 A 
ATOM     14  C   UNL     1      -2.261  -3.814   1.861  0.00  0.00    +0.025 A 
BRANCH   9  19
ATOM     15  C   UNL     1       0.678  -0.979  -2.911  0.00  0.00    +0.105 C 
ATOM     16  N   UNL     1       0.370  -1.268  -1.504  0.00  0.00    -0.302 NA
ATOM     17  C   UNL     1       1.224  -2.347  -0.990  0.00  0.00    +0.103 C 
ATOM     18  C   UNL     1       1.000  -2.495   0.519  0.00  0.00    +0.120 C 
ATOM     19  N   UNL     1      -0.439  -2.671   0.763  0.00  0.00    -0.327 N 
ATOM     20  C   UNL     1      -1.370  -1.703   0.163  0.00  0.00    +0.120 C 
ATOM     21  C   UNL     1      -1.054  -1.587  -1.332  0.00  0.00    +0.103 C 
ENDBRANCH   9  19
ENDBRANCH   1  12
BRANCH   6  22
ATOM     22  C   UNL     1      -1.665 -10.201   7.262  0.00  0.00    +0.001 A 
ATOM     23  C   UNL     1      -0.889 -10.732   8.292  0.00  0.00    +0.011 A 
ATOM     24  C   UNL     1      -1.317 -11.852   8.970  0.00  0.00    +0.014 A 
ATOM     25  C   UNL     1      -2.529 -12.456   8.626  0.00  0.00    +0.037 A 
ATOM     26  C   UNL     1      -3.305 -11.923   7.595  0.00  0.00    +0.014 A 
ATOM     27  C   UNL     1      -2.878 -10.800   6.921  0.00  0.00    +0.011 A 
BRANCH  25  28
ATOM     28  C   UNL     1      -2.989 -13.658   9.353  0.00  0.00    +0.245 C 
ATOM     29  O   UNL     1      -2.313 -14.122  10.250  0.00  0.00    -0.270 OA
ATOM     30  N   UNL     1      -4.158 -14.240   9.021  0.00  0.00    -0.298 N 
ATOM     31  H   UNL     1      -4.698 -13.870   8.305  0.00  0.00    +0.150 HD
BRANCH  30  32
ATOM     32  C   UNL     1      -4.614 -15.431   9.741  0.00  0.00    +0.223 C 
BRANCH  32  33
ATOM     33  C   UNL     1      -5.908 -15.871   9.193  0.00  0.00    +0.081 C 
ATOM     34  N   UNL     1      -6.907 -16.210   8.770  0.00  0.00    -0.195 NA
ENDBRANCH  32  33
ENDBRANCH  30  32
ENDBRANCH  25  28
ENDBRANCH   6  22
TORSDOF 6
