REMARK  Name = CHEMBL569957
REMARK  7 active torsions:
REMARK  status: ('A' for Active; 'I' for Inactive)
REMARK    1  A    between atoms: C_1  and  C_2
REMARK    2  A    between atoms: C_2  and  C_3
REMARK    3  A    between atoms: C_3  and  N_4
REMARK    4  A    between atoms: N_4  and  C_5
REMARK    5  A    between atoms: C_5  and  C_6
REMARK    6  A    between atoms: C_10  and  C_12
REMARK    7  A    between atoms: C_20  and  C_24
REMARK                            x       y       z     vdW  Elec       q    Type
REMARK                         _______ _______ _______ _____ _____    ______ ____
ROOT
ATOM      1  C   UNL     1       0.101  -4.148   1.490  0.00  0.00    +0.092 C 
ATOM      2  C   UNL     1      -0.073  -4.659   0.058  0.00  0.00    +0.016 C 
ATOM      3  C   UNL     1      -0.053  -6.190   0.055  0.00  0.00    +0.020 C 
ATOM      4  C   UNL     1      -1.219  -6.713   0.900  0.00  0.00    +0.106 C 
ATOM      5  N   UNL     1      -1.141  -6.111   2.238  0.00  0.00    -0.314 N 
ATOM      6  C   UNL     1      -1.064  -4.648   2.351  0.00  0.00    +0.119 C 
ATOM      7  C   UNL     1      -1.142  -6.908   3.372  0.00  0.00    +0.125 A 
ATOM      8  C   UNL     1      -1.005  -8.288   3.265  0.00  0.00    +0.072 A 
ATOM      9  C   UNL     1      -1.011  -9.046   4.438  0.00  0.00    +0.083 A 
ATOM     10  N   UNL     1      -1.147  -8.420   5.611  0.00  0.00    -0.235 NA
ATOM     11  C   UNL     1      -1.274  -7.111   5.666  0.00  0.00    +0.223 A 
ATOM     12  N   UNL     1      -1.268  -6.362   4.581  0.00  0.00    -0.221 NA
ENDROOT
BRANCH   9  13
ATOM     13  C   UNL     1      -0.869 -10.514   4.384  0.00  0.00    +0.086 A 
ATOM     14  C   UNL     1      -0.968 -11.404   5.469  0.00  0.00    +0.150 A 
ATOM     15  N   UNL     1      -0.785 -12.629   5.025  0.00  0.00    -0.150 NA
ATOM     16  N   UNL     1      -0.562 -12.591   3.645  0.00  0.00    -0.219 N 
ATOM     17  C   UNL     1      -0.618 -11.285   3.239  0.00  0.00    +0.167 A 
ATOM     18  N   UNL     1      -0.442 -10.961   1.955  0.00  0.00    -0.235 NA
ATOM     19  C   UNL     1      -0.213 -11.888   1.052  0.00  0.00    +0.114 A 
ATOM     20  C   UNL     1      -0.152 -13.236   1.426  0.00  0.00    +0.039 A 
ATOM     21  C   UNL     1      -0.323 -13.573   2.729  0.00  0.00    +0.116 A 
ATOM     22  N   UNL     1      -1.216 -11.048   6.793  0.00  0.00    -0.341 N 
ATOM     23  H   UNL     1      -1.419 -10.126   7.018  0.00  0.00    +0.144 HD
ATOM     24  H   UNL     1      -1.187 -11.722   7.491  0.00  0.00    +0.144 HD
ENDBRANCH   9  13
BRANCH   1  26
ATOM     25  N   UNL     1       1.226  -1.977   1.117  0.00  0.00    -0.293 N 
ATOM     26  C   UNL     1       0.114  -2.641   1.488  0.00  0.00    +0.220 C 
ATOM     27  O   UNL     1      -0.877  -2.025   1.820  0.00  0.00    -0.275 OA
BRANCH  25  28
ATOM     28  C   UNL     1       2.386  -2.717   0.611  0.00  0.00    +0.108 C 
BRANCH  28  30
ATOM     29  C   UNL     1       4.473  -3.928   1.257  0.00  0.00    +0.005 C 
ATOM     30  C   UNL     1       3.263  -3.156   1.785  0.00  0.00    +0.016 C 
ENDBRANCH  28  30
ENDBRANCH  25  28
BRANCH  25  31
ATOM     31  C   UNL     1       1.277  -0.517   1.218  0.00  0.00    +0.221 C 
BRANCH  31  32
ATOM     32  C   UNL     1       0.799   0.103  -0.097  0.00  0.00    +0.405 C 
ATOM     33  F   UNL     1      -0.515  -0.302  -0.352  0.00  0.00    -0.169 F 
ATOM     34  F   UNL     1       0.847   1.498   0.001  0.00  0.00    -0.169 F 
ATOM     35  F   UNL     1       1.629  -0.321  -1.140  0.00  0.00    -0.169 F 
ENDBRANCH  31  32
ENDBRANCH  25  31
ENDBRANCH   1  26
TORSDOF 6
