REMARK  Name = CHEMBL1078971
REMARK  8 active torsions:
REMARK  status: ('A' for Active; 'I' for Inactive)
REMARK    1  A    between atoms: C_1  and  N_2
REMARK    2  A    between atoms: N_5  and  C_8
REMARK    3  A    between atoms: C_8  and  C_9
REMARK    4  A    between atoms: C_12  and  N_15
REMARK    5  A    between atoms: C_20  and  C_22
REMARK    6  A    between atoms: C_25  and  N_28
REMARK    7  A    between atoms: N_28  and  S_29
REMARK    8  A    between atoms: S_29  and  C_32
REMARK                            x       y       z     vdW  Elec       q    Type
REMARK                         _______ _______ _______ _____ _____    ______ ____
ROOT
ATOM      1  N   UNL     1       1.393  -5.775   6.192  0.00  0.00    -0.284 N 
ATOM      2  C   UNL     1       2.711  -5.521   6.534  0.00  0.00    +0.220 A 
ATOM      3  N   UNL     1       3.454  -4.773   5.731  0.00  0.00    -0.223 NA
ATOM      4  C   UNL     1       4.718  -4.507   6.023  0.00  0.00    +0.116 A 
ATOM      5  C   UNL     1       5.266  -5.019   7.185  0.00  0.00    +0.048 A 
ATOM      6  C   UNL     1       4.458  -5.803   8.013  0.00  0.00    +0.076 A 
ATOM      7  N   UNL     1       3.194  -6.026   7.658  0.00  0.00    -0.214 NA
ATOM      8  H   UNL     1       0.814  -6.248   6.810  0.00  0.00    +0.155 HD
ENDROOT
BRANCH   1  12
ATOM      9  C   UNL     1      -0.085  -4.507   2.510  0.00  0.00    -0.033 A 
ATOM     10  C   UNL     1       1.234  -4.906   2.624  0.00  0.00    +0.007 A 
ATOM     11  C   UNL     1       1.727  -5.327   3.843  0.00  0.00    +0.023 A 
ATOM     12  C   UNL     1       0.897  -5.349   4.956  0.00  0.00    +0.034 A 
ATOM     13  C   UNL     1      -0.428  -4.947   4.839  0.00  0.00    +0.023 A 
ATOM     14  C   UNL     1      -0.913  -4.522   3.617  0.00  0.00    +0.007 A 
BRANCH   9  15
ATOM     15  C   UNL     1      -0.620  -4.048   1.178  0.00  0.00    +0.119 C 
BRANCH  15  20
ATOM     16  C   UNL     1       0.656   1.213  -0.384  0.00  0.00    -0.096 C 
ATOM     17  N   UNL     1       0.481  -0.243  -0.298  0.00  0.00    +0.379 N 
ATOM     18  C   UNL     1      -0.951  -0.558  -0.201  0.00  0.00    -0.064 C 
ATOM     19  C   UNL     1      -1.135  -2.076  -0.130  0.00  0.00    +0.066 C 
ATOM     20  N   UNL     1      -0.420  -2.599   1.043  0.00  0.00    -0.302 NA
ATOM     21  C   UNL     1       1.011  -2.269   0.972  0.00  0.00    +0.066 C 
ATOM     22  C   UNL     1       1.177  -0.750   0.892  0.00  0.00    -0.064 C 
ATOM     23  H   UNL     1       0.865  -0.677  -1.123  0.00  0.00    -0.082 HD
ENDBRANCH  15  20
ENDBRANCH   9  15
ENDBRANCH   1  12
BRANCH   6  24
ATOM     24  C   UNL     1       4.999  -6.375   9.269  0.00  0.00    +0.001 A 
ATOM     25  C   UNL     1       6.322  -6.127   9.636  0.00  0.00    +0.012 A 
ATOM     26  C   UNL     1       6.822  -6.659  10.804  0.00  0.00    +0.027 A 
ATOM     27  C   UNL     1       6.010  -7.443  11.617  0.00  0.00    +0.074 A 
ATOM     28  C   UNL     1       4.691  -7.691  11.252  0.00  0.00    +0.027 A 
ATOM     29  C   UNL     1       4.184  -7.157  10.088  0.00  0.00    +0.012 A 
BRANCH  27  30
ATOM     30  N   UNL     1       6.518  -7.980  12.798  0.00  0.00    -0.103 NA
BRANCH  30  31
ATOM     31  S   UNL     1       5.552  -8.913  13.767  0.00  0.00    +0.059 S 
ATOM     32  O   UNL     1       4.524  -8.036  14.206  0.00  0.00    -0.154 OA
ATOM     33  O   UNL     1       5.242 -10.054  12.979  0.00  0.00    -0.154 OA
ATOM     34  C   UNL     1       6.609  -9.385  15.163  0.00  0.00    +0.220 C 
ENDBRANCH  30  31
ENDBRANCH  27  30
ENDBRANCH   6  24
TORSDOF 6
