REMARK  Name = CHEMBL1087268
REMARK  6 active torsions:
REMARK  status: ('A' for Active; 'I' for Inactive)
REMARK    1  A    between atoms: C_1  and  C_2
REMARK    2  A    between atoms: C_10  and  N_25
REMARK    3  A    between atoms: N_14  and  C_15
REMARK    4  A    between atoms: C_15  and  C_17
REMARK    5  A    between atoms: C_15  and  C_18
REMARK    6  A    between atoms: N_28  and  C_31
REMARK                            x       y       z     vdW  Elec       q    Type
REMARK                         _______ _______ _______ _____ _____    ______ ____
ROOT
ATOM      1  C   UNL     1       6.489  -3.825  -0.066  0.00  0.00    +0.053 C 
ATOM      2  C   UNL     1       5.008  -4.102  -0.058  0.00  0.00    +0.008 A 
ATOM      3  C   UNL     1       4.350  -5.287  -0.049  0.00  0.00    +0.124 A 
ATOM      4  N   UNL     1       3.030  -5.241  -0.043  0.00  0.00    -0.233 NA
ATOM      5  C   UNL     1       2.390  -4.091  -0.046  0.00  0.00    +0.164 A 
ATOM      6  S   UNL     1       3.636  -2.959  -0.049  0.00  0.00    -0.057 S 
ATOM      7  N   UNL     1       1.020  -3.866  -0.041  0.00  0.00    -0.279 N 
ATOM      8  C   UNL     1       0.141  -4.935  -0.139  0.00  0.00    +0.131 A 
ATOM      9  C   UNL     1      -1.229  -4.714  -0.244  0.00  0.00    +0.087 A 
ATOM     10  C   UNL     1      -2.072  -5.817  -0.340  0.00  0.00    +0.128 A 
ATOM     11  N   UNL     1      -1.545  -7.039  -0.329  0.00  0.00    -0.199 NA
ATOM     12  C   UNL     1      -0.235  -7.212  -0.228  0.00  0.00    +0.219 A 
ATOM     13  N   UNL     1       0.598  -6.186  -0.139  0.00  0.00    -0.199 NA
ATOM     14  N   UNL     1       0.276  -8.498  -0.219  0.00  0.00    -0.305 N 
ATOM     15  H   UNL     1       0.678  -2.961   0.031  0.00  0.00    +0.155 HD
ATOM     16  H   UNL     1      -0.322  -9.258  -0.286  0.00  0.00    +0.150 HD
ENDROOT
BRANCH  10  17
ATOM     17  N   UNL     1      -3.444  -5.645  -0.446  0.00  0.00    -0.319 N 
ATOM     18  C   UNL     1      -4.361  -6.790  -0.333  0.00  0.00    +0.088 C 
ATOM     19  C   UNL     1      -5.450  -6.441   0.686  0.00  0.00    -0.060 C 
ATOM     20  N   UNL     1      -6.098  -5.182   0.296  0.00  0.00    +0.380 N 
ATOM     21  C   UNL     1      -5.130  -4.081   0.361  0.00  0.00    -0.060 C 
ATOM     22  C   UNL     1      -4.024  -4.312  -0.668  0.00  0.00    +0.088 C 
ATOM     23  C   UNL     1      -7.214  -4.905   1.210  0.00  0.00    -0.096 C 
ATOM     24  H   UNL     1      -6.450  -5.264  -0.645  0.00  0.00    -0.082 HD
ENDBRANCH  10  17
BRANCH  14  25
ATOM     25  C   UNL     1       1.721  -8.710  -0.107  0.00  0.00    +0.119 C 
ATOM     26  C   UNL     1       2.127  -8.696   1.368  0.00  0.00    +0.034 C 
BRANCH  25  27
ATOM     27  C   UNL     1       2.081 -10.042  -0.715  0.00  0.00    +0.061 A 
ATOM     28  C   UNL     1       3.362 -10.250  -1.192  0.00  0.00    +0.028 A 
ATOM     29  C   UNL     1       3.684 -11.478  -1.749  0.00  0.00    +0.042 A 
ATOM     30  C   UNL     1       2.700 -12.456  -1.805  0.00  0.00    +0.141 A 
ATOM     31  C   UNL     1       1.440 -12.174  -1.306  0.00  0.00    +0.149 A 
ATOM     32  N   UNL     1       1.173 -10.995  -0.779  0.00  0.00    -0.255 NA
ATOM     33  F   UNL     1       2.969 -13.668  -2.340  0.00  0.00    -0.204 F 
ENDBRANCH  25  27
ENDBRANCH  14  25
TORSDOF 3
