REMARK  Name = CHEMBL1079523
REMARK  3 active torsions:
REMARK  status: ('A' for Active; 'I' for Inactive)
REMARK    1  A    between atoms: C_4  and  C_8
REMARK    2  A    between atoms: C_8  and  N_9
REMARK    3  A    between atoms: C_22  and  C_25
REMARK                            x       y       z     vdW  Elec       q    Type
REMARK                         _______ _______ _______ _____ _____    ______ ____
ROOT
ATOM      1  N   UNL     1       4.155  -0.953   1.337  0.00  0.00    -0.272 N 
ATOM      2  C   UNL     1       4.941  -0.105   2.096  0.00  0.00    +0.167 A 
ATOM      3  C   UNL     1       5.120  -0.725   3.340  0.00  0.00    +0.105 A 
ATOM      4  C   UNL     1       5.879  -0.080   4.301  0.00  0.00    +0.144 A 
ATOM      5  N   UNL     1       6.409   1.100   4.010  0.00  0.00    -0.218 NA
ATOM      6  C   UNL     1       6.222   1.659   2.825  0.00  0.00    +0.238 A 
ATOM      7  N   UNL     1       5.503   1.075   1.879  0.00  0.00    -0.192 NA
ATOM      8  N   UNL     1       6.799   2.901   2.566  0.00  0.00    -0.267 N 
ATOM      9  C   UNL     1       6.700   3.613   1.408  0.00  0.00    +0.207 A 
ATOM     10  N   UNL     1       7.362   4.729   1.511  0.00  0.00    -0.235 NA
ATOM     11  C   UNL     1       7.932   4.813   2.739  0.00  0.00    +0.089 A 
ATOM     12  C   UNL     1       7.575   3.645   3.438  0.00  0.00    +0.077 A 
ATOM     13  C   UNL     1       8.014   3.454   4.736  0.00  0.00    +0.047 A 
ATOM     14  C   UNL     1       8.807   4.426   5.345  0.00  0.00    +0.054 A 
ATOM     15  C   UNL     1       9.155   5.589   4.644  0.00  0.00    +0.021 A 
ATOM     16  C   UNL     1       8.732   5.777   3.363  0.00  0.00    +0.031 A 
ATOM     17  N   UNL     1       4.431  -1.934   3.290  0.00  0.00    -0.303 N 
ATOM     18  H   UNL     1       4.372  -2.586   4.006  0.00  0.00    +0.171 HD
ATOM     19  C   UNL     1       3.858  -2.039   2.075  0.00  0.00    +0.329 A 
ATOM     20  O   UNL     1       3.176  -2.975   1.701  0.00  0.00    -0.246 OA
ENDROOT
BRANCH  14  21
ATOM     21  C   UNL     1       9.266   4.236   6.688  0.00  0.00    +0.099 C 
ATOM     22  N   UNL     1       9.630   4.086   7.754  0.00  0.00    -0.191 NA
ENDBRANCH  14  21
BRANCH   1  23
ATOM     23  C   UNL     1       3.715  -0.707  -0.038  0.00  0.00    +0.169 C 
BRANCH  23  27
ATOM     24  C   UNL     1      -0.017   1.378   0.010  0.00  0.00    +0.006 A 
ATOM     25  C   UNL     1       1.170   2.086   0.002  0.00  0.00    +0.039 A 
ATOM     26  C   UNL     1       2.379   1.412  -0.013  0.00  0.00    +0.131 A 
ATOM     27  C   UNL     1       2.399   0.028  -0.021  0.00  0.00    +0.043 A 
ATOM     28  C   UNL     1       1.210  -0.681  -0.013  0.00  0.00    +0.131 A 
ATOM     29  C   UNL     1       0.002  -0.004   0.002  0.00  0.00    +0.039 A 
ATOM     30  F   UNL     1       1.228  -2.031  -0.020  0.00  0.00    -0.205 F 
ATOM     31  F   UNL     1       3.539   2.104  -0.022  0.00  0.00    -0.205 F 
ENDBRANCH  23  27
ENDBRANCH   1  23
TORSDOF 3
