REMARK  Name = CHEMBL1089773
REMARK  6 active torsions:
REMARK  status: ('A' for Active; 'I' for Inactive)
REMARK    1  A    between atoms: C_1  and  N_2
REMARK    2  A    between atoms: N_5  and  C_8
REMARK    3  A    between atoms: C_11  and  C_14
REMARK    4  A    between atoms: C_21  and  C_24
REMARK    5  A    between atoms: C_27  and  C_31
REMARK    6  A    between atoms: C_31  and  N_32
REMARK                            x       y       z     vdW  Elec       q    Type
REMARK                         _______ _______ _______ _____ _____    ______ ____
ROOT
ATOM      1  C   UNL     1      -2.341  -6.944   3.925  0.00  0.00    +0.090 A 
ATOM      2  C   UNL     1      -3.610  -7.496   3.664  0.00  0.00    +0.139 A 
ATOM      3  N   UNL     1      -4.061  -8.498   4.381  0.00  0.00    -0.251 NA
ATOM      4  C   UNL     1      -3.311  -9.002   5.370  0.00  0.00    +0.090 A 
ATOM      5  C   UNL     1      -3.773 -10.075   6.149  0.00  0.00    +0.030 A 
ATOM      6  C   UNL     1      -2.999 -10.577   7.151  0.00  0.00    +0.003 A 
ATOM      7  C   UNL     1      -1.744 -10.045   7.425  0.00  0.00    +0.011 A 
ATOM      8  C   UNL     1      -1.248  -8.988   6.682  0.00  0.00    +0.010 A 
ATOM      9  C   UNL     1      -2.033  -8.448   5.634  0.00  0.00    +0.098 A 
ATOM     10  N   UNL     1      -1.585  -7.433   4.894  0.00  0.00    -0.243 NA
ENDROOT
BRANCH   8  11
ATOM     11  C   UNL     1       0.090  -8.427   6.980  0.00  0.00    -0.010 A 
ATOM     12  C   UNL     1       1.013  -8.239   5.952  0.00  0.00    +0.047 A 
ATOM     13  C   UNL     1       2.261  -7.715   6.235  0.00  0.00    +0.131 A 
ATOM     14  C   UNL     1       2.594  -7.378   7.537  0.00  0.00    +0.037 A 
ATOM     15  C   UNL     1       1.680  -7.563   8.561  0.00  0.00    +0.131 A 
ATOM     16  C   UNL     1       0.428  -8.081   8.287  0.00  0.00    +0.047 A 
ATOM     17  F   UNL     1       2.011  -7.233   9.828  0.00  0.00    -0.205 F 
ATOM     18  F   UNL     1       3.157  -7.532   5.240  0.00  0.00    -0.205 F 
BRANCH  14  19
ATOM     19  C   UNL     1       3.956  -6.808   7.840  0.00  0.00    +0.125 C 
BRANCH  19  20
ATOM     20  N   UNL     1       3.909  -5.344   7.732  0.00  0.00    -0.294 NA
ATOM     21  C   UNL     1       3.663  -4.925   6.345  0.00  0.00    +0.113 C 
ATOM     22  C   UNL     1       3.562  -3.398   6.288  0.00  0.00    +0.175 C 
ATOM     23  O   UNL     1       4.760  -2.827   6.822  0.00  0.00    -0.377 OA
ATOM     24  C   UNL     1       5.030  -3.213   8.172  0.00  0.00    +0.175 C 
ATOM     25  C   UNL     1       5.146  -4.738   8.247  0.00  0.00    +0.113 C 
ENDBRANCH  19  20
ENDBRANCH  14  19
ENDBRANCH   8  11
BRANCH   1  29
ATOM     26  C   UNL     1      -0.926  -3.697   1.572  0.00  0.00    +0.030 A 
ATOM     27  C   UNL     1      -2.221  -4.174   1.391  0.00  0.00    +0.024 A 
ATOM     28  C   UNL     1      -2.681  -5.226   2.152  0.00  0.00    +0.012 A 
ATOM     29  C   UNL     1      -1.849  -5.813   3.105  0.00  0.00    +0.002 A 
ATOM     30  C   UNL     1      -0.551  -5.333   3.285  0.00  0.00    +0.012 A 
ATOM     31  C   UNL     1      -0.093  -4.285   2.518  0.00  0.00    +0.024 A 
BRANCH  26  36
ATOM     32  C   UNL     1       1.586  -1.057  -2.506  0.00  0.00    +0.105 C 
ATOM     33  N   UNL     1       0.816  -1.284  -1.276  0.00  0.00    -0.302 NA
ATOM     34  C   UNL     1       1.629  -1.978  -0.267  0.00  0.00    +0.103 C 
ATOM     35  C   UNL     1       0.857  -2.035   1.055  0.00  0.00    +0.120 C 
ATOM     36  N   UNL     1      -0.463  -2.633   0.801  0.00  0.00    -0.327 N 
ATOM     37  C   UNL     1      -1.280  -2.078  -0.289  0.00  0.00    +0.120 C 
ATOM     38  C   UNL     1      -0.424  -2.019  -1.558  0.00  0.00    +0.103 C 
ENDBRANCH  26  36
ENDBRANCH   1  29
TORSDOF 5
