REMARK  Name = CHEMBL220585
REMARK  3 active torsions:
REMARK  status: ('A' for Active; 'I' for Inactive)
REMARK    1  A    between atoms: C_1  and  C_2
REMARK    2  A    between atoms: C_2  and  C_4
REMARK    3  A    between atoms: C_2  and  N_10
REMARK                            x       y       z     vdW  Elec       q    Type
REMARK                         _______ _______ _______ _____ _____    ______ ____
ROOT
ATOM      1  N   UNL     1       0.711  -0.489   1.189  0.00  0.00    -0.322 N 
ATOM      2  C   UNL     1       0.033  -0.637   2.388  0.00  0.00    +0.124 A 
ATOM      3  C   UNL     1      -1.328  -0.333   2.476  0.00  0.00    +0.063 A 
ATOM      4  C   UNL     1      -1.962  -0.496   3.692  0.00  0.00    +0.118 A 
ATOM      5  N   UNL     1      -1.266  -0.934   4.731  0.00  0.00    -0.220 NA
ATOM      6  C   UNL     1       0.022  -1.215   4.619  0.00  0.00    +0.238 A 
ATOM      7  N   UNL     1       0.666  -1.077   3.471  0.00  0.00    -0.197 NA
ATOM      8  N   UNL     1       0.717  -1.673   5.736  0.00  0.00    -0.267 N 
ATOM      9  C   UNL     1       2.042  -1.999   5.788  0.00  0.00    +0.207 A 
ATOM     10  N   UNL     1       2.358  -2.389   6.988  0.00  0.00    -0.234 NA
ATOM     11  C   UNL     1       1.264  -2.342   7.788  0.00  0.00    +0.107 A 
ATOM     12  C   UNL     1       0.197  -1.875   6.995  0.00  0.00    +0.079 A 
ATOM     13  C   UNL     1      -1.054  -1.727   7.582  0.00  0.00    +0.048 A 
ATOM     14  C   UNL     1      -1.203  -2.039   8.917  0.00  0.00    +0.113 A 
ATOM     15  N   UNL     1      -0.182  -2.472   9.638  0.00  0.00    -0.261 NA
ATOM     16  C   UNL     1       1.021  -2.637   9.129  0.00  0.00    +0.140 A 
ATOM     17  H   UNL     1       1.654  -0.707   1.135  0.00  0.00    +0.148 HD
ENDROOT
BRANCH   1  19
ATOM     18  C   UNL     1      -0.019   1.526   0.010  0.00  0.00    +0.033 C 
ATOM     19  C   UNL     1       0.002  -0.004   0.002  0.00  0.00    +0.099 C 
BRANCH  19  20
ATOM     20  C   UNL     1       0.707  -0.490  -1.238  0.00  0.00    -0.028 A 
ATOM     21  C   UNL     1       2.089  -0.511  -1.284  0.00  0.00    +0.005 A 
ATOM     22  C   UNL     1       2.736  -0.957  -2.421  0.00  0.00    +0.000 A 
ATOM     23  C   UNL     1       2.002  -1.382  -3.512  0.00  0.00    +0.000 A 
ATOM     24  C   UNL     1       0.620  -1.362  -3.466  0.00  0.00    +0.000 A 
ATOM     25  C   UNL     1      -0.027  -0.920  -2.327  0.00  0.00    +0.005 A 
ENDBRANCH  19  20
ENDBRANCH   1  19
TORSDOF 2
