REMARK  Name = CHEMBL1079078
REMARK  7 active torsions:
REMARK  status: ('A' for Active; 'I' for Inactive)
REMARK    1  A    between atoms: C_1  and  S_2
REMARK    2  A    between atoms: S_2  and  N_5
REMARK    3  A    between atoms: N_5  and  C_6
REMARK    4  A    between atoms: C_9  and  C_12
REMARK    5  A    between atoms: N_18  and  C_19
REMARK    6  A    between atoms: C_22  and  N_25
REMARK    7  A    between atoms: C_28  and  O_31
REMARK                            x       y       z     vdW  Elec       q    Type
REMARK                         _______ _______ _______ _____ _____    ______ ____
ROOT
ATOM      1  C   UNL     1       1.672  -5.850  -2.670  0.00  0.00    +0.076 A 
ATOM      2  C   UNL     1       2.084  -6.191  -3.962  0.00  0.00    +0.048 A 
ATOM      3  C   UNL     1       2.057  -7.523  -4.332  0.00  0.00    +0.116 A 
ATOM      4  N   UNL     1       1.646  -8.430  -3.458  0.00  0.00    -0.223 NA
ATOM      5  C   UNL     1       1.261  -8.078  -2.240  0.00  0.00    +0.220 A 
ATOM      6  N   UNL     1       1.276  -6.816  -1.843  0.00  0.00    -0.214 NA
ATOM      7  N   UNL     1       0.838  -9.058  -1.357  0.00  0.00    -0.284 N 
ATOM      8  H   UNL     1       0.477  -8.809  -0.492  0.00  0.00    +0.155 HD
ENDROOT
BRANCH   1  12
ATOM      9  C   UNL     1       1.700  -1.793  -1.395  0.00  0.00    +0.074 A 
ATOM     10  C   UNL     1       1.284  -2.793  -0.521  0.00  0.00    +0.027 A 
ATOM     11  C   UNL     1       1.274  -4.108  -0.932  0.00  0.00    +0.012 A 
ATOM     12  C   UNL     1       1.681  -4.436  -2.225  0.00  0.00    +0.001 A 
ATOM     13  C   UNL     1       2.099  -3.432  -3.100  0.00  0.00    +0.012 A 
ATOM     14  C   UNL     1       2.102  -2.118  -2.686  0.00  0.00    +0.027 A 
BRANCH   9  15
ATOM     15  N   UNL     1       1.710  -0.464  -0.977  0.00  0.00    -0.103 NA
BRANCH  15  17
ATOM     16  C   UNL     1       1.403   1.728   0.660  0.00  0.00    +0.220 C 
ATOM     17  S   UNL     1       1.232  -0.075   0.560  0.00  0.00    +0.059 S 
ATOM     18  O   UNL     1       2.184  -0.705   1.406  0.00  0.00    -0.154 OA
ATOM     19  O   UNL     1      -0.140  -0.441   0.617  0.00  0.00    -0.154 OA
ENDBRANCH  15  17
ENDBRANCH   9  15
ENDBRANCH   1  12
BRANCH   7  20
ATOM     20  C   UNL     1       0.932 -10.410  -1.714  0.00  0.00    +0.034 A 
ATOM     21  C   UNL     1       2.028 -10.863  -2.436  0.00  0.00    +0.025 A 
ATOM     22  C   UNL     1       2.120 -12.195  -2.788  0.00  0.00    +0.025 A 
ATOM     23  C   UNL     1       1.117 -13.082  -2.419  0.00  0.00    +0.030 A 
ATOM     24  C   UNL     1       0.021 -12.628  -1.696  0.00  0.00    +0.025 A 
ATOM     25  C   UNL     1      -0.069 -11.297  -1.340  0.00  0.00    +0.025 A 
BRANCH  23  26
ATOM     26  N   UNL     1       1.210 -14.432  -2.776  0.00  0.00    -0.330 N 
ATOM     27  C   UNL     1       0.100 -15.355  -2.506  0.00  0.00    +0.107 C 
ATOM     28  C   UNL     1      -0.279 -16.065  -3.810  0.00  0.00    +0.050 C 
ATOM     29  C   UNL     1       0.965 -16.732  -4.402  0.00  0.00    +0.118 C 
ATOM     30  C   UNL     1       2.016 -15.666  -4.720  0.00  0.00    +0.050 C 
ATOM     31  C   UNL     1       2.418 -14.951  -3.432  0.00  0.00    +0.107 C 
BRANCH  29  32
ATOM     32  O   UNL     1       0.609 -17.422  -5.602  0.00  0.00    -0.392 OA
ATOM     33  H   UNL     1       1.350 -17.870  -6.033  0.00  0.00    +0.210 HD
ENDBRANCH  29  32
ENDBRANCH  23  26
ENDBRANCH   7  20
TORSDOF 6
