REMARK  Name = CHEMBL1093119
REMARK  6 active torsions:
REMARK  status: ('A' for Active; 'I' for Inactive)
REMARK    1  A    between atoms: C_1  and  C_2
REMARK    2  A    between atoms: C_4  and  C_16
REMARK    3  A    between atoms: C_7  and  C_8
REMARK    4  A    between atoms: C_23  and  C_26
REMARK    5  A    between atoms: C_29  and  C_33
REMARK    6  A    between atoms: C_33  and  N_34
REMARK                            x       y       z     vdW  Elec       q    Type
REMARK                         _______ _______ _______ _____ _____    ______ ____
ROOT
ATOM      1  C   UNL     1      -0.211  -2.863  -2.451  0.00  0.00    +0.090 A 
ATOM      2  C   UNL     1      -0.539  -2.177  -3.635  0.00  0.00    +0.139 A 
ATOM      3  N   UNL     1      -0.643  -2.822  -4.772  0.00  0.00    -0.251 NA
ATOM      4  C   UNL     1      -0.437  -4.145  -4.810  0.00  0.00    +0.090 A 
ATOM      5  C   UNL     1      -0.543  -4.857  -6.016  0.00  0.00    +0.030 A 
ATOM      6  C   UNL     1      -0.329  -6.202  -6.038  0.00  0.00    +0.003 A 
ATOM      7  C   UNL     1      -0.005  -6.898  -4.879  0.00  0.00    +0.011 A 
ATOM      8  C   UNL     1       0.110  -6.237  -3.669  0.00  0.00    +0.010 A 
ATOM      9  C   UNL     1      -0.106  -4.838  -3.618  0.00  0.00    +0.098 A 
ATOM     10  N   UNL     1       0.002  -4.168  -2.470  0.00  0.00    -0.243 NA
ENDROOT
BRANCH   8  11
ATOM     11  C   UNL     1       0.456  -6.986  -2.438  0.00  0.00    -0.010 A 
ATOM     12  C   UNL     1       1.482  -6.533  -1.609  0.00  0.00    +0.047 A 
ATOM     13  C   UNL     1       1.800  -7.235  -0.462  0.00  0.00    +0.131 A 
ATOM     14  C   UNL     1       1.102  -8.386  -0.135  0.00  0.00    +0.037 A 
ATOM     15  C   UNL     1       0.082  -8.839  -0.955  0.00  0.00    +0.131 A 
ATOM     16  C   UNL     1      -0.248  -8.142  -2.102  0.00  0.00    +0.047 A 
ATOM     17  F   UNL     1      -0.595  -9.963  -0.631  0.00  0.00    -0.205 F 
ATOM     18  F   UNL     1       2.794  -6.797   0.342  0.00  0.00    -0.205 F 
BRANCH  14  19
ATOM     19  C   UNL     1       1.454  -9.147   1.117  0.00  0.00    +0.125 C 
BRANCH  19  20
ATOM     20  N   UNL     1       0.656  -8.638   2.241  0.00  0.00    -0.294 NA
ATOM     21  C   UNL     1       1.027  -7.253   2.566  0.00  0.00    +0.113 C 
ATOM     22  C   UNL     1       0.133  -6.743   3.699  0.00  0.00    +0.175 C 
ATOM     23  O   UNL     1       0.256  -7.616   4.826  0.00  0.00    -0.377 OA
ATOM     24  C   UNL     1      -0.098  -8.972   4.545  0.00  0.00    +0.175 C 
ATOM     25  C   UNL     1       0.794  -9.505   3.420  0.00  0.00    +0.113 C 
ENDBRANCH  19  20
ENDBRANCH  14  19
ENDBRANCH   8  11
BRANCH   1  29
ATOM     26  C   UNL     1      -0.666   1.398   0.105  0.00  0.00    +0.044 C 
ATOM     27  C   UNL     1      -0.315  -0.067   0.055  0.00  0.00    -0.038 A 
ATOM     28  C   UNL     1      -0.421  -0.761  -1.130  0.00  0.00    +0.014 A 
ATOM     29  C   UNL     1      -0.097  -2.117  -1.176  0.00  0.00    +0.002 A 
ATOM     30  C   UNL     1       0.335  -2.772  -0.021  0.00  0.00    +0.011 A 
ATOM     31  C   UNL     1       0.441  -2.079   1.164  0.00  0.00    +0.014 A 
ATOM     32  C   UNL     1       0.122  -0.720   1.210  0.00  0.00    +0.040 A 
BRANCH  32  33
ATOM     33  C   UNL     1       0.243   0.025   2.480  0.00  0.00    +0.247 C 
ATOM     34  O   UNL     1      -0.680   0.715   2.870  0.00  0.00    -0.270 OA
ATOM     35  N   UNL     1       1.375  -0.059   3.207  0.00  0.00    -0.293 N 
ATOM     36  C   UNL     1       2.551  -0.779   2.695  0.00  0.00    +0.136 C 
ATOM     37  C   UNL     1       3.774   0.136   2.827  0.00  0.00    +0.179 C 
ATOM     38  O   UNL     1       3.859   0.616   4.171  0.00  0.00    -0.377 OA
ATOM     39  C   UNL     1       2.747   1.417   4.577  0.00  0.00    +0.179 C 
ATOM     40  C   UNL     1       1.473   0.572   4.532  0.00  0.00    +0.136 C 
ENDBRANCH  32  33
ENDBRANCH   1  29
TORSDOF 5
