REMARK  Name = CHEMBL589633
REMARK  2 active torsions:
REMARK  status: ('A' for Active; 'I' for Inactive)
REMARK    1  A    between atoms: C_17  and  C_21
REMARK    2  A    between atoms: C_24  and  O_28
REMARK                            x       y       z     vdW  Elec       q    Type
REMARK                         _______ _______ _______ _____ _____    ______ ____
ROOT
ATOM      1  C   UNL     1      -0.217   1.158  -0.024  0.00  0.00    +0.001 A 
ATOM      2  C   UNL     1       0.959   1.881   0.097  0.00  0.00    +0.001 A 
ATOM      3  C   UNL     1       2.168   1.230   0.100  0.00  0.00    +0.013 A 
ATOM      4  C   UNL     1       2.237  -0.174  -0.012  0.00  0.00    +0.044 A 
ATOM      5  C   UNL     1       1.055  -0.899  -0.100  0.00  0.00    -0.005 A 
ATOM      6  C   UNL     1      -0.172  -0.212  -0.123  0.00  0.00    +0.009 A 
ATOM      7  C   UNL     1       0.965  -2.368  -0.144  0.00  0.00    -0.005 A 
ATOM      8  C   UNL     1       0.062  -3.003   0.729  0.00  0.00    +0.029 A 
ATOM      9  C   UNL     1      -0.087  -4.374   0.706  0.00  0.00    +0.114 A 
ATOM     10  N   UNL     1       0.579  -5.166  -0.119  0.00  0.00    -0.237 NA
ATOM     11  C   UNL     1       1.452  -4.625  -0.962  0.00  0.00    +0.139 A 
ATOM     12  C   UNL     1       1.685  -3.221  -0.977  0.00  0.00    +0.032 A 
ATOM     13  C   UNL     1       2.742  -3.022  -1.958  0.00  0.00    +0.004 A 
ATOM     14  C   UNL     1       3.035  -4.213  -2.492  0.00  0.00    +0.091 A 
ATOM     15  N   UNL     1       2.253  -5.183  -1.913  0.00  0.00    -0.345 N 
ATOM     16  H   UNL     1       2.269  -6.124  -2.146  0.00  0.00    +0.167 HD
ATOM     17  C   UNL     1       3.385  -1.687  -2.266  0.00  0.00    +0.139 C 
ATOM     18  N   UNL     1       4.165  -1.332  -1.066  0.00  0.00    -0.300 N 
ATOM     19  C   UNL     1       3.586  -0.743  -0.034  0.00  0.00    +0.245 C 
ATOM     20  O   UNL     1       4.234  -0.665   0.992  0.00  0.00    -0.270 OA
ATOM     21  H   UNL     1       5.114  -1.534  -1.033  0.00  0.00    +0.150 HD
ENDROOT
BRANCH  17  22
ATOM     22  C   UNL     1       2.326  -0.647  -2.525  0.00  0.00    +0.013 A 
ATOM     23  C   UNL     1       1.019  -1.034  -2.755  0.00  0.00    +0.012 A 
ATOM     24  C   UNL     1       0.046  -0.083  -2.992  0.00  0.00    +0.046 A 
ATOM     25  C   UNL     1       0.380   1.264  -2.999  0.00  0.00    +0.120 A 
ATOM     26  C   UNL     1       1.691   1.653  -2.767  0.00  0.00    +0.084 A 
ATOM     27  C   UNL     1       2.662   0.697  -2.525  0.00  0.00    +0.132 A 
ATOM     28  F   UNL     1       3.938   1.074  -2.293  0.00  0.00    -0.205 F 
BRANCH  25  29
ATOM     29  O   UNL     1      -0.576   2.201  -3.232  0.00  0.00    -0.507 OA
ATOM     30  H   UNL     1      -1.020   2.518  -2.433  0.00  0.00    +0.292 HD
ENDBRANCH  25  29
ENDBRANCH  17  22
TORSDOF 2
