REMARK  Name = CHEMBL323994
REMARK  2 active torsions:
REMARK  status: ('A' for Active; 'I' for Inactive)
REMARK    1  A    between atoms: C_3  and  C_7
REMARK    2  A    between atoms: C_11  and  C_18
REMARK                            x       y       z     vdW  Elec       q    Type
REMARK                         _______ _______ _______ _____ _____    ______ ____
ROOT
ATOM      1  C   UNL     1       3.527   0.664  -0.029  0.00  0.00    +0.039 C 
ATOM      2  C   UNL     1       4.208  -0.534   0.063  0.00  0.00    +0.048 C 
ATOM      3  C   UNL     1       5.671  -0.733   0.172  0.00  0.00    +0.009 A 
ATOM      4  C   UNL     1       6.748   0.143   0.215  0.00  0.00    +0.019 A 
ATOM      5  C   UNL     1       8.040  -0.361   0.324  0.00  0.00    -0.016 A 
ATOM      6  C   UNL     1       8.245  -1.740   0.388  0.00  0.00    +0.010 A 
ATOM      7  C   UNL     1       7.176  -2.608   0.345  0.00  0.00    +0.024 A 
ATOM      8  C   UNL     1       5.878  -2.118   0.237  0.00  0.00    +0.042 A 
ATOM      9  N   UNL     1       4.650  -2.765   0.175  0.00  0.00    -0.281 N 
ATOM     10  C   UNL     1       3.638  -1.887   0.079  0.00  0.00    +0.249 C 
ATOM     11  O   UNL     1       2.453  -2.166   0.013  0.00  0.00    -0.270 OA
ATOM     12  H   UNL     1       4.538  -3.728   0.203  0.00  0.00    +0.155 HD
ENDROOT
BRANCH   1  15
ATOM     13  C   UNL     1      -0.056   0.766   0.399  0.00  0.00    +0.019 A 
ATOM     14  C   UNL     1       1.231   0.821   0.937  0.00  0.00    +0.027 A 
ATOM     15  C   UNL     1       2.119   0.670  -0.117  0.00  0.00    +0.040 A 
ATOM     16  N   UNL     1       1.374   0.527  -1.268  0.00  0.00    -0.361 N 
ATOM     17  H   UNL     1       1.730   0.404  -2.162  0.00  0.00    +0.165 HD
ATOM     18  C   UNL     1       0.058   0.588  -0.941  0.00  0.00    +0.083 A 
ENDBRANCH   1  15
BRANCH   5  19
ATOM     19  C   UNL     1       9.199   0.566   0.370  0.00  0.00    +0.000 A 
ATOM     20  C   UNL     1      10.501   0.070   0.473  0.00  0.00    +0.011 A 
ATOM     21  C   UNL     1      11.547   0.975   0.512  0.00  0.00    +0.020 A 
ATOM     22  C   UNL     1      11.273   2.329   0.448  0.00  0.00    +0.111 A 
ATOM     23  N   UNL     1      10.033   2.768   0.352  0.00  0.00    -0.263 NA
ATOM     24  C   UNL     1       9.006   1.944   0.306  0.00  0.00    +0.119 A 
ENDBRANCH   5  19
TORSDOF 2
