REMARK  Name = CHEMBL375296
REMARK  5 active torsions:
REMARK  status: ('A' for Active; 'I' for Inactive)
REMARK    1  A    between atoms: C_1  and  C_2
REMARK    2  A    between atoms: C_2  and  C_4
REMARK    3  A    between atoms: C_2  and  N_10
REMARK    4  A    between atoms: C_13  and  N_26
REMARK    5  A    between atoms: N_29  and  C_32
REMARK                            x       y       z     vdW  Elec       q    Type
REMARK                         _______ _______ _______ _____ _____    ______ ____
ROOT
ATOM      1  N   UNL     1      -1.264  -0.905  -0.042  0.00  0.00    -0.322 N 
ATOM      2  C   UNL     1      -2.016  -0.842  -1.205  0.00  0.00    +0.126 A 
ATOM      3  C   UNL     1      -1.416  -0.512  -2.417  0.00  0.00    +0.087 A 
ATOM      4  C   UNL     1      -2.212  -0.461  -3.557  0.00  0.00    +0.128 A 
ATOM      5  N   UNL     1      -3.512  -0.727  -3.452  0.00  0.00    -0.197 NA
ATOM      6  C   UNL     1      -4.048  -1.037  -2.282  0.00  0.00    +0.240 A 
ATOM      7  N   UNL     1      -3.322  -1.100  -1.178  0.00  0.00    -0.197 NA
ATOM      8  N   UNL     1      -5.412  -1.309  -2.213  0.00  0.00    -0.267 N 
ATOM      9  C   UNL     1      -6.293  -1.298  -3.253  0.00  0.00    +0.182 A 
ATOM     10  N   UNL     1      -7.488  -1.598  -2.831  0.00  0.00    -0.345 N 
ATOM     11  C   UNL     1      -7.458  -1.821  -1.496  0.00  0.00    +0.067 A 
ATOM     12  C   UNL     1      -6.124  -1.646  -1.077  0.00  0.00    +0.092 A 
ATOM     13  C   UNL     1      -5.811  -1.823   0.260  0.00  0.00    +0.139 A 
ATOM     14  N   UNL     1      -6.752  -2.155   1.123  0.00  0.00    -0.261 NA
ATOM     15  C   UNL     1      -8.011  -2.331   0.763  0.00  0.00    +0.113 A 
ATOM     16  C   UNL     1      -8.412  -2.169  -0.534  0.00  0.00    +0.047 A 
ATOM     17  H   UNL     1      -1.688  -1.139   0.798  0.00  0.00    +0.148 HD
ATOM     18  H   UNL     1      -8.280  -1.653  -3.388  0.00  0.00    +0.167 HD
ENDROOT
BRANCH   4  19
ATOM     19  N   UNL     1      -1.659  -0.138  -4.786  0.00  0.00    -0.313 N 
ATOM     20  C   UNL     1      -2.434  -0.289  -6.027  0.00  0.00    +0.122 C 
ATOM     21  C   UNL     1      -2.360   1.025  -6.811  0.00  0.00    +0.103 C 
ATOM     22  N   UNL     1      -0.953   1.401  -7.000  0.00  0.00    -0.302 NA
ATOM     23  C   UNL     1      -0.292   1.656  -5.713  0.00  0.00    +0.103 C 
ATOM     24  C   UNL     1      -0.283   0.373  -4.884  0.00  0.00    +0.122 C 
ATOM     25  C   UNL     1      -0.833   2.561  -7.893  0.00  0.00    +0.105 C 
ENDBRANCH   4  19
BRANCH   1  27
ATOM     26  C   UNL     1       0.394   0.892   0.029  0.00  0.00    +0.033 C 
ATOM     27  C   UNL     1       0.172  -0.618  -0.083  0.00  0.00    +0.099 C 
BRANCH  27  28
ATOM     28  C   UNL     1       0.856  -1.313   1.066  0.00  0.00    -0.028 A 
ATOM     29  C   UNL     1       0.249  -1.356   2.307  0.00  0.00    +0.005 A 
ATOM     30  C   UNL     1       0.877  -1.994   3.361  0.00  0.00    +0.000 A 
ATOM     31  C   UNL     1       2.110  -2.589   3.174  0.00  0.00    +0.000 A 
ATOM     32  C   UNL     1       2.717  -2.546   1.932  0.00  0.00    +0.000 A 
ATOM     33  C   UNL     1       2.087  -1.912   0.877  0.00  0.00    +0.005 A 
ENDBRANCH  27  28
ENDBRANCH   1  27
TORSDOF 3
