REMARK  Name = CHEMBL582808
REMARK  3 active torsions:
REMARK  status: ('A' for Active; 'I' for Inactive)
REMARK    1  A    between atoms: C_5  and  C_11
REMARK    2  A    between atoms: C_13  and  N_17
REMARK    3  A    between atoms: C_21  and  C_22
REMARK                            x       y       z     vdW  Elec       q    Type
REMARK                         _______ _______ _______ _____ _____    ______ ____
ROOT
ATOM      1  C   UNL     1       4.750  -0.236  -0.386  0.00  0.00    +0.083 A 
ATOM      2  C   UNL     1       5.812  -1.140  -0.469  0.00  0.00    +0.072 A 
ATOM      3  C   UNL     1       7.093  -0.633  -0.657  0.00  0.00    +0.126 A 
ATOM      4  N   UNL     1       7.261   0.686  -0.750  0.00  0.00    -0.221 NA
ATOM      5  C   UNL     1       6.234   1.508  -0.667  0.00  0.00    +0.223 A 
ATOM      6  N   UNL     1       5.004   1.072  -0.494  0.00  0.00    -0.235 NA
ENDROOT
BRANCH   1  11
ATOM      7  C   UNL     1       1.073  -3.660  -1.842  0.00  0.00    +0.039 A 
ATOM      8  C   UNL     1       2.380  -3.523  -2.325  0.00  0.00    +0.114 A 
ATOM      9  N   UNL     1       3.171  -2.595  -1.835  0.00  0.00    -0.235 NA
ATOM     10  C   UNL     1       2.747  -1.771  -0.873  0.00  0.00    +0.167 A 
ATOM     11  C   UNL     1       3.369  -0.718  -0.187  0.00  0.00    +0.086 A 
ATOM     12  C   UNL     1       2.429  -0.207   0.727  0.00  0.00    +0.150 A 
ATOM     13  N   UNL     1       1.314  -0.895   0.611  0.00  0.00    -0.150 NA
ATOM     14  N   UNL     1       1.476  -1.875  -0.374  0.00  0.00    -0.219 N 
ATOM     15  C   UNL     1       0.634  -2.828  -0.864  0.00  0.00    +0.116 A 
ATOM     16  N   UNL     1       2.643   0.851   1.609  0.00  0.00    -0.341 N 
ATOM     17  H   UNL     1       3.524   1.250   1.683  0.00  0.00    +0.144 HD
ATOM     18  H   UNL     1       1.911   1.189   2.149  0.00  0.00    +0.144 HD
ENDBRANCH   1  11
BRANCH   3  19
ATOM     19  N   UNL     1       8.182  -1.487  -0.746  0.00  0.00    -0.308 N 
ATOM     20  C   UNL     1       9.594  -1.074  -0.834  0.00  0.00    +0.107 C 
ATOM     21  C   UNL     1      10.314  -2.263  -1.516  0.00  0.00    +0.021 C 
ATOM     22  C   UNL     1       9.565  -3.475  -0.901  0.00  0.00    +0.029 C 
ATOM     23  C   UNL     1       8.119  -2.956  -0.762  0.00  0.00    +0.105 C 
BRANCH  23  24
ATOM     24  C   UNL     1       7.513  -3.457   0.523  0.00  0.00    -0.027 A 
ATOM     25  C   UNL     1       7.840  -2.853   1.723  0.00  0.00    +0.008 A 
ATOM     26  C   UNL     1       7.285  -3.311   2.902  0.00  0.00    +0.038 A 
ATOM     27  C   UNL     1       6.401  -4.376   2.883  0.00  0.00    +0.123 A 
ATOM     28  C   UNL     1       6.074  -4.981   1.681  0.00  0.00    +0.038 A 
ATOM     29  C   UNL     1       6.626  -4.518   0.502  0.00  0.00    +0.008 A 
ATOM     30  F   UNL     1       5.858  -4.826   4.035  0.00  0.00    -0.205 F 
ENDBRANCH  23  24
ENDBRANCH   3  19
TORSDOF 3
