REMARK  Name = CHEMBL1079690
REMARK  6 active torsions:
REMARK  status: ('A' for Active; 'I' for Inactive)
REMARK    1  A    between atoms: C_3  and  C_6
REMARK    2  A    between atoms: C_6  and  N_7
REMARK    3  A    between atoms: C_8  and  C_10
REMARK    4  A    between atoms: C_13  and  C_16
REMARK    5  A    between atoms: N_22  and  C_23
REMARK    6  A    between atoms: C_26  and  N_29
REMARK                            x       y       z     vdW  Elec       q    Type
REMARK                         _______ _______ _______ _____ _____    ______ ____
ROOT
ATOM      1  C   UNL     1       7.403   0.594   6.973  0.00  0.00    +0.076 A 
ATOM      2  C   UNL     1       8.745   0.285   7.210  0.00  0.00    +0.048 A 
ATOM      3  C   UNL     1       9.147   0.053   8.513  0.00  0.00    +0.116 A 
ATOM      4  N   UNL     1       8.257   0.130   9.489  0.00  0.00    -0.223 NA
ATOM      5  C   UNL     1       6.990   0.426   9.235  0.00  0.00    +0.220 A 
ATOM      6  N   UNL     1       6.564   0.660   8.004  0.00  0.00    -0.214 NA
ATOM      7  N   UNL     1       6.090   0.496  10.286  0.00  0.00    -0.284 N 
ATOM      8  H   UNL     1       5.146   0.631  10.107  0.00  0.00    +0.155 HD
ENDROOT
BRANCH   1  12
ATOM      9  C   UNL     1       6.022   1.333   3.015  0.00  0.00    +0.037 A 
ATOM     10  C   UNL     1       5.133   1.405   4.090  0.00  0.00    +0.014 A 
ATOM     11  C   UNL     1       5.581   1.165   5.370  0.00  0.00    +0.011 A 
ATOM     12  C   UNL     1       6.921   0.852   5.594  0.00  0.00    +0.001 A 
ATOM     13  C   UNL     1       7.810   0.780   4.521  0.00  0.00    +0.011 A 
ATOM     14  C   UNL     1       7.363   1.013   3.239  0.00  0.00    +0.014 A 
BRANCH   9  16
ATOM     15  N   UNL     1       4.249   1.900   1.425  0.00  0.00    -0.304 N 
ATOM     16  C   UNL     1       5.543   1.591   1.641  0.00  0.00    +0.244 C 
ATOM     17  O   UNL     1       6.316   1.524   0.705  0.00  0.00    -0.270 OA
ATOM     18  H   UNL     1       3.632   1.953   2.172  0.00  0.00    +0.149 HD
BRANCH  15  19
ATOM     19  C   UNL     1       3.773   2.155   0.063  0.00  0.00    +0.179 C 
BRANCH  19  22
ATOM     20  C   UNL     1       0.362   3.542   0.210  0.00  0.00    +0.041 A 
ATOM     21  C   UNL     1       1.766   3.703   0.230  0.00  0.00    +0.046 A 
ATOM     22  C   UNL     1       2.301   2.476   0.096  0.00  0.00    +0.122 A 
ATOM     23  O   UNL     1       1.301   1.585  -0.004  0.00  0.00    -0.466 OA
ATOM     24  C   UNL     1       0.123   2.226   0.065  0.00  0.00    +0.195 A 
ENDBRANCH  19  22
ENDBRANCH  15  19
ENDBRANCH   9  16
ENDBRANCH   1  12
BRANCH   7  25
ATOM     25  C   UNL     1       6.543   0.374  11.606  0.00  0.00    +0.034 A 
ATOM     26  C   UNL     1       7.753   0.942  11.980  0.00  0.00    +0.025 A 
ATOM     27  C   UNL     1       8.200   0.821  13.281  0.00  0.00    +0.025 A 
ATOM     28  C   UNL     1       7.439   0.131  14.215  0.00  0.00    +0.030 A 
ATOM     29  C   UNL     1       6.228  -0.437  13.841  0.00  0.00    +0.025 A 
ATOM     30  C   UNL     1       5.779  -0.311  12.541  0.00  0.00    +0.025 A 
BRANCH  28  31
ATOM     31  N   UNL     1       7.891   0.008  15.534  0.00  0.00    -0.326 N 
ATOM     32  C   UNL     1       7.167  -0.823  16.509  0.00  0.00    +0.133 C 
ATOM     33  C   UNL     1       8.171  -1.766  17.181  0.00  0.00    +0.178 C 
ATOM     34  O   UNL     1       9.268  -1.002  17.688  0.00  0.00    -0.377 OA
ATOM     35  C   UNL     1      10.016  -0.313  16.683  0.00  0.00    +0.178 C 
ATOM     36  C   UNL     1       9.109   0.700  15.984  0.00  0.00    +0.133 C 
ENDBRANCH  28  31
ENDBRANCH   7  25
TORSDOF 6
