REMARK  Name = CHEMBL233151
REMARK  6 active torsions:
REMARK  status: ('A' for Active; 'I' for Inactive)
REMARK    1  A    between atoms: C_1  and  C_2
REMARK    2  A    between atoms: C_2  and  C_4
REMARK    3  A    between atoms: C_2  and  N_10
REMARK    4  A    between atoms: C_14  and  C_30
REMARK    5  A    between atoms: N_15  and  C_29
REMARK    6  A    between atoms: N_35  and  C_38
REMARK                            x       y       z     vdW  Elec       q    Type
REMARK                         _______ _______ _______ _____ _____    ______ ____
ROOT
ATOM      1  N   UNL     1      -1.067  -2.267  -0.602  0.00  0.00    -0.322 N 
ATOM      2  C   UNL     1      -1.899  -1.756  -1.578  0.00  0.00    +0.134 A 
ATOM      3  C   UNL     1      -3.294  -1.702  -1.380  0.00  0.00    +0.059 A 
ATOM      4  C   UNL     1      -4.156  -2.076  -0.330  0.00  0.00    +0.046 A 
ATOM      5  C   UNL     1      -5.428  -1.779  -0.715  0.00  0.00    +0.107 A 
ATOM      6  N   UNL     1      -5.396  -1.225  -1.984  0.00  0.00    -0.324 N 
ATOM      7  C   UNL     1      -4.098  -1.170  -2.409  0.00  0.00    +0.148 A 
ATOM      8  N   UNL     1      -3.510  -0.740  -3.524  0.00  0.00    -0.194 NA
ATOM      9  C   UNL     1      -2.198  -0.810  -3.665  0.00  0.00    +0.240 A 
ATOM     10  N   UNL     1      -1.404  -1.298  -2.721  0.00  0.00    -0.196 NA
ATOM     11  N   UNL     1      -1.627  -0.349  -4.847  0.00  0.00    -0.267 N 
ATOM     12  C   UNL     1      -2.291   0.190  -5.909  0.00  0.00    +0.182 A 
ATOM     13  N   UNL     1      -1.446   0.515  -6.846  0.00  0.00    -0.345 N 
ATOM     14  C   UNL     1      -0.188   0.208  -6.453  0.00  0.00    +0.067 A 
ATOM     15  C   UNL     1      -0.281  -0.347  -5.162  0.00  0.00    +0.092 A 
ATOM     16  C   UNL     1       0.877  -0.747  -4.517  0.00  0.00    +0.139 A 
ATOM     17  N   UNL     1       2.048  -0.606  -5.108  0.00  0.00    -0.261 NA
ATOM     18  C   UNL     1       2.171  -0.087  -6.317  0.00  0.00    +0.113 A 
ATOM     19  C   UNL     1       1.081   0.329  -7.030  0.00  0.00    +0.047 A 
ATOM     20  C   UNL     1      -6.562  -0.774  -2.747  0.00  0.00    +0.151 C 
ATOM     21  H   UNL     1      -1.441  -2.599   0.229  0.00  0.00    +0.148 HD
ATOM     22  H   UNL     1      -1.684   0.916  -7.697  0.00  0.00    +0.167 HD
ENDROOT
BRANCH   5  23
ATOM     23  C   UNL     1      -6.636  -2.008   0.085  0.00  0.00    +0.263 C 
ATOM     24  O   UNL     1      -7.711  -2.159  -0.466  0.00  0.00    -0.268 OA
ATOM     25  N   UNL     1      -6.556  -2.052   1.430  0.00  0.00    -0.294 N 
ATOM     26  C   UNL     1      -5.305  -1.708   2.123  0.00  0.00    +0.123 C 
ATOM     27  C   UNL     1      -5.619  -0.673   3.209  0.00  0.00    +0.103 C 
ATOM     28  N   UNL     1      -6.689  -1.187   4.075  0.00  0.00    -0.302 NA
ATOM     29  C   UNL     1      -7.936  -1.381   3.324  0.00  0.00    +0.103 C 
ATOM     30  C   UNL     1      -7.719  -2.439   2.243  0.00  0.00    +0.123 C 
ATOM     31  C   UNL     1      -6.901  -0.303   5.230  0.00  0.00    +0.105 C 
ENDBRANCH   5  23
BRANCH   1  33
ATOM     32  C   UNL     1       0.995  -0.963  -0.434  0.00  0.00    +0.033 C 
ATOM     33  C   UNL     1       0.381  -2.309  -0.823  0.00  0.00    +0.099 C 
BRANCH  33  34
ATOM     34  C   UNL     1       0.986  -3.400   0.023  0.00  0.00    -0.028 A 
ATOM     35  C   UNL     1       0.531  -3.609   1.311  0.00  0.00    +0.005 A 
ATOM     36  C   UNL     1       1.086  -4.610   2.087  0.00  0.00    +0.000 A 
ATOM     37  C   UNL     1       2.096  -5.402   1.573  0.00  0.00    +0.000 A 
ATOM     38  C   UNL     1       2.550  -5.194   0.285  0.00  0.00    +0.000 A 
ATOM     39  C   UNL     1       1.992  -4.196  -0.492  0.00  0.00    +0.005 A 
ENDBRANCH  33  34
ENDBRANCH   1  33
TORSDOF 3
