REMARK  Name = CHEMBL1087268
REMARK  6 active torsions:
REMARK  status: ('A' for Active; 'I' for Inactive)
REMARK    1  A    between atoms: C_1  and  C_2
REMARK    2  A    between atoms: C_10  and  N_25
REMARK    3  A    between atoms: N_14  and  C_15
REMARK    4  A    between atoms: C_15  and  C_17
REMARK    5  A    between atoms: C_15  and  C_18
REMARK    6  A    between atoms: N_28  and  C_31
REMARK                            x       y       z     vdW  Elec       q    Type
REMARK                         _______ _______ _______ _____ _____    ______ ____
ROOT
ATOM      1  C   UNL     1       6.484  -3.818   0.017  0.00  0.00    +0.053 C 
ATOM      2  C   UNL     1       5.003  -4.097   0.011  0.00  0.00    +0.008 A 
ATOM      3  C   UNL     1       4.348  -5.283  -0.011  0.00  0.00    +0.124 A 
ATOM      4  N   UNL     1       3.028  -5.239  -0.010  0.00  0.00    -0.233 NA
ATOM      5  C   UNL     1       2.386  -4.091   0.011  0.00  0.00    +0.164 A 
ATOM      6  S   UNL     1       3.630  -2.957   0.040  0.00  0.00    -0.057 S 
ATOM      7  N   UNL     1       1.016  -3.868   0.014  0.00  0.00    -0.279 N 
ATOM      8  C   UNL     1       0.139  -4.936  -0.111  0.00  0.00    +0.131 A 
ATOM      9  C   UNL     1      -1.231  -4.715  -0.215  0.00  0.00    +0.085 A 
ATOM     10  C   UNL     1      -2.072  -5.817  -0.340  0.00  0.00    +0.104 A 
ATOM     11  N   UNL     1      -1.542  -7.038  -0.356  0.00  0.00    -0.316 N 
ATOM     12  C   UNL     1      -0.233  -7.211  -0.255  0.00  0.00    +0.196 A 
ATOM     13  N   UNL     1       0.598  -6.186  -0.140  0.00  0.00    -0.201 NA
ATOM     14  N   UNL     1       0.281  -8.495  -0.275  0.00  0.00    -0.307 N 
ATOM     15  H   UNL     1       0.671  -2.966   0.105  0.00  0.00    +0.155 HD
ATOM     16  H   UNL     1       1.238  -8.636  -0.202  0.00  0.00    +0.149 HD
ATOM     17  H   UNL     1      -2.122  -7.811  -0.442  0.00  0.00    +0.170 HD
ENDROOT
BRANCH  10  18
ATOM     18  N   UNL     1      -3.444  -5.645  -0.446  0.00  0.00    -0.320 N 
ATOM     19  C   UNL     1      -4.353  -6.801  -0.442  0.00  0.00    +0.088 C 
ATOM     20  C   UNL     1      -5.456  -6.548   0.591  0.00  0.00    -0.060 C 
ATOM     21  N   UNL     1      -6.109  -5.265   0.304  0.00  0.00    +0.380 N 
ATOM     22  C   UNL     1      -5.149  -4.167   0.474  0.00  0.00    -0.060 C 
ATOM     23  C   UNL     1      -4.031  -4.301  -0.559  0.00  0.00    +0.088 C 
ATOM     24  C   UNL     1      -7.237  -5.074   1.226  0.00  0.00    -0.096 C 
ATOM     25  H   UNL     1      -6.451  -5.267  -0.645  0.00  0.00    -0.082 HD
ENDBRANCH  10  18
BRANCH  14  26
ATOM     26  C   UNL     1      -0.621  -9.643  -0.406  0.00  0.00    +0.119 C 
ATOM     27  C   UNL     1      -0.913  -9.894  -1.887  0.00  0.00    +0.034 C 
BRANCH  26  28
ATOM     28  C   UNL     1       0.030 -10.864   0.191  0.00  0.00    +0.061 A 
ATOM     29  C   UNL     1      -0.759 -11.902   0.651  0.00  0.00    +0.028 A 
ATOM     30  C   UNL     1      -0.152 -13.020   1.199  0.00  0.00    +0.042 A 
ATOM     31  C   UNL     1       1.235 -13.054   1.265  0.00  0.00    +0.141 A 
ATOM     32  C   UNL     1       1.958 -11.976   0.784  0.00  0.00    +0.149 A 
ATOM     33  N   UNL     1       1.345 -10.931   0.265  0.00  0.00    -0.255 NA
ATOM     34  F   UNL     1       1.869 -14.124   1.792  0.00  0.00    -0.204 F 
ENDBRANCH  26  28
ENDBRANCH  14  26
TORSDOF 3
