REMARK  Name = CHEMBL604578
REMARK  5 active torsions:
REMARK  status: ('A' for Active; 'I' for Inactive)
REMARK    1  A    between atoms: C_17  and  C_19
REMARK    2  A    between atoms: C_19  and  C_20
REMARK    3  A    between atoms: C_20  and  C_21
REMARK    4  A    between atoms: C_21  and  C_22
REMARK    5  A    between atoms: C_22  and  O_23
REMARK                            x       y       z     vdW  Elec       q    Type
REMARK                         _______ _______ _______ _____ _____    ______ ____
ROOT
ATOM      1  C   UNL     1      -0.017   1.378   0.010  0.00  0.00    +0.001 A 
ATOM      2  C   UNL     1       1.172   2.090   0.002  0.00  0.00    +0.002 A 
ATOM      3  C   UNL     1       2.385   1.437  -0.012  0.00  0.00    +0.028 A 
ATOM      4  C   UNL     1       2.433   0.039  -0.020  0.00  0.00    +0.073 A 
ATOM      5  C   UNL     1       1.214  -0.677  -0.013  0.00  0.00    +0.026 A 
ATOM      6  C   UNL     1       0.002  -0.004   0.002  0.00  0.00    +0.012 A 
ATOM      7  C   UNL     1       1.055  -2.146  -0.019  0.00  0.00    +0.086 A 
ATOM      8  C   UNL     1       2.097  -3.076  -0.028  0.00  0.00    +0.054 A 
ATOM      9  C   UNL     1       3.556  -2.886  -0.037  0.00  0.00    +0.025 A 
ATOM     10  C   UNL     1       4.084  -4.132  -0.042  0.00  0.00    +0.094 A 
ATOM     11  N   UNL     1       3.073  -5.060  -0.038  0.00  0.00    -0.345 N 
ATOM     12  H   UNL     1       3.208  -6.021  -0.040  0.00  0.00    +0.167 HD
ATOM     13  C   UNL     1       1.849  -4.449  -0.031  0.00  0.00    +0.143 A 
ATOM     14  N   UNL     1       0.568  -4.818  -0.027  0.00  0.00    -0.218 NA
ATOM     15  C   UNL     1      -0.394  -3.917  -0.020  0.00  0.00    +0.224 A 
ATOM     16  N   UNL     1      -0.186  -2.606  -0.015  0.00  0.00    -0.235 NA
ATOM     17  C   UNL     1       4.255  -1.598  -0.041  0.00  0.00    +0.051 C 
ATOM     18  N   UNL     1       3.718  -0.406  -0.033  0.00  0.00    -0.251 NA
ENDROOT
BRANCH  17  19
ATOM     19  C   UNL     1       5.761  -1.653  -0.053  0.00  0.00    +0.056 C 
BRANCH  19  20
ATOM     20  C   UNL     1       6.324  -0.231  -0.056  0.00  0.00    +0.008 C 
BRANCH  20  21
ATOM     21  C   UNL     1       7.852  -0.287  -0.069  0.00  0.00    +0.028 C 
BRANCH  21  22
ATOM     22  C   UNL     1       8.415   1.135  -0.071  0.00  0.00    +0.156 C 
BRANCH  22  23
ATOM     23  O   UNL     1       9.843   1.083  -0.083  0.00  0.00    -0.395 OA
ATOM     24  H   UNL     1      10.269   1.951  -0.085  0.00  0.00    +0.209 HD
ENDBRANCH  22  23
ENDBRANCH  21  22
ENDBRANCH  20  21
ENDBRANCH  19  20
ENDBRANCH  17  19
TORSDOF 5
