REMARK  Name = CHEMBL1093468
REMARK  10 active torsions:
REMARK  status: ('A' for Active; 'I' for Inactive)
REMARK    1  A    between atoms: C_1  and  O_2
REMARK    2  A    between atoms: O_2  and  C_3
REMARK    3  A    between atoms: C_5  and  C_13
REMARK    4  A    between atoms: C_7  and  O_11
REMARK    5  A    between atoms: C_8  and  O_9
REMARK    6  A    between atoms: O_9  and  C_10
REMARK    7  A    between atoms: O_11  and  C_12
REMARK    8  A    between atoms: C_20  and  C_23
REMARK    9  A    between atoms: C_26  and  C_29
REMARK   10  A    between atoms: C_29  and  C_30
REMARK                            x       y       z     vdW  Elec       q    Type
REMARK                         _______ _______ _______ _____ _____    ______ ____
ROOT
ATOM      1  C   UNL     1       2.456   0.315   4.193  0.00  0.00    +0.090 A 
ATOM      2  C   UNL     1       2.298   1.713   4.196  0.00  0.00    +0.139 A 
ATOM      3  N   UNL     1       2.837   2.443   5.143  0.00  0.00    -0.251 NA
ATOM      4  C   UNL     1       3.544   1.855   6.118  0.00  0.00    +0.090 A 
ATOM      5  C   UNL     1       4.130   2.617   7.143  0.00  0.00    +0.030 A 
ATOM      6  C   UNL     1       4.845   2.005   8.127  0.00  0.00    +0.003 A 
ATOM      7  C   UNL     1       5.013   0.625   8.142  0.00  0.00    +0.011 A 
ATOM      8  C   UNL     1       4.454  -0.164   7.152  0.00  0.00    +0.010 A 
ATOM      9  C   UNL     1       3.704   0.447   6.117  0.00  0.00    +0.098 A 
ATOM     10  N   UNL     1       3.147  -0.283   5.150  0.00  0.00    -0.243 NA
ENDROOT
BRANCH   1  13
ATOM     11  C   UNL     1       0.626  -0.619   1.042  0.00  0.00    +0.166 A 
ATOM     12  C   UNL     1       1.201   0.138   2.049  0.00  0.00    +0.059 A 
ATOM     13  C   UNL     1       1.840  -0.493   3.115  0.00  0.00    +0.009 A 
ATOM     14  C   UNL     1       1.900  -1.886   3.166  0.00  0.00    +0.059 A 
ATOM     15  C   UNL     1       1.324  -2.639   2.158  0.00  0.00    +0.166 A 
ATOM     16  C   UNL     1       0.682  -2.008   1.097  0.00  0.00    +0.204 A 
BRANCH  11  18
ATOM     17  C   UNL     1      -0.017   1.425   0.010  0.00  0.00    +0.277 C 
ATOM     18  O   UNL     1       0.002  -0.004   0.002  0.00  0.00    -0.491 OA
ENDBRANCH  11  18
BRANCH  16  19
ATOM     19  O   UNL     1       0.112  -2.750   0.110  0.00  0.00    -0.488 OA
ATOM     20  C   UNL     1       0.937  -3.085  -1.008  0.00  0.00    +0.277 C 
ENDBRANCH  16  19
BRANCH  15  21
ATOM     21  O   UNL     1       1.382  -3.997   2.206  0.00  0.00    -0.491 OA
ATOM     22  C   UNL     1       2.053  -4.578   3.326  0.00  0.00    +0.277 C 
ENDBRANCH  15  21
ENDBRANCH   1  13
BRANCH   8  23
ATOM     23  C   UNL     1       4.637  -1.634   7.175  0.00  0.00    -0.016 A 
ATOM     24  C   UNL     1       3.536  -2.479   7.035  0.00  0.00    +0.009 A 
ATOM     25  C   UNL     1       3.714  -3.847   7.056  0.00  0.00    +0.005 A 
ATOM     26  C   UNL     1       4.980  -4.381   7.216  0.00  0.00    -0.039 A 
ATOM     27  C   UNL     1       6.076  -3.548   7.355  0.00  0.00    +0.005 A 
ATOM     28  C   UNL     1       5.912  -2.178   7.330  0.00  0.00    +0.009 A 
BRANCH  26  29
ATOM     29  C   UNL     1       5.167  -5.876   7.238  0.00  0.00    +0.131 C 
BRANCH  29  30
ATOM     30  C   UNL     1       5.407  -6.373   5.836  0.00  0.00    +0.220 C 
ATOM     31  O   UNL     1       5.424  -5.591   4.910  0.00  0.00    -0.275 OA
ATOM     32  N   UNL     1       5.602  -7.688   5.611  0.00  0.00    -0.298 N 
ATOM     33  C   UNL     1       5.573  -8.627   6.734  0.00  0.00    +0.130 C 
ATOM     34  C   UNL     1       4.384  -9.580   6.572  0.00  0.00    +0.185 C 
ATOM     35  S   UNL     1       4.538 -10.445   4.981  0.00  0.00    -0.028 S 
ATOM     36  O   UNL     1       3.322 -11.133   4.722  0.00  0.00    -0.174 OA
ATOM     37  O   UNL     1       5.759 -11.171   4.978  0.00  0.00    -0.174 OA
ATOM     38  C   UNL     1       4.681  -9.064   3.809  0.00  0.00    +0.185 C 
ATOM     39  C   UNL     1       5.834  -8.163   4.246  0.00  0.00    +0.130 C 
ENDBRANCH  29  30
ENDBRANCH  26  29
ENDBRANCH   8  23
TORSDOF 7
