REMARK  Name = CHEMBL218439
REMARK  3 active torsions:
REMARK  status: ('A' for Active; 'I' for Inactive)
REMARK    1  A    between atoms: C_1  and  N_2
REMARK    2  A    between atoms: C_10  and  O_23
REMARK    3  A    between atoms: O_23  and  C_24
REMARK                            x       y       z     vdW  Elec       q    Type
REMARK                         _______ _______ _______ _____ _____    ______ ____
ROOT
ATOM      1  C   UNL     1      -0.327   1.738   0.748  0.00  0.00    +0.105 C 
ATOM      2  N   UNL     1      -0.279   0.284   0.543  0.00  0.00    -0.302 NA
ATOM      3  C   UNL     1      -1.631  -0.286   0.488  0.00  0.00    +0.103 C 
ATOM      4  C   UNL     1      -1.544  -1.764   0.094  0.00  0.00    +0.122 C 
ATOM      5  N   UNL     1      -0.622  -2.440   1.019  0.00  0.00    -0.313 N 
ATOM      6  C   UNL     1       0.708  -1.849   1.231  0.00  0.00    +0.122 C 
ATOM      7  C   UNL     1       0.532  -0.367   1.580  0.00  0.00    +0.103 C 
ATOM      8  C   UNL     1      -0.995  -3.604   1.673  0.00  0.00    +0.130 A 
ATOM      9  C   UNL     1      -2.213  -4.216   1.383  0.00  0.00    +0.111 A 
ATOM     10  C   UNL     1      -2.545  -5.381   2.064  0.00  0.00    +0.227 A 
ATOM     11  N   UNL     1      -1.696  -5.870   2.963  0.00  0.00    -0.176 NA
ATOM     12  C   UNL     1      -0.547  -5.262   3.213  0.00  0.00    +0.241 A 
ATOM     13  N   UNL     1      -0.194  -4.154   2.581  0.00  0.00    -0.197 NA
ATOM     14  N   UNL     1       0.315  -5.805   4.162  0.00  0.00    -0.267 N 
ATOM     15  C   UNL     1       1.477  -5.251   4.611  0.00  0.00    +0.182 A 
ATOM     16  N   UNL     1       2.030  -6.028   5.497  0.00  0.00    -0.345 N 
ATOM     17  C   UNL     1       1.266  -7.130   5.679  0.00  0.00    +0.067 A 
ATOM     18  C   UNL     1       0.149  -7.005   4.829  0.00  0.00    +0.092 A 
ATOM     19  C   UNL     1      -0.805  -8.007   4.822  0.00  0.00    +0.139 A 
ATOM     20  N   UNL     1      -0.667  -9.061   5.603  0.00  0.00    -0.261 NA
ATOM     21  C   UNL     1       0.366  -9.209   6.414  0.00  0.00    +0.113 A 
ATOM     22  C   UNL     1       1.360  -8.272   6.482  0.00  0.00    +0.047 A 
ATOM     23  H   UNL     1       2.864  -5.845   5.958  0.00  0.00    +0.167 HD
ENDROOT
BRANCH  10  24
ATOM     24  O   UNL     1      -3.719  -6.011   1.815  0.00  0.00    -0.436 OA
BRANCH  24  25
ATOM     25  C   UNL     1      -4.389  -6.551   2.867  0.00  0.00    +0.149 A 
ATOM     26  C   UNL     1      -3.932  -6.347   4.161  0.00  0.00    +0.048 A 
ATOM     27  C   UNL     1      -4.614  -6.898   5.228  0.00  0.00    +0.004 A 
ATOM     28  C   UNL     1      -5.752  -7.652   5.009  0.00  0.00    +0.002 A 
ATOM     29  C   UNL     1      -6.210  -7.858   3.721  0.00  0.00    +0.024 A 
ATOM     30  C   UNL     1      -5.535  -7.304   2.649  0.00  0.00    +0.083 A 
ATOM     31 CL   UNL     1      -6.114  -7.556   1.032  0.00  0.00    -0.080 Cl
ENDBRANCH  24  25
ENDBRANCH  10  24
TORSDOF 2
