REMARK  Name = CHEMBL1080955
REMARK  6 active torsions:
REMARK  status: ('A' for Active; 'I' for Inactive)
REMARK    1  A    between atoms: C_1  and  C_2
REMARK    2  A    between atoms: N_6  and  C_7
REMARK    3  A    between atoms: C_7  and  C_8
REMARK    4  A    between atoms: C_11  and  C_14
REMARK    5  A    between atoms: N_20  and  C_21
REMARK    6  A    between atoms: C_24  and  N_27
REMARK                            x       y       z     vdW  Elec       q    Type
REMARK                         _______ _______ _______ _____ _____    ______ ____
ROOT
ATOM      1  C   UNL     1      -5.673   0.097   4.277  0.00  0.00    +0.076 A 
ATOM      2  C   UNL     1      -6.305  -1.029   4.813  0.00  0.00    +0.048 A 
ATOM      3  C   UNL     1      -7.681  -1.008   4.952  0.00  0.00    +0.116 A 
ATOM      4  N   UNL     1      -8.354   0.068   4.577  0.00  0.00    -0.223 NA
ATOM      5  C   UNL     1      -7.729   1.121   4.071  0.00  0.00    +0.220 A 
ATOM      6  N   UNL     1      -6.414   1.146   3.926  0.00  0.00    -0.214 NA
ATOM      7  N   UNL     1      -8.471   2.227   3.691  0.00  0.00    -0.284 N 
ATOM      8  H   UNL     1      -8.038   2.971   3.244  0.00  0.00    +0.155 HD
ENDROOT
BRANCH   1  12
ATOM      9  C   UNL     1      -1.450   0.177   3.792  0.00  0.00    -0.028 A 
ATOM     10  C   UNL     1      -2.207   1.274   3.422  0.00  0.00    +0.006 A 
ATOM     11  C   UNL     1      -3.578   1.254   3.577  0.00  0.00    +0.010 A 
ATOM     12  C   UNL     1      -4.200   0.125   4.107  0.00  0.00    +0.001 A 
ATOM     13  C   UNL     1      -3.433  -0.978   4.478  0.00  0.00    +0.010 A 
ATOM     14  C   UNL     1      -2.063  -0.949   4.314  0.00  0.00    +0.006 A 
BRANCH   9  15
ATOM     15  C   UNL     1       0.047   0.205   3.619  0.00  0.00    +0.158 C 
BRANCH  15  21
ATOM     16  C   UNL     1       0.500  -2.704   2.653  0.00  0.00    +0.086 C 
ATOM     17  C   UNL     1       0.590  -1.456   1.813  0.00  0.00    +0.107 A 
ATOM     18  N   UNL     1       0.869  -1.416   0.539  0.00  0.00    -0.241 NA
ATOM     19  C   UNL     1       0.861  -0.140   0.124  0.00  0.00    +0.130 A 
ATOM     20  C   UNL     1       0.566   0.639   1.182  0.00  0.00    +0.107 A 
ATOM     21  N   UNL     1       0.388  -0.195   2.252  0.00  0.00    -0.330 N 
ENDBRANCH  15  21
ENDBRANCH   9  15
ENDBRANCH   1  12
BRANCH   7  22
ATOM     22  C   UNL     1      -9.847   2.271   3.951  0.00  0.00    +0.034 A 
ATOM     23  C   UNL     1     -10.354   1.694   5.107  0.00  0.00    +0.025 A 
ATOM     24  C   UNL     1     -11.710   1.737   5.364  0.00  0.00    +0.025 A 
ATOM     25  C   UNL     1     -12.567   2.358   4.465  0.00  0.00    +0.030 A 
ATOM     26  C   UNL     1     -12.060   2.936   3.308  0.00  0.00    +0.025 A 
ATOM     27  C   UNL     1     -10.703   2.897   3.054  0.00  0.00    +0.025 A 
BRANCH  25  28
ATOM     28  N   UNL     1     -13.941   2.402   4.724  0.00  0.00    -0.326 N 
ATOM     29  C   UNL     1     -14.876   3.005   3.760  0.00  0.00    +0.133 C 
ATOM     30  C   UNL     1     -16.015   2.012   3.506  0.00  0.00    +0.178 C 
ATOM     31  O   UNL     1     -16.571   1.602   4.757  0.00  0.00    -0.377 OA
ATOM     32  C   UNL     1     -15.653   0.909   5.606  0.00  0.00    +0.178 C 
ATOM     33  C   UNL     1     -14.496   1.841   5.966  0.00  0.00    +0.133 C 
ENDBRANCH  25  28
ENDBRANCH   7  22
TORSDOF 5
