REMARK  Name = CHEMBL569957
REMARK  7 active torsions:
REMARK  status: ('A' for Active; 'I' for Inactive)
REMARK    1  A    between atoms: C_1  and  C_2
REMARK    2  A    between atoms: C_2  and  C_3
REMARK    3  A    between atoms: C_3  and  N_4
REMARK    4  A    between atoms: N_4  and  C_5
REMARK    5  A    between atoms: C_5  and  C_6
REMARK    6  A    between atoms: C_10  and  C_12
REMARK    7  A    between atoms: C_20  and  C_24
REMARK                            x       y       z     vdW  Elec       q    Type
REMARK                         _______ _______ _______ _____ _____    ______ ____
ROOT
ATOM      1  C   UNL     1      -0.046  -4.242   2.349  0.00  0.00    +0.092 C 
ATOM      2  C   UNL     1       1.300  -4.697   2.918  0.00  0.00    +0.016 C 
ATOM      3  C   UNL     1       1.448  -6.209   2.733  0.00  0.00    +0.020 C 
ATOM      4  C   UNL     1       0.332  -6.925   3.499  0.00  0.00    +0.106 C 
ATOM      5  N   UNL     1      -0.963  -6.388   3.060  0.00  0.00    -0.314 N 
ATOM      6  C   UNL     1      -1.179  -4.936   3.110  0.00  0.00    +0.119 C 
ATOM      7  C   UNL     1      -1.962  -7.236   2.605  0.00  0.00    +0.125 A 
ATOM      8  C   UNL     1      -1.837  -8.614   2.750  0.00  0.00    +0.072 A 
ATOM      9  C   UNL     1      -2.872  -9.424   2.276  0.00  0.00    +0.083 A 
ATOM     10  N   UNL     1      -3.934  -8.847   1.705  0.00  0.00    -0.235 NA
ATOM     11  C   UNL     1      -4.010  -7.538   1.589  0.00  0.00    +0.223 A 
ATOM     12  N   UNL     1      -3.057  -6.742   2.029  0.00  0.00    -0.221 NA
ENDROOT
BRANCH   9  13
ATOM     13  C   UNL     1      -2.793 -10.892   2.402  0.00  0.00    +0.086 A 
ATOM     14  C   UNL     1      -3.725 -11.825   1.911  0.00  0.00    +0.150 A 
ATOM     15  N   UNL     1      -3.310 -13.034   2.218  0.00  0.00    -0.150 NA
ATOM     16  N   UNL     1      -2.101 -12.945   2.915  0.00  0.00    -0.219 N 
ATOM     17  C   UNL     1      -1.771 -11.621   3.028  0.00  0.00    +0.167 A 
ATOM     18  N   UNL     1      -0.651 -11.248   3.652  0.00  0.00    -0.235 NA
ATOM     19  C   UNL     1       0.163 -12.142   4.169  0.00  0.00    +0.114 A 
ATOM     20  C   UNL     1      -0.138 -13.506   4.071  0.00  0.00    +0.039 A 
ATOM     21  C   UNL     1      -1.278 -13.894   3.445  0.00  0.00    +0.116 A 
ATOM     22  N   UNL     1      -4.895 -11.518   1.217  0.00  0.00    -0.341 N 
ATOM     23  H   UNL     1      -5.068 -10.605   0.939  0.00  0.00    +0.144 HD
ATOM     24  H   UNL     1      -5.535 -12.218   1.012  0.00  0.00    +0.144 HD
ENDBRANCH   9  13
BRANCH   1  26
ATOM     25  N   UNL     1       0.363  -1.926   1.581  0.00  0.00    -0.293 N 
ATOM     26  C   UNL     1      -0.178  -2.748   2.502  0.00  0.00    +0.220 C 
ATOM     27  O   UNL     1      -0.771  -2.286   3.454  0.00  0.00    -0.275 OA
BRANCH  25  28
ATOM     28  C   UNL     1       1.184  -2.476   0.500  0.00  0.00    +0.108 C 
BRANCH  28  30
ATOM     29  C   UNL     1       3.520  -3.004  -0.211  0.00  0.00    +0.005 C 
ATOM     30  C   UNL     1       2.664  -2.294   0.840  0.00  0.00    +0.016 C 
ENDBRANCH  28  30
ENDBRANCH  25  28
BRANCH  25  31
ATOM     31  C   UNL     1       0.131  -0.482   1.662  0.00  0.00    +0.221 C 
BRANCH  31  32
ATOM     32  C   UNL     1      -1.092  -0.114   0.819  0.00  0.00    +0.405 C 
ATOM     33  F   UNL     1      -2.234  -0.704   1.372  0.00  0.00    -0.169 F 
ATOM     34  F   UNL     1      -1.247   1.276   0.803  0.00  0.00    -0.169 F 
ATOM     35  F   UNL     1      -0.914  -0.579  -0.488  0.00  0.00    -0.169 F 
ENDBRANCH  31  32
ENDBRANCH  25  31
ENDBRANCH   1  26
TORSDOF 6
