REMARK  Name = CHEMBL1092925
REMARK  5 active torsions:
REMARK  status: ('A' for Active; 'I' for Inactive)
REMARK    1  A    between atoms: C_1  and  N_2
REMARK    2  A    between atoms: C_11  and  C_14
REMARK    3  A    between atoms: C_21  and  C_24
REMARK    4  A    between atoms: C_27  and  C_31
REMARK    5  A    between atoms: C_31  and  N_32
REMARK                            x       y       z     vdW  Elec       q    Type
REMARK                         _______ _______ _______ _____ _____    ______ ____
ROOT
ATOM      1  C   UNL     1      -2.274  -6.695   4.309  0.00  0.00    +0.091 A 
ATOM      2  C   UNL     1      -3.508  -7.336   4.091  0.00  0.00    +0.139 A 
ATOM      3  N   UNL     1      -3.907  -8.301   4.885  0.00  0.00    -0.251 NA
ATOM      4  C   UNL     1      -3.136  -8.681   5.913  0.00  0.00    +0.090 A 
ATOM      5  C   UNL     1      -3.543  -9.713   6.776  0.00  0.00    +0.030 A 
ATOM      6  C   UNL     1      -2.748 -10.088   7.816  0.00  0.00    +0.003 A 
ATOM      7  C   UNL     1      -1.526  -9.467   8.048  0.00  0.00    +0.011 A 
ATOM      8  C   UNL     1      -1.086  -8.447   7.224  0.00  0.00    +0.010 A 
ATOM      9  C   UNL     1      -1.894  -8.037   6.134  0.00  0.00    +0.098 A 
ATOM     10  N   UNL     1      -1.498  -7.061   5.316  0.00  0.00    -0.243 NA
ENDROOT
BRANCH   1  21
ATOM     11  C   UNL     1       0.298   1.447   0.163  0.00  0.00    -0.096 C 
ATOM     12  N   UNL     1       0.156  -0.013   0.077  0.00  0.00    +0.380 N 
ATOM     13  C   UNL     1      -1.258  -0.375   0.235  0.00  0.00    -0.060 C 
ATOM     14  C   UNL     1      -1.424  -1.885   0.031  0.00  0.00    +0.088 C 
ATOM     15  N   UNL     1      -0.511  -2.583   0.950  0.00  0.00    -0.319 N 
ATOM     16  C   UNL     1       0.900  -2.167   0.974  0.00  0.00    +0.088 C 
ATOM     17  C   UNL     1       0.955  -0.645   1.134  0.00  0.00    -0.060 C 
ATOM     18  C   UNL     1      -0.969  -3.603   1.772  0.00  0.00    +0.121 A 
ATOM     19  C   UNL     1      -2.246  -4.123   1.575  0.00  0.00    +0.044 A 
ATOM     20  C   UNL     1      -2.694  -5.138   2.396  0.00  0.00    +0.015 A 
ATOM     21  C   UNL     1      -1.840  -5.607   3.402  0.00  0.00    +0.020 A 
ATOM     22  C   UNL     1      -0.576  -5.037   3.537  0.00  0.00    +0.123 A 
ATOM     23  N   UNL     1      -0.183  -4.074   2.729  0.00  0.00    -0.240 NA
ATOM     24  H   UNL     1       0.482  -0.328  -0.824  0.00  0.00    -0.082 HD
ENDBRANCH   1  21
BRANCH   8  25
ATOM     25  C   UNL     1       0.216  -7.789   7.478  0.00  0.00    -0.010 A 
ATOM     26  C   UNL     1       1.135  -7.632   6.440  0.00  0.00    +0.047 A 
ATOM     27  C   UNL     1       2.349  -7.017   6.683  0.00  0.00    +0.131 A 
ATOM     28  C   UNL     1       2.654  -6.558   7.953  0.00  0.00    +0.037 A 
ATOM     29  C   UNL     1       1.745  -6.712   8.987  0.00  0.00    +0.131 A 
ATOM     30  C   UNL     1       0.526  -7.320   8.754  0.00  0.00    +0.047 A 
ATOM     31  F   UNL     1       2.049  -6.263  10.225  0.00  0.00    -0.205 F 
ATOM     32  F   UNL     1       3.240  -6.864   5.678  0.00  0.00    -0.205 F 
BRANCH  28  33
ATOM     33  C   UNL     1       3.979  -5.889   8.212  0.00  0.00    +0.125 C 
BRANCH  33  34
ATOM     34  N   UNL     1       3.850  -4.443   7.987  0.00  0.00    -0.295 NA
ATOM     35  C   UNL     1       3.536  -4.156   6.585  0.00  0.00    +0.107 C 
ATOM     36  C   UNL     1       2.983  -2.733   6.456  0.00  0.00    +0.181 C 
ATOM     37  S   UNL     1       4.266  -1.562   6.994  0.00  0.00    -0.029 S 
ATOM     38  O   UNL     1       3.665  -0.289   7.189  0.00  0.00    -0.174 OA
ATOM     39  O   UNL     1       5.380  -1.677   6.119  0.00  0.00    -0.174 OA
ATOM     40  C   UNL     1       4.727  -2.240   8.618  0.00  0.00    +0.181 C 
ATOM     41  C   UNL     1       5.042  -3.731   8.452  0.00  0.00    +0.107 C 
ENDBRANCH  33  34
ENDBRANCH  28  33
ENDBRANCH   8  25
TORSDOF 4
