REMARK  Name = CHEMBL21156
REMARK  4 active torsions:
REMARK  status: ('A' for Active; 'I' for Inactive)
REMARK    1  A    between atoms: C_1  and  C_2
REMARK    2  A    between atoms: C_2  and  C_3
REMARK    3  A    between atoms: C_2  and  C_4
REMARK    4  A    between atoms: C_2  and  C_5
REMARK                            x       y       z     vdW  Elec       q    Type
REMARK                         _______ _______ _______ _____ _____    ______ ____
ROOT
ATOM      1  C   UNL     1       0.707  -0.490  -1.238  0.00  0.00    +0.114 A 
ATOM      2  N   UNL     1       0.121  -0.997  -2.284  0.00  0.00    -0.231 NA
ATOM      3  C   UNL     1       1.049  -1.326  -3.208  0.00  0.00    +0.098 A 
ATOM      4  C   UNL     1       0.957  -1.919  -4.541  0.00  0.00    +0.017 A 
ATOM      5  C   UNL     1      -0.297  -2.266  -5.101  0.00  0.00    +0.028 A 
ATOM      6  C   UNL     1      -0.349  -2.811  -6.332  0.00  0.00    +0.086 A 
ATOM      7  N   UNL     1       0.781  -3.038  -7.060  0.00  0.00    -0.329 N 
ATOM      8  H   UNL     1       0.705  -3.432  -7.943  0.00  0.00    +0.168 HD
ATOM      9  C   UNL     1       2.001  -2.728  -6.580  0.00  0.00    +0.257 A 
ATOM     10  O   UNL     1       2.997  -2.941  -7.250  0.00  0.00    -0.267 OA
ATOM     11  C   UNL     1       2.120  -2.153  -5.291  0.00  0.00    +0.056 A 
ATOM     12  C   UNL     1       3.429  -1.803  -4.737  0.00  0.00    -0.000 A 
ATOM     13  C   UNL     1       4.601  -2.026  -5.467  0.00  0.00    +0.047 A 
ATOM     14  C   UNL     1       5.819  -1.687  -4.923  0.00  0.00    +0.124 A 
ATOM     15  C   UNL     1       5.894  -1.123  -3.652  0.00  0.00    +0.039 A 
ATOM     16  C   UNL     1       4.766  -0.896  -2.921  0.00  0.00    +0.013 A 
ATOM     17  C   UNL     1       3.511  -1.230  -3.447  0.00  0.00    +0.008 A 
ATOM     18  C   UNL     1       2.293  -0.993  -2.679  0.00  0.00    +0.075 A 
ATOM     19  N   UNL     1       2.052  -0.460  -1.436  0.00  0.00    -0.341 N 
ATOM     20  F   UNL     1       6.951  -1.903  -5.628  0.00  0.00    -0.205 F 
ATOM     21  H   UNL     1       2.718  -0.127  -0.814  0.00  0.00    +0.167 HD
ENDROOT
BRANCH   1  23
ATOM     22  C   UNL     1      -0.019   1.526   0.010  0.00  0.00    +0.018 C 
ATOM     23  C   UNL     1       0.002  -0.004   0.002  0.00  0.00    +0.020 C 
ATOM     24  C   UNL     1       0.742  -0.511   1.242  0.00  0.00    +0.018 C 
ATOM     25  C   UNL     1      -1.433  -0.534   0.013  0.00  0.00    +0.018 C 
ENDBRANCH   1  23
TORSDOF 1
