REMARK  Name = CHEMBL1077841
REMARK  6 active torsions:
REMARK  status: ('A' for Active; 'I' for Inactive)
REMARK    1  A    between atoms: C_3  and  C_26
REMARK    2  A    between atoms: C_6  and  C_7
REMARK    3  A    between atoms: N_13  and  C_14
REMARK    4  A    between atoms: C_17  and  N_20
REMARK    5  A    between atoms: N_28  and  C_29
REMARK    6  A    between atoms: C_29  and  C_30
REMARK                            x       y       z     vdW  Elec       q    Type
REMARK                         _______ _______ _______ _____ _____    ______ ____
ROOT
ATOM      1  C   UNL     1      -1.274  -0.772   0.089  0.00  0.00    +0.076 A 
ATOM      2  C   UNL     1      -1.262  -2.138  -0.208  0.00  0.00    +0.048 A 
ATOM      3  C   UNL     1      -2.471  -2.778  -0.416  0.00  0.00    +0.116 A 
ATOM      4  N   UNL     1      -3.594  -2.085  -0.329  0.00  0.00    -0.223 NA
ATOM      5  C   UNL     1      -3.576  -0.790  -0.045  0.00  0.00    +0.220 A 
ATOM      6  N   UNL     1      -2.443  -0.140   0.166  0.00  0.00    -0.214 NA
ATOM      7  N   UNL     1      -4.775  -0.101   0.037  0.00  0.00    -0.284 N 
ATOM      8  H   UNL     1      -4.774   0.861   0.162  0.00  0.00    +0.155 HD
ENDROOT
BRANCH   1  14
ATOM      9  C   UNL     1      -0.032   1.321   0.622  0.00  0.00    +0.011 A 
ATOM     10  C   UNL     1       1.146   2.002   0.838  0.00  0.00    +0.014 A 
ATOM     11  C   UNL     1       2.367   1.329   0.754  0.00  0.00    +0.037 A 
ATOM     12  C   UNL     1       2.392  -0.035   0.452  0.00  0.00    +0.014 A 
ATOM     13  C   UNL     1       1.213  -0.714   0.237  0.00  0.00    +0.011 A 
ATOM     14  C   UNL     1      -0.006  -0.040   0.321  0.00  0.00    +0.001 A 
BRANCH  11  15
ATOM     15  C   UNL     1       3.631   2.058   0.985  0.00  0.00    +0.245 C 
ATOM     16  O   UNL     1       3.609   3.245   1.247  0.00  0.00    -0.270 OA
ATOM     17  N   UNL     1       4.809   1.408   0.904  0.00  0.00    -0.298 N 
ATOM     18  H   UNL     1       4.827   0.461   0.695  0.00  0.00    +0.150 HD
BRANCH  17  19
ATOM     19  C   UNL     1       6.062   2.131   1.133  0.00  0.00    +0.223 C 
BRANCH  19  20
ATOM     20  C   UNL     1       7.197   1.204   0.989  0.00  0.00    +0.081 C 
ATOM     21  N   UNL     1       8.073   0.489   0.877  0.00  0.00    -0.195 NA
ENDBRANCH  19  20
ENDBRANCH  17  19
ENDBRANCH  11  15
ENDBRANCH   1  14
BRANCH   7  22
ATOM     22  C   UNL     1      -5.989  -0.793  -0.060  0.00  0.00    +0.034 A 
ATOM     23  C   UNL     1      -6.122  -2.047   0.521  0.00  0.00    +0.025 A 
ATOM     24  C   UNL     1      -7.319  -2.730   0.425  0.00  0.00    +0.025 A 
ATOM     25  C   UNL     1      -8.389  -2.162  -0.253  0.00  0.00    +0.030 A 
ATOM     26  C   UNL     1      -8.257  -0.907  -0.834  0.00  0.00    +0.025 A 
ATOM     27  C   UNL     1      -7.061  -0.223  -0.734  0.00  0.00    +0.025 A 
BRANCH  25  28
ATOM     28  N   UNL     1      -9.602  -2.853  -0.350  0.00  0.00    -0.328 N 
ATOM     29  C   UNL     1      -9.777  -4.112   0.376  0.00  0.00    +0.116 C 
ATOM     30  C   UNL     1     -10.851  -3.933   1.456  0.00  0.00    +0.088 C 
ATOM     31  S   UNL     1     -12.389  -3.378   0.660  0.00  0.00    -0.158 S 
ATOM     32  C   UNL     1     -11.861  -1.916  -0.283  0.00  0.00    +0.088 C 
ATOM     33  C   UNL     1     -10.682  -2.306  -1.173  0.00  0.00    +0.116 C 
ENDBRANCH  25  28
ENDBRANCH   7  22
TORSDOF 6
