REMARK  Name = CHEMBL578194
REMARK  7 active torsions:
REMARK  status: ('A' for Active; 'I' for Inactive)
REMARK    1  A    between atoms: C_1  and  C_2
REMARK    2  A    between atoms: C_2  and  C_4
REMARK    3  A    between atoms: C_2  and  N_11
REMARK    4  A    between atoms: C_13  and  C_28
REMARK    5  A    between atoms: C_16  and  N_18
REMARK    6  A    between atoms: N_18  and  C_19
REMARK    7  A    between atoms: C_21  and  C_25
REMARK                            x       y       z     vdW  Elec       q    Type
REMARK                         _______ _______ _______ _____ _____    ______ ____
ROOT
ATOM      1  N   UNL     1       0.690  -0.462  -1.210  0.00  0.00    -0.319 N 
ATOM      2  C   UNL     1       2.069  -0.575  -1.222  0.00  0.00    +0.158 A 
ATOM      3  C   UNL     1       2.732  -1.014  -2.381  0.00  0.00    +0.180 A 
ATOM      4  N   UNL     1       4.060  -1.121  -2.386  0.00  0.00    -0.238 NA
ATOM      5  C   UNL     1       4.749  -0.816  -1.308  0.00  0.00    +0.156 A 
ATOM      6  C   UNL     1       4.094  -0.380  -0.154  0.00  0.00    +0.144 A 
ATOM      7  N   UNL     1       2.772  -0.264  -0.140  0.00  0.00    -0.213 NA
ATOM      8  H   UNL     1       0.178  -0.690  -2.002  0.00  0.00    +0.148 HD
ENDROOT
BRANCH   1  10
ATOM      9  C   UNL     1      -0.018   1.531   0.017  0.00  0.00    +0.034 C 
ATOM     10  C   UNL     1       0.003   0.001  -0.003  0.00  0.00    +0.117 C 
BRANCH  10  11
ATOM     11  C   UNL     1      -1.411  -0.521   0.003  0.00  0.00    +0.061 A 
ATOM     12  C   UNL     1      -2.079  -0.669   1.204  0.00  0.00    +0.028 A 
ATOM     13  C   UNL     1      -3.379  -1.150   1.199  0.00  0.00    +0.042 A 
ATOM     14  C   UNL     1      -3.962  -1.466  -0.021  0.00  0.00    +0.141 A 
ATOM     15  C   UNL     1      -3.229  -1.292  -1.183  0.00  0.00    +0.149 A 
ATOM     16  N   UNL     1      -1.996  -0.826  -1.138  0.00  0.00    -0.255 NA
ATOM     17  F   UNL     1      -5.226  -1.939  -0.073  0.00  0.00    -0.204 F 
ENDBRANCH  10  11
ENDBRANCH   1  10
BRANCH   6  18
ATOM     18  N   UNL     1       4.827  -0.061   0.979  0.00  0.00    -0.283 N 
ATOM     19  H   UNL     1       5.785  -0.215   0.996  0.00  0.00    +0.155 HD
BRANCH  18  20
ATOM     20  C   UNL     1       4.189   0.481   2.092  0.00  0.00    +0.120 A 
ATOM     21  C   UNL     1       4.793   0.935   3.225  0.00  0.00    +0.068 A 
ATOM     22  C   UNL     1       3.795   1.394   4.088  0.00  0.00    +0.068 A 
ATOM     23  N   UNL     1       2.635   1.228   3.505  0.00  0.00    -0.177 NA
ATOM     24  H   UNL     1       2.167   0.431   1.594  0.00  0.00    +0.190 HD
ATOM     25  N   UNL     1       2.851   0.659   2.243  0.00  0.00    -0.264 N 
BRANCH  22  26
ATOM     26  C   UNL     1       4.016   1.982   5.458  0.00  0.00    +0.040 C 
ATOM     27  C   UNL     1       5.377   1.746   6.116  0.00  0.00    +0.010 C 
ATOM     28  C   UNL     1       4.139   1.009   6.632  0.00  0.00    +0.010 C 
ENDBRANCH  22  26
ENDBRANCH  18  20
ENDBRANCH   6  18
BRANCH   3  29
ATOM     29  C   UNL     1       1.981  -1.347  -3.555  0.00  0.00    +0.123 C 
ATOM     30  N   UNL     1       1.385  -1.610  -4.486  0.00  0.00    -0.189 NA
ENDBRANCH   3  29
TORSDOF 6
