REMARK  Name = CHEMBL572878
REMARK  7 active torsions:
REMARK  status: ('A' for Active; 'I' for Inactive)
REMARK    1  A    between atoms: C_1  and  C_2
REMARK    2  A    between atoms: C_11  and  N_28
REMARK    3  A    between atoms: C_13  and  S_15
REMARK    4  A    between atoms: S_15  and  C_16
REMARK    5  A    between atoms: C_19  and  N_22
REMARK    6  A    between atoms: C_23  and  C_25
REMARK    7  A    between atoms: N_31  and  C_34
REMARK                            x       y       z     vdW  Elec       q    Type
REMARK                         _______ _______ _______ _____ _____    ______ ____
ROOT
ATOM      1  C   UNL     1      -0.020  -0.419  -2.729  0.00  0.00    +0.065 C 
ATOM      2  C   UNL     1      -0.007  -0.879  -1.294  0.00  0.00    +0.035 A 
ATOM      3  C   UNL     1       0.008  -2.164  -0.870  0.00  0.00    +0.068 A 
ATOM      4  C   UNL     1       0.017  -2.154   0.534  0.00  0.00    +0.146 A 
ATOM      5  N   UNL     1       0.007  -0.903   0.932  0.00  0.00    -0.158 NA
ATOM      6  H   UNL     1      -0.008   0.886  -0.207  0.00  0.00    +0.189 HD
ATOM      7  N   UNL     1      -0.003  -0.084  -0.204  0.00  0.00    -0.280 N 
ATOM      8  N   UNL     1       0.033  -3.281   1.365  0.00  0.00    -0.283 N 
ATOM      9  C   UNL     1       0.148  -3.129   2.739  0.00  0.00    +0.130 A 
ATOM     10  C   UNL     1       0.126  -1.861   3.312  0.00  0.00    +0.087 A 
ATOM     11  C   UNL     1       0.244  -1.756   4.695  0.00  0.00    +0.127 A 
ATOM     12  N   UNL     1       0.374  -2.865   5.419  0.00  0.00    -0.207 NA
ATOM     13  C   UNL     1       0.391  -4.056   4.840  0.00  0.00    +0.196 A 
ATOM     14  N   UNL     1       0.275  -4.194   3.527  0.00  0.00    -0.206 NA
ATOM     15  H   UNL     1      -0.037  -4.169   0.979  0.00  0.00    +0.155 HD
ENDROOT
BRANCH  11  16
ATOM     16  N   UNL     1       0.228  -0.514   5.309  0.00  0.00    -0.319 N 
ATOM     17  C   UNL     1       0.572  -0.369   6.732  0.00  0.00    +0.088 C 
ATOM     18  C   UNL     1       1.619   0.742   6.868  0.00  0.00    -0.060 C 
ATOM     19  N   UNL     1       1.113   1.969   6.239  0.00  0.00    +0.380 N 
ATOM     20  C   UNL     1       0.946   1.758   4.795  0.00  0.00    -0.060 C 
ATOM     21  C   UNL     1      -0.129   0.698   4.556  0.00  0.00    +0.088 C 
ATOM     22  C   UNL     1       2.068   3.062   6.465  0.00  0.00    -0.096 C 
ATOM     23  H   UNL     1       0.224   2.213   6.647  0.00  0.00    -0.082 HD
ENDBRANCH  11  16
BRANCH  13  24
ATOM     24  S   UNL     1       0.565  -5.496   5.841  0.00  0.00    -0.050 S 
BRANCH  24  25
ATOM     25  C   UNL     1       0.389  -6.830   4.704  0.00  0.00    +0.016 A 
ATOM     26  C   UNL     1       1.516  -7.419   4.145  0.00  0.00    +0.017 A 
ATOM     27  C   UNL     1       1.379  -8.465   3.254  0.00  0.00    +0.024 A 
ATOM     28  C   UNL     1       0.114  -8.927   2.916  0.00  0.00    +0.033 A 
ATOM     29  C   UNL     1      -1.013  -8.338   3.475  0.00  0.00    +0.024 A 
ATOM     30  C   UNL     1      -0.876  -7.297   4.370  0.00  0.00    +0.017 A 
BRANCH  28  31
ATOM     31  N   UNL     1      -0.026  -9.987   2.011  0.00  0.00    -0.285 N 
ATOM     32  C   UNL     1       0.886 -10.980   1.990  0.00  0.00    +0.220 C 
ATOM     33  O   UNL     1       1.770 -11.009   2.820  0.00  0.00    -0.275 OA
ATOM     34  H   UNL     1      -0.779 -10.008   1.400  0.00  0.00    +0.155 HD
BRANCH  32  35
ATOM     35  C   UNL     1       0.807 -12.053   0.935  0.00  0.00    +0.075 C 
ATOM     36  C   UNL     1       0.436 -13.466   1.390  0.00  0.00    +0.013 C 
ATOM     37  C   UNL     1       1.871 -13.152   0.964  0.00  0.00    +0.013 C 
ENDBRANCH  32  35
ENDBRANCH  28  31
ENDBRANCH  24  25
ENDBRANCH  13  24
TORSDOF 5
