REMARK  Name = CHEMBL578974
REMARK  1 active torsions:
REMARK  status: ('A' for Active; 'I' for Inactive)
REMARK    1  A    between atoms: C_4  and  C_7
REMARK                            x       y       z     vdW  Elec       q    Type
REMARK                         _______ _______ _______ _____ _____    ______ ____
ROOT
ATOM      1  C   UNL     1       3.697  -0.687  -0.037  0.00  0.00    +0.083 A 
ATOM      2  C   UNL     1       3.852  -1.907   0.641  0.00  0.00    +0.045 A 
ATOM      3  C   UNL     1       2.987  -2.757   1.453  0.00  0.00    +0.031 A 
ATOM      4  C   UNL     1       3.725  -3.814   1.832  0.00  0.00    +0.085 A 
ATOM      5  N   UNL     1       4.993  -3.703   1.325  0.00  0.00    -0.346 N 
ATOM      6  H   UNL     1       5.706  -4.345   1.463  0.00  0.00    +0.167 HD
ATOM      7  C   UNL     1       5.105  -2.551   0.594  0.00  0.00    +0.142 A 
ATOM      8  N   UNL     1       6.089  -1.978  -0.092  0.00  0.00    -0.218 NA
ATOM      9  C   UNL     1       5.899  -0.833  -0.714  0.00  0.00    +0.224 A 
ATOM     10  N   UNL     1       4.743  -0.197  -0.701  0.00  0.00    -0.235 NA
ENDROOT
BRANCH   1  14
ATOM     11  C   UNL     1      -0.017   1.379   0.010  0.00  0.00    +0.000 A 
ATOM     12  C   UNL     1       1.169   2.093   0.002  0.00  0.00    +0.001 A 
ATOM     13  C   UNL     1       2.377   1.428  -0.013  0.00  0.00    +0.010 A 
ATOM     14  C   UNL     1       2.403   0.033  -0.021  0.00  0.00    +0.001 A 
ATOM     15  C   UNL     1       1.205  -0.680  -0.013  0.00  0.00    +0.010 A 
ATOM     16  C   UNL     1       0.002  -0.004   0.002  0.00  0.00    +0.001 A 
ENDBRANCH   1  14
TORSDOF 1
