REMARK  Name = CHEMBL1078889
REMARK  7 active torsions:
REMARK  status: ('A' for Active; 'I' for Inactive)
REMARK    1  A    between atoms: C_1  and  S_2
REMARK    2  A    between atoms: S_2  and  N_5
REMARK    3  A    between atoms: N_5  and  C_6
REMARK    4  A    between atoms: C_9  and  C_12
REMARK    5  A    between atoms: N_18  and  C_19
REMARK    6  A    between atoms: C_22  and  C_25
REMARK    7  A    between atoms: C_25  and  N_26
REMARK                            x       y       z     vdW  Elec       q    Type
REMARK                         _______ _______ _______ _____ _____    ______ ____
ROOT
ATOM      1  C   UNL     1       0.500  -5.928  -3.029  0.00  0.00    +0.076 A 
ATOM      2  C   UNL     1       0.270  -6.353  -4.342  0.00  0.00    +0.048 A 
ATOM      3  C   UNL     1       0.241  -7.711  -4.599  0.00  0.00    +0.116 A 
ATOM      4  N   UNL     1       0.430  -8.563  -3.603  0.00  0.00    -0.223 NA
ATOM      5  C   UNL     1       0.646  -8.133  -2.369  0.00  0.00    +0.220 A 
ATOM      6  N   UNL     1       0.687  -6.842  -2.079  0.00  0.00    -0.214 NA
ATOM      7  N   UNL     1       0.840  -9.058  -1.356  0.00  0.00    -0.284 N 
ATOM      8  H   UNL     1       0.918  -8.761  -0.436  0.00  0.00    +0.155 HD
ENDROOT
BRANCH   1  12
ATOM      9  C   UNL     1       0.616  -1.782  -2.090  0.00  0.00    +0.074 A 
ATOM     10  C   UNL     1       0.813  -2.727  -1.089  0.00  0.00    +0.027 A 
ATOM     11  C   UNL     1       0.776  -4.071  -1.391  0.00  0.00    +0.012 A 
ATOM     12  C   UNL     1       0.540  -4.484  -2.702  0.00  0.00    +0.001 A 
ATOM     13  C   UNL     1       0.342  -3.534  -3.705  0.00  0.00    +0.012 A 
ATOM     14  C   UNL     1       0.375  -2.192  -3.398  0.00  0.00    +0.027 A 
BRANCH   9  15
ATOM     15  N   UNL     1       0.654  -0.424  -1.783  0.00  0.00    -0.103 NA
BRANCH  15  17
ATOM     16  C   UNL     1       0.902   1.878  -0.293  0.00  0.00    +0.220 C 
ATOM     17  S   UNL     1       0.941   0.065  -0.227  0.00  0.00    +0.059 S 
ATOM     18  O   UNL     1       2.258  -0.386   0.058  0.00  0.00    -0.154 OA
ATOM     19  O   UNL     1      -0.168  -0.421   0.516  0.00  0.00    -0.154 OA
ENDBRANCH  15  17
ENDBRANCH   9  15
ENDBRANCH   1  12
BRANCH   7  20
ATOM     20  C   UNL     1       0.922 -10.421  -1.660  0.00  0.00    +0.034 A 
ATOM     21  C   UNL     1       1.596 -10.840  -2.800  0.00  0.00    +0.023 A 
ATOM     22  C   UNL     1       1.675 -12.187  -3.097  0.00  0.00    +0.003 A 
ATOM     23  C   UNL     1       1.083 -13.117  -2.261  0.00  0.00    -0.064 A 
ATOM     24  C   UNL     1       0.411 -12.702  -1.126  0.00  0.00    +0.003 A 
ATOM     25  C   UNL     1       0.334 -11.358  -0.820  0.00  0.00    +0.023 A 
BRANCH  23  26
ATOM     26  C   UNL     1       1.171 -14.585  -2.590  0.00  0.00    -0.043 C 
BRANCH  26  27
ATOM     27  N   UNL     1       2.373 -15.155  -1.968  0.00  0.00    +0.384 N 
ATOM     28  C   UNL     1       3.559 -14.520  -2.546  0.00  0.00    -0.055 C 
ATOM     29  C   UNL     1       4.789 -14.829  -1.684  0.00  0.00    +0.147 C 
ATOM     30  S   UNL     1       5.070 -16.626  -1.704  0.00  0.00    -0.034 S 
ATOM     31  O   UNL     1       5.973 -16.955  -0.658  0.00  0.00    -0.174 OA
ATOM     32  O   UNL     1       5.375 -17.022  -3.034  0.00  0.00    -0.174 OA
ATOM     33  C   UNL     1       3.421 -17.260  -1.268  0.00  0.00    +0.147 C 
ATOM     34  C   UNL     1       2.389 -16.602  -2.190  0.00  0.00    -0.055 C 
ATOM     35  H   UNL     1       2.351 -14.972  -0.976  0.00  0.00    -0.081 HD
ENDBRANCH  26  27
ENDBRANCH  23  26
ENDBRANCH   7  20
TORSDOF 6
