REMARK  Name = CHEMBL1081484
REMARK  9 active torsions:
REMARK  status: ('A' for Active; 'I' for Inactive)
REMARK    1  A    between atoms: C_1  and  O_2
REMARK    2  A    between atoms: O_2  and  C_3
REMARK    3  A    between atoms: C_5  and  N_13
REMARK    4  A    between atoms: C_7  and  O_11
REMARK    5  A    between atoms: C_8  and  O_9
REMARK    6  A    between atoms: O_9  and  C_10
REMARK    7  A    between atoms: O_11  and  C_12
REMARK    8  A    between atoms: C_20  and  C_23
REMARK    9  A    between atoms: C_26  and  C_30
REMARK                            x       y       z     vdW  Elec       q    Type
REMARK                         _______ _______ _______ _____ _____    ______ ____
ROOT
ATOM      1  N   UNL     1      -4.782   0.170  -0.848  0.00  0.00    -0.269 N 
ATOM      2  C   UNL     1      -5.994  -0.453  -0.646  0.00  0.00    +0.293 A 
ATOM      3  N   UNL     1      -6.157  -1.739  -0.469  0.00  0.00    -0.195 NA
ATOM      4  C   UNL     1      -7.484  -1.992  -0.302  0.00  0.00    +0.112 A 
ATOM      5  C   UNL     1      -8.222  -3.157  -0.081  0.00  0.00    +0.031 A 
ATOM      6  C   UNL     1      -9.593  -3.090   0.051  0.00  0.00    +0.003 A 
ATOM      7  C   UNL     1     -10.249  -1.875  -0.034  0.00  0.00    +0.012 A 
ATOM      8  C   UNL     1      -9.531  -0.702  -0.254  0.00  0.00    +0.027 A 
ATOM      9  C   UNL     1      -8.142  -0.758  -0.389  0.00  0.00    +0.165 A 
ATOM     10  O   UNL     1      -7.184   0.173  -0.597  0.00  0.00    -0.424 OA
ATOM     11  H   UNL     1      -4.733   1.138  -0.875  0.00  0.00    +0.157 HD
ENDROOT
BRANCH   8  12
ATOM     12  C   UNL     1     -10.236   0.598  -0.344  0.00  0.00    -0.012 A 
ATOM     13  C   UNL     1      -9.792   1.686   0.409  0.00  0.00    +0.009 A 
ATOM     14  C   UNL     1     -10.438   2.887   0.330  0.00  0.00    +0.016 A 
ATOM     15  C   UNL     1     -11.549   3.032  -0.506  0.00  0.00    +0.072 A 
ATOM     16  C   UNL     1     -11.999   1.944  -1.264  0.00  0.00    +0.136 A 
ATOM     17  C   UNL     1     -11.339   0.734  -1.186  0.00  0.00    +0.047 A 
ATOM     18  F   UNL     1     -13.072   2.080  -2.073  0.00  0.00    -0.205 F 
BRANCH  15  19
ATOM     19  C   UNL     1     -12.246   4.329  -0.589  0.00  0.00    +0.250 C 
ATOM     20  O   UNL     1     -13.450   4.384  -0.428  0.00  0.00    -0.270 OA
ATOM     21  N   UNL     1     -11.549   5.454  -0.844  0.00  0.00    -0.293 N 
ATOM     22  C   UNL     1     -10.082   5.425  -0.966  0.00  0.00    +0.136 C 
ATOM     23  C   UNL     1      -9.691   6.135  -2.267  0.00  0.00    +0.179 C 
ATOM     24  O   UNL     1     -10.305   7.426  -2.302  0.00  0.00    -0.377 OA
ATOM     25  C   UNL     1     -11.735   7.393  -2.308  0.00  0.00    +0.179 C 
ATOM     26  C   UNL     1     -12.231   6.747  -1.015  0.00  0.00    +0.136 C 
ENDBRANCH  15  19
ENDBRANCH   8  12
BRANCH   1  29
ATOM     27  C   UNL     1      -2.552  -2.624  -1.732  0.00  0.00    +0.167 A 
ATOM     28  C   UNL     1      -3.701  -1.866  -1.567  0.00  0.00    +0.073 A 
ATOM     29  C   UNL     1      -3.621  -0.595  -1.014  0.00  0.00    +0.042 A 
ATOM     30  C   UNL     1      -2.391  -0.082  -0.625  0.00  0.00    +0.073 A 
ATOM     31  C   UNL     1      -1.241  -0.839  -0.789  0.00  0.00    +0.167 A 
ATOM     32  C   UNL     1      -1.321  -2.113  -1.338  0.00  0.00    +0.204 A 
BRANCH  27  34
ATOM     33  C   UNL     1      -3.928  -4.330  -2.655  0.00  0.00    +0.277 C 
ATOM     34  O   UNL     1      -2.630  -3.869  -2.273  0.00  0.00    -0.491 OA
ENDBRANCH  27  34
BRANCH  32  35
ATOM     35  O   UNL     1      -0.192  -2.859  -1.494  0.00  0.00    -0.488 OA
ATOM     36  C   UNL     1       0.511  -2.719  -2.730  0.00  0.00    +0.277 C 
ENDBRANCH  32  35
BRANCH  31  37
ATOM     37  O   UNL     1      -0.036  -0.336  -0.408  0.00  0.00    -0.491 OA
ATOM     38  C   UNL     1      -0.030   0.978   0.154  0.00  0.00    +0.277 C 
ENDBRANCH  31  37
ENDBRANCH   1  29
TORSDOF 6
