REMARK  Name = CHEMBL1082023
REMARK  6 active torsions:
REMARK  status: ('A' for Active; 'I' for Inactive)
REMARK    1  A    between atoms: C_1  and  C_2
REMARK    2  A    between atoms: C_4  and  C_16
REMARK    3  A    between atoms: C_7  and  C_8
REMARK    4  A    between atoms: N_25  and  C_26
REMARK    5  A    between atoms: C_29  and  N_32
REMARK    6  A    between atoms: N_35  and  C_38
REMARK                            x       y       z     vdW  Elec       q    Type
REMARK                         _______ _______ _______ _____ _____    ______ ____
ROOT
ATOM      1  C   UNL     1      -0.569  -2.543  -2.789  0.00  0.00    +0.027 A 
ATOM      2  C   UNL     1      -1.696  -2.454  -3.603  0.00  0.00    +0.012 A 
ATOM      3  C   UNL     1      -1.765  -3.174  -4.782  0.00  0.00    +0.003 A 
ATOM      4  C   UNL     1      -0.721  -3.989  -5.168  0.00  0.00    +0.031 A 
ATOM      5  C   UNL     1       0.417  -4.092  -4.366  0.00  0.00    +0.112 A 
ATOM      6  C   UNL     1       0.496  -3.361  -3.173  0.00  0.00    +0.165 A 
ATOM      7  O   UNL     1       1.697  -3.652  -2.624  0.00  0.00    -0.424 OA
ATOM      8  C   UNL     1       2.332  -4.514  -3.438  0.00  0.00    +0.293 A 
ATOM      9  N   UNL     1       1.580  -4.792  -4.472  0.00  0.00    -0.195 NA
ATOM     10  N   UNL     1       3.585  -5.039  -3.209  0.00  0.00    -0.269 N 
ATOM     11  H   UNL     1       4.091  -4.764  -2.428  0.00  0.00    +0.157 HD
ENDROOT
BRANCH   1  15
ATOM     12  C   UNL     1      -1.041   1.786  -0.357  0.00  0.00    +0.044 C 
ATOM     13  C   UNL     1      -0.725   0.313  -0.356  0.00  0.00    -0.038 A 
ATOM     14  C   UNL     1      -0.791  -0.406  -1.528  0.00  0.00    +0.012 A 
ATOM     15  C   UNL     1      -0.498  -1.770  -1.527  0.00  0.00    -0.014 A 
ATOM     16  C   UNL     1      -0.138  -2.407  -0.338  0.00  0.00    +0.009 A 
ATOM     17  C   UNL     1      -0.072  -1.690   0.834  0.00  0.00    +0.014 A 
ATOM     18  C   UNL     1      -0.360  -0.323   0.834  0.00  0.00    +0.040 A 
BRANCH  18  19
ATOM     19  C   UNL     1      -0.283   0.449   2.091  0.00  0.00    +0.247 C 
ATOM     20  O   UNL     1      -1.206   1.169   2.419  0.00  0.00    -0.270 OA
ATOM     21  N   UNL     1       0.810   0.355   2.873  0.00  0.00    -0.293 N 
ATOM     22  C   UNL     1       1.992  -0.405   2.436  0.00  0.00    +0.136 C 
ATOM     23  C   UNL     1       3.229   0.483   2.607  0.00  0.00    +0.179 C 
ATOM     24  O   UNL     1       3.261   0.994   3.942  0.00  0.00    -0.377 OA
ATOM     25  C   UNL     1       2.150   1.831   4.275  0.00  0.00    +0.179 C 
ATOM     26  C   UNL     1       0.860   1.016   4.187  0.00  0.00    +0.136 C 
ENDBRANCH  18  19
ENDBRANCH   1  15
BRANCH  10  27
ATOM     27  C   UNL     1       4.130  -5.968  -4.104  0.00  0.00    +0.035 A 
ATOM     28  C   UNL     1       3.799  -5.911  -5.452  0.00  0.00    +0.025 A 
ATOM     29  C   UNL     1       4.335  -6.827  -6.334  0.00  0.00    +0.025 A 
ATOM     30  C   UNL     1       5.207  -7.806  -5.875  0.00  0.00    +0.030 A 
ATOM     31  C   UNL     1       5.538  -7.863  -4.527  0.00  0.00    +0.025 A 
ATOM     32  C   UNL     1       5.005  -6.944  -3.646  0.00  0.00    +0.025 A 
BRANCH  30  33
ATOM     33  N   UNL     1       5.750  -8.735  -6.769  0.00  0.00    -0.333 N 
ATOM     34  C   UNL     1       6.564  -9.861  -6.288  0.00  0.00    +0.086 C 
ATOM     35  C   UNL     1       6.022 -11.153  -6.909  0.00  0.00    -0.060 C 
ATOM     36  N   UNL     1       5.984 -11.014  -8.370  0.00  0.00    +0.380 N 
ATOM     37  C   UNL     1       5.030  -9.963  -8.748  0.00  0.00    -0.060 C 
ATOM     38  C   UNL     1       5.518  -8.616  -8.217  0.00  0.00    +0.086 C 
ATOM     39  C   UNL     1       5.568 -12.288  -8.971  0.00  0.00    -0.096 C 
ATOM     40  H   UNL     1       6.902 -10.769  -8.708  0.00  0.00    -0.082 HD
ENDBRANCH  30  33
ENDBRANCH  10  27
TORSDOF 4
