REMARK  Name = CHEMBL1079594
REMARK  2 active torsions:
REMARK  status: ('A' for Active; 'I' for Inactive)
REMARK    1  A    between atoms: C_11  and  N_13
REMARK    2  A    between atoms: C_26  and  C_29
REMARK                            x       y       z     vdW  Elec       q    Type
REMARK                         _______ _______ _______ _____ _____    ______ ____
ROOT
ATOM      1  N   UNL     1       3.510   3.360  -0.931  0.00  0.00    -0.269 N 
ATOM      2  C   UNL     1       3.615   4.694  -0.583  0.00  0.00    +0.167 A 
ATOM      3  C   UNL     1       3.409   5.436  -1.754  0.00  0.00    +0.105 A 
ATOM      4  C   UNL     1       3.460   6.817  -1.683  0.00  0.00    +0.144 A 
ATOM      5  N   UNL     1       3.704   7.388  -0.512  0.00  0.00    -0.218 NA
ATOM      6  C   UNL     1       3.895   6.660   0.576  0.00  0.00    +0.238 A 
ATOM      7  N   UNL     1       3.854   5.337   0.552  0.00  0.00    -0.192 NA
ATOM      8  N   UNL     1       4.148   7.305   1.786  0.00  0.00    -0.267 N 
ATOM      9  C   UNL     1       4.372   6.708   2.990  0.00  0.00    +0.207 A 
ATOM     10  N   UNL     1       4.573   7.610   3.906  0.00  0.00    -0.235 NA
ATOM     11  C   UNL     1       4.493   8.848   3.357  0.00  0.00    +0.089 A 
ATOM     12  C   UNL     1       4.225   8.673   1.987  0.00  0.00    +0.077 A 
ATOM     13  C   UNL     1       4.095   9.774   1.161  0.00  0.00    +0.047 A 
ATOM     14  C   UNL     1       4.233  11.056   1.694  0.00  0.00    +0.054 A 
ATOM     15  C   UNL     1       4.504  11.223   3.059  0.00  0.00    +0.021 A 
ATOM     16  C   UNL     1       4.625  10.140   3.878  0.00  0.00    +0.031 A 
ATOM     17  N   UNL     1       3.184   4.519  -2.776  0.00  0.00    -0.303 N 
ATOM     18  H   UNL     1       3.009   4.734  -3.706  0.00  0.00    +0.171 HD
ATOM     19  C   UNL     1       3.257   3.280  -2.252  0.00  0.00    +0.329 A 
ATOM     20  O   UNL     1       3.114   2.245  -2.876  0.00  0.00    -0.246 OA
ENDROOT
BRANCH   1  31
ATOM     21  C   UNL     1      -0.017   1.378   0.010  0.00  0.00    +0.003 A 
ATOM     22  C   UNL     1       1.170   2.085   0.002  0.00  0.00    +0.009 A 
ATOM     23  C   UNL     1       2.383   1.416  -0.015  0.00  0.00    +0.020 A 
ATOM     24  C   UNL     1       2.407   0.034  -0.026  0.00  0.00    +0.161 A 
ATOM     25  C   UNL     1       1.209  -0.677  -0.015  0.00  0.00    +0.165 A 
ATOM     26  C   UNL     1       0.002  -0.004   0.002  0.00  0.00    +0.042 A 
ATOM     27  F   UNL     1       1.227  -2.028  -0.022  0.00  0.00    -0.202 F 
ATOM     28  O   UNL     1       3.574  -0.663  -0.054  0.00  0.00    -0.489 OA
ATOM     29  C   UNL     1       4.772   0.028   0.303  0.00  0.00    +0.231 C 
ATOM     30  C   UNL     1       4.822   1.346  -0.480  0.00  0.00    +0.071 C 
ATOM     31  C   UNL     1       3.656   2.224  -0.018  0.00  0.00    +0.130 C 
ENDBRANCH   1  31
BRANCH  14  32
ATOM     32  C   UNL     1       4.100  12.202   0.847  0.00  0.00    +0.099 C 
ATOM     33  N   UNL     1       3.994  13.111   0.174  0.00  0.00    -0.191 NA
ENDBRANCH  14  32
TORSDOF 2
