REMARK  Name = CHEMBL221912
REMARK  6 active torsions:
REMARK  status: ('A' for Active; 'I' for Inactive)
REMARK    1  A    between atoms: C_1  and  C_2
REMARK    2  A    between atoms: C_2  and  C_4
REMARK    3  A    between atoms: C_2  and  N_7
REMARK    4  A    between atoms: C_4  and  O_5
REMARK    5  A    between atoms: O_5  and  C_6
REMARK    6  A    between atoms: C_20  and  C_23
REMARK                            x       y       z     vdW  Elec       q    Type
REMARK                         _______ _______ _______ _____ _____    ______ ____
ROOT
ATOM      1  N   UNL     1      -1.372  -0.511   0.012  0.00  0.00    -0.324 N 
ATOM      2  C   UNL     1      -2.070  -0.646  -1.177  0.00  0.00    +0.124 A 
ATOM      3  C   UNL     1      -1.471  -0.308  -2.393  0.00  0.00    +0.063 A 
ATOM      4  C   UNL     1      -2.204  -0.459  -3.553  0.00  0.00    +0.118 A 
ATOM      5  N   UNL     1      -3.446  -0.917  -3.479  0.00  0.00    -0.220 NA
ATOM      6  C   UNL     1      -3.988  -1.230  -2.313  0.00  0.00    +0.238 A 
ATOM      7  N   UNL     1      -3.317  -1.105  -1.179  0.00  0.00    -0.197 NA
ATOM      8  N   UNL     1      -5.295  -1.709  -2.279  0.00  0.00    -0.267 N 
ATOM      9  C   UNL     1      -5.997  -2.068  -1.167  0.00  0.00    +0.207 A 
ATOM     10  N   UNL     1      -7.189  -2.470  -1.501  0.00  0.00    -0.235 NA
ATOM     11  C   UNL     1      -7.338  -2.397  -2.847  0.00  0.00    +0.089 A 
ATOM     12  C   UNL     1      -6.128  -1.903  -3.368  0.00  0.00    +0.077 A 
ATOM     13  C   UNL     1      -5.986  -1.717  -4.731  0.00  0.00    +0.047 A 
ATOM     14  C   UNL     1      -7.050  -2.018  -5.582  0.00  0.00    +0.054 A 
ATOM     15  C   UNL     1      -8.253  -2.508  -5.056  0.00  0.00    +0.021 A 
ATOM     16  C   UNL     1      -8.394  -2.700  -3.714  0.00  0.00    +0.031 A 
ATOM     17  H   UNL     1      -1.794  -0.752   0.852  0.00  0.00    +0.148 HD
ENDROOT
BRANCH   1  19
ATOM     18  C   UNL     1      -0.019   1.526   0.010  0.00  0.00    +0.030 C 
ATOM     19  C   UNL     1       0.002  -0.004   0.002  0.00  0.00    +0.094 C 
BRANCH  19  20
ATOM     20  C   UNL     1       0.742  -0.511   1.242  0.00  0.00    +0.181 C 
BRANCH  20  21
ATOM     21  O   UNL     1       0.143   0.044   2.414  0.00  0.00    -0.381 OA
ATOM     22  C   UNL     1       0.763  -0.368   3.634  0.00  0.00    +0.194 C 
ENDBRANCH  20  21
ENDBRANCH  19  20
ENDBRANCH   1  19
BRANCH  14  23
ATOM     23  C   UNL     1      -6.912  -1.828  -6.994  0.00  0.00    +0.099 C 
ATOM     24  N   UNL     1      -6.803  -1.677  -8.115  0.00  0.00    -0.191 NA
ENDBRANCH  14  23
TORSDOF 4
