REMARK  Name = CHEMBL569739
REMARK  5 active torsions:
REMARK  status: ('A' for Active; 'I' for Inactive)
REMARK    1  A    between atoms: C_1  and  C_2
REMARK    2  A    between atoms: C_2  and  N_3
REMARK    3  A    between atoms: N_3  and  C_4
REMARK    4  A    between atoms: C_4  and  C_5
REMARK    5  A    between atoms: C_13  and  C_17
REMARK                            x       y       z     vdW  Elec       q    Type
REMARK                         _______ _______ _______ _____ _____    ______ ____
ROOT
ATOM      1  N   UNL     1       0.693  -0.455  -1.210  0.00  0.00    -0.311 N 
ATOM      2  C   UNL     1      -0.030  -0.698  -2.368  0.00  0.00    +0.125 A 
ATOM      3  C   UNL     1      -1.384  -0.386  -2.433  0.00  0.00    +0.072 A 
ATOM      4  C   UNL     1      -2.067  -0.650  -3.623  0.00  0.00    +0.083 A 
ATOM      5  N   UNL     1      -1.397  -1.189  -4.646  0.00  0.00    -0.235 NA
ATOM      6  C   UNL     1      -0.115  -1.468  -4.541  0.00  0.00    +0.223 A 
ATOM      7  N   UNL     1       0.564  -1.228  -3.436  0.00  0.00    -0.221 NA
ENDROOT
BRANCH   4   8
ATOM      8  C   UNL     1      -3.504  -0.340  -3.748  0.00  0.00    +0.086 A 
ATOM      9  C   UNL     1      -4.288  -0.460  -4.911  0.00  0.00    +0.150 A 
ATOM     10  N   UNL     1      -5.518  -0.093  -4.628  0.00  0.00    -0.150 NA
ATOM     11  N   UNL     1      -5.591   0.280  -3.281  0.00  0.00    -0.219 N 
ATOM     12  C   UNL     1      -4.349   0.124  -2.728  0.00  0.00    +0.167 A 
ATOM     13  N   UNL     1      -4.135   0.407  -1.440  0.00  0.00    -0.235 NA
ATOM     14  C   UNL     1      -5.111   0.838  -0.673  0.00  0.00    +0.114 A 
ATOM     15  C   UNL     1      -6.397   1.007  -1.201  0.00  0.00    +0.039 A 
ATOM     16  C   UNL     1      -6.622   0.729  -2.510  0.00  0.00    +0.116 A 
ATOM     17  N   UNL     1      -3.835  -0.895  -6.155  0.00  0.00    -0.341 N 
ATOM     18  H   UNL     1      -2.925  -1.216  -6.255  0.00  0.00    +0.144 HD
ATOM     19  H   UNL     1      -4.430  -0.877  -6.921  0.00  0.00    +0.144 HD
ENDBRANCH   4   8
BRANCH   1  21
ATOM     20  C   UNL     1      -0.013   1.555  -0.009  0.00  0.00    +0.024 C 
ATOM     21  C   UNL     1       0.009   0.025  -0.007  0.00  0.00    +0.103 C 
ENDBRANCH   1  21
BRANCH   1  22
ATOM     22  C   UNL     1       2.140  -0.679  -1.190  0.00  0.00    +0.141 C 
BRANCH  22  23
ATOM     23  C   UNL     1       2.424  -2.098  -0.769  0.00  0.00    -0.027 A 
ATOM     24  C   UNL     1       2.589  -2.421   0.569  0.00  0.00    +0.025 A 
ATOM     25  C   UNL     1       2.848  -3.733   0.918  0.00  0.00    +0.111 A 
ATOM     26  N   UNL     1       2.938  -4.671  -0.004  0.00  0.00    -0.263 NA
ATOM     27  C   UNL     1       2.787  -4.400  -1.286  0.00  0.00    +0.111 A 
ATOM     28  C   UNL     1       2.520  -3.112  -1.709  0.00  0.00    +0.025 A 
ENDBRANCH  22  23
ENDBRANCH   1  22
TORSDOF 4
