REMARK  Name = CHEMBL482189
REMARK  7 active torsions:
REMARK  status: ('A' for Active; 'I' for Inactive)
REMARK    1  A    between atoms: C_1  and  C_2
REMARK    2  A    between atoms: C_2  and  C_3
REMARK    3  A    between atoms: C_2  and  C_4
REMARK    4  A    between atoms: C_2  and  N_5
REMARK    5  A    between atoms: N_5  and  S_6
REMARK    6  A    between atoms: S_6  and  C_9
REMARK    7  A    between atoms: C_12  and  C_16
REMARK                            x       y       z     vdW  Elec       q    Type
REMARK                         _______ _______ _______ _____ _____    ______ ____
ROOT
ATOM      1  C   UNL     1       2.943  -0.208  -0.015  0.00  0.00    +0.107 A 
ATOM      2  C   UNL     1       2.885   0.506   1.169  0.00  0.00    +0.029 A 
ATOM      3  C   UNL     1       3.674   0.138   2.240  0.00  0.00    +0.012 A 
ATOM      4  C   UNL     1       4.530  -0.955   2.128  0.00  0.00    +0.001 A 
ATOM      5  C   UNL     1       4.585  -1.672   0.933  0.00  0.00    +0.051 A 
ATOM      6  C   UNL     1       3.787  -1.297  -0.130  0.00  0.00    +0.049 A 
ATOM      7 CL   UNL     1       5.649  -3.036   0.785  0.00  0.00    -0.083 Cl
ENDROOT
BRANCH   4   8
ATOM      8  C   UNL     1       5.381  -1.355   3.276  0.00  0.00    -0.016 A 
ATOM      9  C   UNL     1       6.158  -0.396   3.937  0.00  0.00    +0.010 A 
ATOM     10  C   UNL     1       6.945  -0.746   4.994  0.00  0.00    +0.028 A 
ATOM     11  C   UNL     1       6.985  -2.070   5.429  0.00  0.00    +0.068 A 
ATOM     12  C   UNL     1       6.207  -3.044   4.773  0.00  0.00    +0.041 A 
ATOM     13  C   UNL     1       5.399  -2.677   3.695  0.00  0.00    +0.022 A 
ATOM     14  C   UNL     1       6.469  -4.310   5.460  0.00  0.00    +0.146 A 
ATOM     15  N   UNL     1       7.321  -4.070   6.421  0.00  0.00    -0.158 NA
ATOM     16  N   UNL     1       7.659  -2.713   6.434  0.00  0.00    -0.275 N 
ATOM     17  H   UNL     1       8.274  -2.293   7.056  0.00  0.00    +0.189 HD
ATOM     18  N   UNL     1       5.909  -5.551   5.145  0.00  0.00    -0.341 N 
ATOM     19  H   UNL     1       5.282  -5.627   4.409  0.00  0.00    +0.144 HD
ATOM     20  H   UNL     1       6.147  -6.336   5.663  0.00  0.00    +0.144 HD
ENDBRANCH   4   8
BRANCH   1  21
ATOM     21  S   UNL     1       1.933   0.269  -1.377  0.00  0.00    +0.059 S 
ATOM     22  O   UNL     1       2.438  -0.415  -2.516  0.00  0.00    -0.153 OA
ATOM     23  O   UNL     1       1.822   1.685  -1.325  0.00  0.00    -0.153 OA
BRANCH  21  24
ATOM     24  N   UNL     1       0.417  -0.335  -1.097  0.00  0.00    -0.185 NA
ATOM     25  H   UNL     1      -0.319   0.269  -0.911  0.00  0.00    +0.149 HD
BRANCH  24  27
ATOM     26  C   UNL     1       1.202  -2.481  -0.226  0.00  0.00    +0.029 C 
ATOM     27  C   UNL     1       0.186  -1.781  -1.131  0.00  0.00    +0.032 C 
ATOM     28  C   UNL     1       0.346  -2.290  -2.565  0.00  0.00    +0.029 C 
ATOM     29  C   UNL     1      -1.230  -2.084  -0.638  0.00  0.00    +0.029 C 
ENDBRANCH  24  27
ENDBRANCH  21  24
ENDBRANCH   1  21
TORSDOF 4
