REMARK  Name = CHEMBL1078866
REMARK  8 active torsions:
REMARK  status: ('A' for Active; 'I' for Inactive)
REMARK    1  A    between atoms: C_1  and  N_2
REMARK    2  A    between atoms: N_5  and  C_8
REMARK    3  A    between atoms: C_8  and  C_9
REMARK    4  A    between atoms: C_13  and  N_15
REMARK    5  A    between atoms: C_20  and  C_22
REMARK    6  A    between atoms: C_25  and  N_28
REMARK    7  A    between atoms: N_28  and  S_29
REMARK    8  A    between atoms: S_29  and  C_32
REMARK                            x       y       z     vdW  Elec       q    Type
REMARK                         _______ _______ _______ _____ _____    ______ ____
ROOT
ATOM      1  N   UNL     1      -1.327  -5.319   5.883  0.00  0.00    -0.284 N 
ATOM      2  C   UNL     1      -2.663  -5.604   5.650  0.00  0.00    +0.220 A 
ATOM      3  N   UNL     1      -3.077  -5.782   4.404  0.00  0.00    -0.223 NA
ATOM      4  C   UNL     1      -4.345  -6.057   4.139  0.00  0.00    +0.116 A 
ATOM      5  C   UNL     1      -5.247  -6.158   5.183  0.00  0.00    +0.048 A 
ATOM      6  C   UNL     1      -4.781  -5.965   6.487  0.00  0.00    +0.076 A 
ATOM      7  N   UNL     1      -3.491  -5.697   6.678  0.00  0.00    -0.214 NA
ATOM      8  H   UNL     1      -0.993  -5.269   6.793  0.00  0.00    +0.155 HD
ENDROOT
BRANCH   1  13
ATOM      9  C   UNL     1      -0.069  -4.283   2.588  0.00  0.00    -0.032 A 
ATOM     10  C   UNL     1       1.255  -4.673   2.679  0.00  0.00    +0.005 A 
ATOM     11  C   UNL     1       1.723  -5.277   3.831  0.00  0.00    +0.002 A 
ATOM     12  C   UNL     1       0.869  -5.493   4.896  0.00  0.00    +0.023 A 
ATOM     13  C   UNL     1      -0.461  -5.102   4.808  0.00  0.00    +0.034 A 
ATOM     14  C   UNL     1      -0.926  -4.491   3.650  0.00  0.00    +0.028 A 
BRANCH   9  15
ATOM     15  C   UNL     1      -0.575  -3.626   1.330  0.00  0.00    +0.119 C 
BRANCH  15  20
ATOM     16  C   UNL     1       0.630   1.839   0.671  0.00  0.00    -0.096 C 
ATOM     17  N   UNL     1       0.484   0.385   0.518  0.00  0.00    +0.379 N 
ATOM     18  C   UNL     1      -0.942   0.034   0.517  0.00  0.00    -0.064 C 
ATOM     19  C   UNL     1      -1.095  -1.478   0.339  0.00  0.00    +0.066 C 
ATOM     20  N   UNL     1      -0.403  -2.171   1.435  0.00  0.00    -0.302 NA
ATOM     21  C   UNL     1       1.022  -1.809   1.463  0.00  0.00    +0.066 C 
ATOM     22  C   UNL     1       1.157  -0.295   1.633  0.00  0.00    -0.064 C 
ATOM     23  H   UNL     1       0.902   0.096  -0.354  0.00  0.00    -0.082 HD
ENDBRANCH  15  20
ENDBRANCH   9  15
ENDBRANCH   1  13
BRANCH   6  24
ATOM     24  C   UNL     1      -5.708  -6.064   7.638  0.00  0.00    +0.001 A 
ATOM     25  C   UNL     1      -7.056  -6.356   7.428  0.00  0.00    +0.012 A 
ATOM     26  C   UNL     1      -7.916  -6.447   8.500  0.00  0.00    +0.027 A 
ATOM     27  C   UNL     1      -7.441  -6.248   9.793  0.00  0.00    +0.074 A 
ATOM     28  C   UNL     1      -6.098  -5.956  10.005  0.00  0.00    +0.027 A 
ATOM     29  C   UNL     1      -5.233  -5.870   8.936  0.00  0.00    +0.012 A 
BRANCH  27  30
ATOM     30  N   UNL     1      -8.313  -6.340  10.876  0.00  0.00    -0.103 NA
BRANCH  30  31
ATOM     31  S   UNL     1      -7.749  -6.103  12.415  0.00  0.00    +0.059 S 
ATOM     32  O   UNL     1      -6.825  -7.161  12.630  0.00  0.00    -0.154 OA
ATOM     33  O   UNL     1      -7.319  -4.749  12.438  0.00  0.00    -0.154 OA
ATOM     34  C   UNL     1      -9.201  -6.315  13.481  0.00  0.00    +0.220 C 
ENDBRANCH  30  31
ENDBRANCH  27  30
ENDBRANCH   6  24
TORSDOF 6
