REMARK  Name = CHEMBL375076
REMARK  4 active torsions:
REMARK  status: ('A' for Active; 'I' for Inactive)
REMARK    1  A    between atoms: C_1  and  C_2
REMARK    2  A    between atoms: C_2  and  C_4
REMARK    3  A    between atoms: C_2  and  N_10
REMARK    4  A    between atoms: C_15  and  N_17
REMARK                            x       y       z     vdW  Elec       q    Type
REMARK                         _______ _______ _______ _____ _____    ______ ____
ROOT
ATOM      1  N   UNL     1      -1.372  -0.511   0.012  0.00  0.00    -0.307 N 
ATOM      2  C   UNL     1      -2.046  -0.659   1.212  0.00  0.00    +0.217 A 
ATOM      3  N   UNL     1      -1.435  -0.332   2.341  0.00  0.00    -0.223 NA
ATOM      4  C   UNL     1      -2.048  -0.460   3.508  0.00  0.00    +0.118 A 
ATOM      5  C   UNL     1      -3.344  -0.941   3.542  0.00  0.00    +0.066 A 
ATOM      6  C   UNL     1      -3.960  -1.277   2.337  0.00  0.00    +0.144 A 
ATOM      7  N   UNL     1      -3.288  -1.119   1.203  0.00  0.00    -0.197 NA
ATOM      8  H   UNL     1      -1.810  -0.743  -0.822  0.00  0.00    +0.149 HD
ENDROOT
BRANCH   6   9
ATOM      9  N   UNL     1      -5.265  -1.766   2.324  0.00  0.00    -0.283 N 
ATOM     10  C   UNL     1      -6.066  -1.964   3.409  0.00  0.00    +0.181 A 
ATOM     11  N   UNL     1      -7.222  -2.431   3.033  0.00  0.00    -0.345 N 
ATOM     12  C   UNL     1      -7.244  -2.565   1.686  0.00  0.00    +0.067 A 
ATOM     13  C   UNL     1      -5.991  -2.135   1.207  0.00  0.00    +0.091 A 
ATOM     14  C   UNL     1      -5.747  -2.163  -0.156  0.00  0.00    +0.139 A 
ATOM     15  N   UNL     1      -6.679  -2.584  -0.988  0.00  0.00    -0.261 NA
ATOM     16  C   UNL     1      -7.866  -2.991  -0.572  0.00  0.00    +0.113 A 
ATOM     17  C   UNL     1      -8.191  -3.005   0.755  0.00  0.00    +0.047 A 
ATOM     18  H   UNL     1      -7.956  -2.651   3.628  0.00  0.00    +0.167 HD
ENDBRANCH   6   9
BRANCH   1  20
ATOM     19  C   UNL     1      -0.019   1.526   0.010  0.00  0.00    +0.033 C 
ATOM     20  C   UNL     1       0.002  -0.004   0.002  0.00  0.00    +0.100 C 
BRANCH  20  21
ATOM     21  C   UNL     1       0.707  -0.490  -1.238  0.00  0.00    -0.027 A 
ATOM     22  C   UNL     1       0.038  -0.522  -2.447  0.00  0.00    +0.005 A 
ATOM     23  C   UNL     1       0.685  -0.967  -3.584  0.00  0.00    +0.000 A 
ATOM     24  C   UNL     1       2.002  -1.381  -3.513  0.00  0.00    +0.000 A 
ATOM     25  C   UNL     1       2.672  -1.349  -2.304  0.00  0.00    +0.000 A 
ATOM     26  C   UNL     1       2.026  -0.899  -1.167  0.00  0.00    +0.005 A 
ENDBRANCH  20  21
ENDBRANCH   1  20
TORSDOF 3
