REMARK  Name = CHEMBL393375
REMARK  7 active torsions:
REMARK  status: ('A' for Active; 'I' for Inactive)
REMARK    1  A    between atoms: C_1  and  N_2
REMARK    2  A    between atoms: C_3  and  C_30
REMARK    3  A    between atoms: C_10  and  N_11
REMARK    4  A    between atoms: N_11  and  C_12
REMARK    5  A    between atoms: C_14  and  O_19
REMARK    6  A    between atoms: O_19  and  C_20
REMARK    7  A    between atoms: N_35  and  C_38
REMARK                            x       y       z     vdW  Elec       q    Type
REMARK                         _______ _______ _______ _____ _____    ______ ____
ROOT
ATOM      1  C   UNL     1       1.210   2.008   0.192  0.00  0.00    +0.151 C 
ATOM      2  N   UNL     1       1.054   0.557   0.056  0.00  0.00    -0.324 N 
ATOM      3  C   UNL     1       0.628  -0.104  -1.085  0.00  0.00    +0.107 A 
ATOM      4  C   UNL     1       0.606  -1.443  -0.839  0.00  0.00    +0.046 A 
ATOM      5  C   UNL     1       1.028  -1.638   0.492  0.00  0.00    +0.060 A 
ATOM      6  C   UNL     1       1.309  -0.365   1.031  0.00  0.00    +0.148 A 
ATOM      7  N   UNL     1       1.735  -0.283   2.289  0.00  0.00    -0.194 NA
ATOM      8  C   UNL     1       1.896  -1.372   3.021  0.00  0.00    +0.240 A 
ATOM      9  N   UNL     1       1.647  -2.588   2.554  0.00  0.00    -0.196 NA
ATOM     10  C   UNL     1       1.209  -2.770   1.313  0.00  0.00    +0.138 A 
ATOM     11  N   UNL     1       2.344  -1.238   4.331  0.00  0.00    -0.267 N 
ATOM     12  C   UNL     1       2.223  -0.131   5.118  0.00  0.00    +0.182 A 
ATOM     13  N   UNL     1       2.752  -0.353   6.287  0.00  0.00    -0.345 N 
ATOM     14  C   UNL     1       3.248  -1.611   6.332  0.00  0.00    +0.067 A 
ATOM     15  C   UNL     1       2.990  -2.204   5.080  0.00  0.00    +0.092 A 
ATOM     16  C   UNL     1       3.393  -3.509   4.858  0.00  0.00    +0.139 A 
ATOM     17  N   UNL     1       4.007  -4.185   5.810  0.00  0.00    -0.261 NA
ATOM     18  C   UNL     1       4.262  -3.661   6.997  0.00  0.00    +0.113 A 
ATOM     19  C   UNL     1       3.908  -2.376   7.300  0.00  0.00    +0.047 A 
ATOM     20  H   UNL     1       2.786   0.287   7.015  0.00  0.00    +0.167 HD
ENDROOT
BRANCH   3  21
ATOM     21  C   UNL     1       0.262   0.535  -2.354  0.00  0.00    +0.263 C 
ATOM     22  O   UNL     1       0.744   1.611  -2.655  0.00  0.00    -0.268 OA
ATOM     23  N   UNL     1      -0.610  -0.069  -3.186  0.00  0.00    -0.300 N 
ATOM     24  C   UNL     1      -1.326  -1.287  -2.776  0.00  0.00    +0.089 C 
ATOM     25  C   UNL     1      -2.821  -1.086  -3.048  0.00  0.00    -0.060 C 
ATOM     26  N   UNL     1      -3.015  -0.712  -4.455  0.00  0.00    +0.380 N 
ATOM     27  C   UNL     1      -2.387   0.588  -4.719  0.00  0.00    -0.060 C 
ATOM     28  C   UNL     1      -0.875   0.473  -4.527  0.00  0.00    +0.089 C 
ATOM     29  C   UNL     1      -4.453  -0.627  -4.743  0.00  0.00    -0.096 C 
ATOM     30  H   UNL     1      -2.597  -1.413  -5.049  0.00  0.00    -0.082 HD
ENDBRANCH   3  21
BRANCH  10  31
ATOM     31  N   UNL     1       0.954  -4.039   0.832  0.00  0.00    -0.298 N 
ATOM     32  H   UNL     1       0.703  -4.165  -0.096  0.00  0.00    +0.154 HD
BRANCH  31  33
ATOM     33  C   UNL     1       1.057  -5.143   1.685  0.00  0.00    +0.054 A 
ATOM     34  C   UNL     1       0.991  -4.968   3.060  0.00  0.00    +0.070 A 
ATOM     35  C   UNL     1       1.094  -6.064   3.901  0.00  0.00    +0.122 A 
ATOM     36  C   UNL     1       1.262  -7.335   3.368  0.00  0.00    +0.047 A 
ATOM     37  C   UNL     1       1.327  -7.508   1.998  0.00  0.00    +0.025 A 
ATOM     38  C   UNL     1       1.219  -6.418   1.155  0.00  0.00    +0.062 A 
ATOM     39 CL   UNL     1       1.294  -6.641  -0.565  0.00  0.00    -0.082 Cl
BRANCH  35  40
ATOM     40  O   UNL     1       1.030  -5.896   5.248  0.00  0.00    -0.495 OA
ATOM     41  C   UNL     1       1.143  -7.070   6.055  0.00  0.00    +0.277 C 
ENDBRANCH  35  40
ENDBRANCH  31  33
ENDBRANCH  10  31
TORSDOF 4
