REMARK  Name = CHEMBL412099
REMARK  3 active torsions:
REMARK  status: ('A' for Active; 'I' for Inactive)
REMARK    1  A    between atoms: C_17  and  C_19
REMARK    2  A    between atoms: C_20  and  C_27
REMARK    3  A    between atoms: C_24  and  C_25
REMARK                            x       y       z     vdW  Elec       q    Type
REMARK                         _______ _______ _______ _____ _____    ______ ____
ROOT
ATOM      1  C   UNL     1      -0.016   1.370   0.111  0.00  0.00    +0.001 A 
ATOM      2  C   UNL     1       1.171   2.092   0.130  0.00  0.00    +0.001 A 
ATOM      3  C   UNL     1       2.377   1.454   0.091  0.00  0.00    +0.010 A 
ATOM      4  C   UNL     1       2.427   0.056   0.031  0.00  0.00    +0.008 A 
ATOM      5  C   UNL     1       1.224  -0.681   0.011  0.00  0.00    -0.008 A 
ATOM      6  C   UNL     1       0.003  -0.005   0.052  0.00  0.00    +0.009 A 
ATOM      7  C   UNL     1       1.269  -2.148  -0.053  0.00  0.00    -0.007 A 
ATOM      8  C   UNL     1       0.090  -2.898  -0.074  0.00  0.00    +0.029 A 
ATOM      9  C   UNL     1       0.156  -4.272  -0.134  0.00  0.00    +0.042 A 
ATOM     10  C   UNL     1       1.385  -4.919  -0.173  0.00  0.00    +0.020 A 
ATOM     11  C   UNL     1       2.550  -4.205  -0.153  0.00  0.00    +0.012 A 
ATOM     12  C   UNL     1       2.513  -2.809  -0.093  0.00  0.00    +0.010 A 
ATOM     13  C   UNL     1       3.759  -2.030  -0.072  0.00  0.00    +0.098 A 
ATOM     14  C   UNL     1       3.711  -0.641  -0.012  0.00  0.00    +0.075 A 
ATOM     15  N   UNL     1       5.015  -0.204  -0.006  0.00  0.00    -0.337 N 
ATOM     16  H   UNL     1       5.314   0.718   0.031  0.00  0.00    +0.167 HD
ATOM     17  C   UNL     1       5.810  -1.316  -0.062  0.00  0.00    +0.142 A 
ATOM     18  N   UNL     1       5.053  -2.389  -0.100  0.00  0.00    -0.227 NA
ATOM     19 CL   UNL     1      -1.308  -5.204  -0.160  0.00  0.00    -0.084 Cl
ENDROOT
BRANCH  17  20
ATOM     20  C   UNL     1       7.284  -1.310  -0.076  0.00  0.00    +0.052 A 
ATOM     21  C   UNL     1       7.989  -0.096  -0.176  0.00  0.00    +0.064 A 
ATOM     22  C   UNL     1       9.384  -0.106  -0.189  0.00  0.00    +0.019 A 
ATOM     23  C   UNL     1      10.074  -1.300  -0.104  0.00  0.00    +0.003 A 
ATOM     24  C   UNL     1       9.395  -2.499  -0.005  0.00  0.00    +0.019 A 
ATOM     25  C   UNL     1       8.000  -2.519   0.015  0.00  0.00    +0.064 A 
BRANCH  25  26
ATOM     26  C   UNL     1       7.300  -3.763   0.123  0.00  0.00    +0.100 C 
ATOM     27  N   UNL     1       6.745  -4.750   0.209  0.00  0.00    -0.191 NA
ENDBRANCH  25  26
BRANCH  21  28
ATOM     28  C   UNL     1       7.277   1.143  -0.266  0.00  0.00    +0.100 C 
ATOM     29  N   UNL     1       6.713   2.127  -0.336  0.00  0.00    -0.191 NA
ENDBRANCH  21  28
ENDBRANCH  17  20
TORSDOF 3
