REMARK  Name = CHEMBL1089773
REMARK  6 active torsions:
REMARK  status: ('A' for Active; 'I' for Inactive)
REMARK    1  A    between atoms: C_1  and  N_2
REMARK    2  A    between atoms: N_5  and  C_8
REMARK    3  A    between atoms: C_11  and  C_14
REMARK    4  A    between atoms: C_21  and  C_24
REMARK    5  A    between atoms: C_27  and  C_31
REMARK    6  A    between atoms: C_31  and  N_32
REMARK                            x       y       z     vdW  Elec       q    Type
REMARK                         _______ _______ _______ _____ _____    ______ ____
ROOT
ATOM      1  C   UNL     1      -2.373  -6.734   4.293  0.00  0.00    +0.090 A 
ATOM      2  C   UNL     1      -3.661  -7.267   4.095  0.00  0.00    +0.139 A 
ATOM      3  N   UNL     1      -4.108  -8.232   4.863  0.00  0.00    -0.251 NA
ATOM      4  C   UNL     1      -3.336  -8.716   5.844  0.00  0.00    +0.090 A 
ATOM      5  C   UNL     1      -3.794  -9.749   6.678  0.00  0.00    +0.030 A 
ATOM      6  C   UNL     1      -2.997 -10.232   7.672  0.00  0.00    +0.003 A 
ATOM      7  C   UNL     1      -1.722  -9.718   7.884  0.00  0.00    +0.011 A 
ATOM      8  C   UNL     1      -1.231  -8.700   7.086  0.00  0.00    +0.010 A 
ATOM      9  C   UNL     1      -2.039  -8.181   6.045  0.00  0.00    +0.098 A 
ATOM     10  N   UNL     1      -1.595  -7.204   5.254  0.00  0.00    -0.243 NA
ENDROOT
BRANCH   8  11
ATOM     11  C   UNL     1       0.128  -8.159   7.318  0.00  0.00    -0.010 A 
ATOM     12  C   UNL     1       1.020  -8.028   6.255  0.00  0.00    +0.047 A 
ATOM     13  C   UNL     1       2.287  -7.523   6.476  0.00  0.00    +0.131 A 
ATOM     14  C   UNL     1       2.672  -7.146   7.753  0.00  0.00    +0.037 A 
ATOM     15  C   UNL     1       1.789  -7.274   8.813  0.00  0.00    +0.131 A 
ATOM     16  C   UNL     1       0.518  -7.772   8.600  0.00  0.00    +0.047 A 
ATOM     17  F   UNL     1       2.170  -6.904  10.055  0.00  0.00    -0.205 F 
ATOM     18  F   UNL     1       3.153  -7.396   5.446  0.00  0.00    -0.205 F 
BRANCH  14  19
ATOM     19  C   UNL     1       4.055  -6.596   7.989  0.00  0.00    +0.125 C 
BRANCH  19  20
ATOM     20  N   UNL     1       4.035  -5.136   7.829  0.00  0.00    -0.294 NA
ATOM     21  C   UNL     1       3.751  -4.762   6.436  0.00  0.00    +0.113 C 
ATOM     22  C   UNL     1       3.680  -3.237   6.326  0.00  0.00    +0.175 C 
ATOM     23  O   UNL     1       4.907  -2.673   6.798  0.00  0.00    -0.377 OA
ATOM     24  C   UNL     1       5.215  -3.016   8.152  0.00  0.00    +0.175 C 
ATOM     25  C   UNL     1       5.301  -4.539   8.280  0.00  0.00    +0.113 C 
ENDBRANCH  19  20
ENDBRANCH  14  19
ENDBRANCH   8  11
BRANCH   1  29
ATOM     26  C   UNL     1      -0.971  -3.608   1.775  0.00  0.00    +0.030 A 
ATOM     27  C   UNL     1      -2.280  -4.062   1.655  0.00  0.00    +0.024 A 
ATOM     28  C   UNL     1      -2.737  -5.075   2.469  0.00  0.00    +0.012 A 
ATOM     29  C   UNL     1      -1.885  -5.645   3.416  0.00  0.00    +0.002 A 
ATOM     30  C   UNL     1      -0.572  -5.188   3.534  0.00  0.00    +0.012 A 
ATOM     31  C   UNL     1      -0.118  -4.179   2.714  0.00  0.00    +0.024 A 
BRANCH  26  36
ATOM     32  C   UNL     1      -0.039   1.464  -0.002  0.00  0.00    -0.096 C 
ATOM     33  N   UNL     1      -0.008  -0.004  -0.004  0.00  0.00    +0.380 N 
ATOM     34  C   UNL     1      -1.383  -0.521  -0.015  0.00  0.00    -0.060 C 
ATOM     35  C   UNL     1      -1.352  -2.048  -0.132  0.00  0.00    +0.086 C 
ATOM     36  N   UNL     1      -0.511  -2.583   0.950  0.00  0.00    -0.333 N 
ATOM     37  C   UNL     1       0.828  -2.004   1.137  0.00  0.00    +0.086 C 
ATOM     38  C   UNL     1       0.695  -0.479   1.195  0.00  0.00    -0.060 C 
ATOM     39  H   UNL     1       0.477  -0.328  -0.827  0.00  0.00    -0.082 HD
ENDBRANCH  26  36
ENDBRANCH   1  29
TORSDOF 5
