REMARK  Name = CHEMBL375296
REMARK  5 active torsions:
REMARK  status: ('A' for Active; 'I' for Inactive)
REMARK    1  A    between atoms: C_1  and  C_2
REMARK    2  A    between atoms: C_2  and  C_4
REMARK    3  A    between atoms: C_2  and  N_10
REMARK    4  A    between atoms: C_13  and  N_26
REMARK    5  A    between atoms: N_29  and  C_32
REMARK                            x       y       z     vdW  Elec       q    Type
REMARK                         _______ _______ _______ _____ _____    ______ ____
ROOT
ATOM      1  N   UNL     1       0.687  -0.870  -1.090  0.00  0.00    -0.322 N 
ATOM      2  C   UNL     1       2.069  -0.785  -1.159  0.00  0.00    +0.126 A 
ATOM      3  C   UNL     1       2.813  -0.467  -0.027  0.00  0.00    +0.087 A 
ATOM      4  C   UNL     1       4.198  -0.393  -0.145  0.00  0.00    +0.128 A 
ATOM      5  N   UNL     1       4.761  -0.628  -1.328  0.00  0.00    -0.197 NA
ATOM      6  C   UNL     1       4.021  -0.928  -2.383  0.00  0.00    +0.240 A 
ATOM      7  N   UNL     1       2.702  -1.012  -2.308  0.00  0.00    -0.197 NA
ATOM      8  N   UNL     1       4.646  -1.167  -3.604  0.00  0.00    -0.267 N 
ATOM      9  C   UNL     1       5.988  -1.132  -3.846  0.00  0.00    +0.182 A 
ATOM     10  N   UNL     1       6.223  -1.404  -5.098  0.00  0.00    -0.345 N 
ATOM     11  C   UNL     1       5.056  -1.632  -5.743  0.00  0.00    +0.067 A 
ATOM     12  C   UNL     1       4.024  -1.490  -4.795  0.00  0.00    +0.092 A 
ATOM     13  C   UNL     1       2.712  -1.679  -5.196  0.00  0.00    +0.139 A 
ATOM     14  N   UNL     1       2.440  -1.991  -6.448  0.00  0.00    -0.261 NA
ATOM     15  C   UNL     1       3.384  -2.135  -7.362  0.00  0.00    +0.113 A 
ATOM     16  C   UNL     1       4.705  -1.959  -7.058  0.00  0.00    +0.047 A 
ATOM     17  H   UNL     1       0.175  -1.096  -1.882  0.00  0.00    +0.148 HD
ATOM     18  H   UNL     1       7.103  -1.438  -5.505  0.00  0.00    +0.167 HD
ENDROOT
BRANCH   4  19
ATOM     19  N   UNL     1       4.981  -0.079   0.955  0.00  0.00    -0.319 N 
ATOM     20  C   UNL     1       6.445  -0.207   0.903  0.00  0.00    +0.088 C 
ATOM     21  C   UNL     1       7.065   1.102   1.403  0.00  0.00    -0.060 C 
ATOM     22  N   UNL     1       6.532   1.418   2.734  0.00  0.00    +0.380 N 
ATOM     23  C   UNL     1       5.088   1.672   2.647  0.00  0.00    -0.060 C 
ATOM     24  C   UNL     1       4.371   0.397   2.207  0.00  0.00    +0.088 C 
ATOM     25  C   UNL     1       7.207   2.612   3.260  0.00  0.00    -0.096 C 
ATOM     26  H   UNL     1       6.698   0.640   3.355  0.00  0.00    -0.082 HD
ENDBRANCH   4  19
BRANCH   1  28
ATOM     27  C   UNL     1      -0.231   0.885   0.344  0.00  0.00    +0.033 C 
ATOM     28  C   UNL     1       0.000  -0.618   0.179  0.00  0.00    +0.099 C 
BRANCH  28  29
ATOM     29  C   UNL     1      -1.327  -1.333   0.183  0.00  0.00    -0.028 A 
ATOM     30  C   UNL     1      -2.098  -1.366  -0.964  0.00  0.00    +0.005 A 
ATOM     31  C   UNL     1      -3.314  -2.022  -0.961  0.00  0.00    +0.000 A 
ATOM     32  C   UNL     1      -3.760  -2.645   0.190  0.00  0.00    +0.000 A 
ATOM     33  C   UNL     1      -2.989  -2.614   1.336  0.00  0.00    +0.000 A 
ATOM     34  C   UNL     1      -1.770  -1.961   1.331  0.00  0.00    +0.005 A 
ENDBRANCH  28  29
ENDBRANCH   1  28
TORSDOF 3
