REMARK  Name = CHEMBL231733
REMARK  9 active torsions:
REMARK  status: ('A' for Active; 'I' for Inactive)
REMARK    1  A    between atoms: C_1  and  C_2
REMARK    2  A    between atoms: C_2  and  C_4
REMARK    3  A    between atoms: C_2  and  N_10
REMARK    4  A    between atoms: C_14  and  C_30
REMARK    5  A    between atoms: N_15  and  C_29
REMARK    6  A    between atoms: N_32  and  C_33
REMARK    7  A    between atoms: C_33  and  C_34
REMARK    8  A    between atoms: C_34  and  C_35
REMARK    9  A    between atoms: C_35  and  N_36
REMARK                            x       y       z     vdW  Elec       q    Type
REMARK                         _______ _______ _______ _____ _____    ______ ____
ROOT
ATOM      1  N   UNL     1       0.420  -0.623  -1.582  0.00  0.00    -0.322 N 
ATOM      2  C   UNL     1       1.789  -0.697  -1.423  0.00  0.00    +0.134 A 
ATOM      3  C   UNL     1       2.619  -1.098  -2.491  0.00  0.00    +0.059 A 
ATOM      4  C   UNL     1       2.387  -1.487  -3.826  0.00  0.00    +0.046 A 
ATOM      5  C   UNL     1       3.595  -1.767  -4.388  0.00  0.00    +0.106 A 
ATOM      6  N   UNL     1       4.589  -1.566  -3.443  0.00  0.00    -0.324 N 
ATOM      7  C   UNL     1       4.011  -1.156  -2.275  0.00  0.00    +0.148 A 
ATOM      8  N   UNL     1       4.487  -0.830  -1.075  0.00  0.00    -0.194 NA
ATOM      9  C   UNL     1       3.671  -0.460  -0.103  0.00  0.00    +0.240 A 
ATOM     10  N   UNL     1       2.357  -0.386  -0.264  0.00  0.00    -0.196 NA
ATOM     11  N   UNL     1       4.214  -0.128   1.134  0.00  0.00    -0.267 N 
ATOM     12  C   UNL     1       5.536  -0.138   1.467  0.00  0.00    +0.182 A 
ATOM     13  N   UNL     1       5.688   0.228   2.708  0.00  0.00    -0.345 N 
ATOM     14  C   UNL     1       4.480   0.496   3.256  0.00  0.00    +0.067 A 
ATOM     15  C   UNL     1       3.513   0.278   2.255  0.00  0.00    +0.092 A 
ATOM     16  C   UNL     1       2.177   0.487   2.553  0.00  0.00    +0.139 A 
ATOM     17  N   UNL     1       1.822   0.888   3.758  0.00  0.00    -0.261 NA
ATOM     18  C   UNL     1       2.703   1.105   4.719  0.00  0.00    +0.113 A 
ATOM     19  C   UNL     1       4.042   0.917   4.516  0.00  0.00    +0.047 A 
ATOM     20  C   UNL     1       6.024  -1.762  -3.662  0.00  0.00    +0.151 C 
ATOM     21  H   UNL     1       0.018  -0.852  -2.434  0.00  0.00    +0.148 HD
ATOM     22  H   UNL     1       6.538   0.297   3.169  0.00  0.00    +0.167 HD
ENDROOT
BRANCH   5  23
ATOM     23  C   UNL     1       3.810  -2.210  -5.770  0.00  0.00    +0.261 C 
ATOM     24  O   UNL     1       4.942  -2.332  -6.201  0.00  0.00    -0.269 OA
ATOM     25  N   UNL     1       2.754  -2.482  -6.562  0.00  0.00    -0.310 N 
ATOM     26  H   UNL     1       1.853  -2.314  -6.245  0.00  0.00    +0.149 HD
BRANCH  25  27
ATOM     27  C   UNL     1       2.967  -3.031  -7.904  0.00  0.00    +0.106 C 
BRANCH  27  28
ATOM     28  C   UNL     1       1.615  -3.246  -8.588  0.00  0.00    +0.040 C 
BRANCH  28  29
ATOM     29  C   UNL     1       1.838  -3.819  -9.989  0.00  0.00    +0.124 C 
BRANCH  29  30
ATOM     30  N   UNL     1       0.544  -4.025 -10.643  0.00  0.00    -0.337 N 
ATOM     31  C   UNL     1      -0.222  -5.159 -10.591  0.00  0.00    +0.106 A 
ATOM     32  C   UNL     1      -1.323  -4.920 -11.327  0.00  0.00    +0.130 A 
ATOM     33  N   UNL     1      -1.234  -3.674 -11.816  0.00  0.00    -0.244 NA
ATOM     34  C   UNL     1      -0.120  -3.130 -11.406  0.00  0.00    +0.199 A 
ENDBRANCH  29  30
ENDBRANCH  28  29
ENDBRANCH  27  28
ENDBRANCH  25  27
ENDBRANCH   5  23
BRANCH   1  36
ATOM     35  C   UNL     1      -0.494   1.330  -0.427  0.00  0.00    +0.033 C 
ATOM     36  C   UNL     1      -0.425  -0.198  -0.463  0.00  0.00    +0.099 C 
BRANCH  36  37
ATOM     37  C   UNL     1      -1.812  -0.759  -0.639  0.00  0.00    -0.028 A 
ATOM     38  C   UNL     1      -2.388  -0.796  -1.896  0.00  0.00    +0.005 A 
ATOM     39  C   UNL     1      -3.660  -1.311  -2.058  0.00  0.00    +0.000 A 
ATOM     40  C   UNL     1      -4.357  -1.790  -0.964  0.00  0.00    +0.000 A 
ATOM     41  C   UNL     1      -3.781  -1.754   0.292  0.00  0.00    +0.000 A 
ATOM     42  C   UNL     1      -2.506  -1.243   0.454  0.00  0.00    +0.005 A 
ENDBRANCH  36  37
ENDBRANCH   1  36
TORSDOF 7
