REMARK  Name = CHEMBL232147
REMARK  9 active torsions:
REMARK  status: ('A' for Active; 'I' for Inactive)
REMARK    1  A    between atoms: C_1  and  C_2
REMARK    2  A    between atoms: C_2  and  C_4
REMARK    3  A    between atoms: C_2  and  N_8
REMARK    4  A    between atoms: C_4  and  C_5
REMARK    5  A    between atoms: C_4  and  C_6
REMARK    6  A    between atoms: C_4  and  O_7
REMARK    7  A    between atoms: C_12  and  C_28
REMARK    8  A    between atoms: N_13  and  C_27
REMARK    9  A    between atoms: N_33  and  C_36
REMARK                            x       y       z     vdW  Elec       q    Type
REMARK                         _______ _______ _______ _____ _____    ______ ____
ROOT
ATOM      1  N   UNL     1       0.070  -2.262   1.238  0.00  0.00    -0.323 N 
ATOM      2  C   UNL     1      -0.372  -1.758   2.444  0.00  0.00    +0.134 A 
ATOM      3  C   UNL     1       0.495  -1.678   3.554  0.00  0.00    +0.059 A 
ATOM      4  C   UNL     1       1.845  -2.017   3.776  0.00  0.00    +0.046 A 
ATOM      5  C   UNL     1       2.139  -1.708   5.069  0.00  0.00    +0.107 A 
ATOM      6  N   UNL     1       1.010  -1.181   5.674  0.00  0.00    -0.324 N 
ATOM      7  C   UNL     1      -0.007  -1.154   4.763  0.00  0.00    +0.148 A 
ATOM      8  N   UNL     1      -1.277  -0.756   4.809  0.00  0.00    -0.194 NA
ATOM      9  C   UNL     1      -2.053  -0.849   3.744  0.00  0.00    +0.240 A 
ATOM     10  N   UNL     1      -1.621  -1.331   2.586  0.00  0.00    -0.196 NA
ATOM     11  N   UNL     1      -3.373  -0.421   3.839  0.00  0.00    -0.267 N 
ATOM     12  C   UNL     1      -3.975   0.108   4.942  0.00  0.00    +0.182 A 
ATOM     13  N   UNL     1      -5.216   0.400   4.678  0.00  0.00    -0.345 N 
ATOM     14  C   UNL     1      -5.497   0.082   3.393  0.00  0.00    +0.067 A 
ATOM     15  C   UNL     1      -4.319  -0.445   2.830  0.00  0.00    +0.092 A 
ATOM     16  C   UNL     1      -4.329  -0.851   1.506  0.00  0.00    +0.139 A 
ATOM     17  N   UNL     1      -5.429  -0.740   0.787  0.00  0.00    -0.261 NA
ATOM     18  C   UNL     1      -6.551  -0.247   1.284  0.00  0.00    +0.113 A 
ATOM     19  C   UNL     1      -6.634   0.171   2.582  0.00  0.00    +0.047 A 
ATOM     20  C   UNL     1       0.922  -0.727   7.064  0.00  0.00    +0.151 C 
ATOM     21  H   UNL     1       0.985  -2.571   1.147  0.00  0.00    +0.148 HD
ATOM     22  H   UNL     1      -5.845   0.788   5.308  0.00  0.00    +0.167 HD
ENDROOT
BRANCH   5  23
ATOM     23  C   UNL     1       3.442  -1.903   5.716  0.00  0.00    +0.263 C 
ATOM     24  O   UNL     1       3.506  -2.048   6.923  0.00  0.00    -0.268 OA
ATOM     25  N   UNL     1       4.567  -1.921   4.975  0.00  0.00    -0.294 N 
ATOM     26  C   UNL     1       4.534  -1.582   3.544  0.00  0.00    +0.123 C 
ATOM     27  C   UNL     1       5.605  -0.522   3.269  0.00  0.00    +0.103 C 
ATOM     28  N   UNL     1       6.902  -1.001   3.764  0.00  0.00    -0.302 NA
ATOM     29  C   UNL     1       6.880  -1.191   5.221  0.00  0.00    +0.103 C 
ATOM     30  C   UNL     1       5.862  -2.273   5.577  0.00  0.00    +0.123 C 
ATOM     31  C   UNL     1       7.986  -0.091   3.368  0.00  0.00    +0.105 C 
ENDBRANCH   5  23
BRANCH   1  33
ATOM     32  C   UNL     1      -0.848  -0.987  -0.636  0.00  0.00    +0.030 C 
ATOM     33  C   UNL     1      -0.843  -2.331   0.095  0.00  0.00    +0.100 C 
BRANCH  33  34
ATOM     34  C   UNL     1      -0.379  -3.431  -0.863  0.00  0.00    +0.078 C 
ATOM     35  C   UNL     1      -0.375  -4.775  -0.132  0.00  0.00    +0.043 C 
ATOM     36  C   UNL     1      -1.333  -3.503  -2.057  0.00  0.00    +0.043 C 
BRANCH  34  37
ATOM     37  O   UNL     1       0.940  -3.135  -1.324  0.00  0.00    -0.387 OA
ATOM     38  H   UNL     1       1.599  -3.074  -0.619  0.00  0.00    +0.210 HD
ENDBRANCH  34  37
ENDBRANCH  33  34
ENDBRANCH   1  33
TORSDOF 4
