REMARK  Name = CHEMBL583105
REMARK  1 active torsions:
REMARK  status: ('A' for Active; 'I' for Inactive)
REMARK    1  A    between atoms: C_4  and  C_7
REMARK                            x       y       z     vdW  Elec       q    Type
REMARK                         _______ _______ _______ _____ _____    ______ ____
ROOT
ATOM      1  C   UNL     1       3.698  -0.688  -0.038  0.00  0.00    +0.009 A 
ATOM      2  C   UNL     1       4.739  -0.463  -0.876  0.00  0.00    +0.093 A 
ATOM      3  N   UNL     1       5.758  -1.325  -0.587  0.00  0.00    -0.345 N 
ATOM      4  H   UNL     1       6.609  -1.354  -1.053  0.00  0.00    +0.167 HD
ATOM      5  C   UNL     1       5.407  -2.146   0.459  0.00  0.00    +0.139 A 
ATOM      6  C   UNL     1       4.107  -1.782   0.855  0.00  0.00    +0.028 A 
ATOM      7  C   UNL     1       3.496  -2.455   1.913  0.00  0.00    +0.033 A 
ATOM      8  C   UNL     1       4.207  -3.464   2.539  0.00  0.00    +0.060 A 
ATOM      9  C   UNL     1       5.486  -3.768   2.099  0.00  0.00    +0.133 A 
ATOM     10  N   UNL     1       6.040  -3.125   1.093  0.00  0.00    -0.236 NA
ATOM     11 CL   UNL     1       3.503  -4.339   3.863  0.00  0.00    -0.082 Cl
ENDROOT
BRANCH   1  15
ATOM     12  C   UNL     1      -0.017   1.379   0.010  0.00  0.00    +0.000 A 
ATOM     13  C   UNL     1       1.169   2.092   0.002  0.00  0.00    +0.001 A 
ATOM     14  C   UNL     1       2.377   1.427  -0.013  0.00  0.00    +0.008 A 
ATOM     15  C   UNL     1       2.403   0.033  -0.021  0.00  0.00    -0.016 A 
ATOM     16  C   UNL     1       1.205  -0.680  -0.013  0.00  0.00    +0.008 A 
ATOM     17  C   UNL     1       0.002  -0.004   0.002  0.00  0.00    +0.001 A 
ENDBRANCH   1  15
TORSDOF 1
