REMARK  Name = CHEMBL393375
REMARK  7 active torsions:
REMARK  status: ('A' for Active; 'I' for Inactive)
REMARK    1  A    between atoms: C_1  and  N_2
REMARK    2  A    between atoms: C_3  and  C_30
REMARK    3  A    between atoms: C_10  and  N_11
REMARK    4  A    between atoms: N_11  and  C_12
REMARK    5  A    between atoms: C_14  and  O_19
REMARK    6  A    between atoms: O_19  and  C_20
REMARK    7  A    between atoms: N_35  and  C_38
REMARK                            x       y       z     vdW  Elec       q    Type
REMARK                         _______ _______ _______ _____ _____    ______ ____
ROOT
ATOM      1  C   UNL     1       1.160   2.352   0.080  0.00  0.00    +0.151 C 
ATOM      2  N   UNL     1       1.052   0.894  -0.018  0.00  0.00    -0.324 N 
ATOM      3  C   UNL     1       0.662   0.188  -1.145  0.00  0.00    +0.107 A 
ATOM      4  C   UNL     1       0.680  -1.143  -0.862  0.00  0.00    +0.046 A 
ATOM      5  C   UNL     1       1.092  -1.288   0.478  0.00  0.00    +0.060 A 
ATOM      6  C   UNL     1       1.326   0.007   0.985  0.00  0.00    +0.148 A 
ATOM      7  N   UNL     1       1.735   0.137   2.245  0.00  0.00    -0.194 NA
ATOM      8  C   UNL     1       1.922  -0.926   3.007  0.00  0.00    +0.240 A 
ATOM      9  N   UNL     1       1.719  -2.162   2.571  0.00  0.00    -0.196 NA
ATOM     10  C   UNL     1       1.301  -2.391   1.331  0.00  0.00    +0.138 A 
ATOM     11  N   UNL     1       2.350  -0.742   4.318  0.00  0.00    -0.267 N 
ATOM     12  C   UNL     1       2.165   0.374   5.080  0.00  0.00    +0.182 A 
ATOM     13  N   UNL     1       2.695   0.203   6.258  0.00  0.00    -0.345 N 
ATOM     14  C   UNL     1       3.254  -1.027   6.334  0.00  0.00    +0.067 A 
ATOM     15  C   UNL     1       3.038  -1.657   5.093  0.00  0.00    +0.092 A 
ATOM     16  C   UNL     1       3.510  -2.945   4.902  0.00  0.00    +0.139 A 
ATOM     17  N   UNL     1       4.149  -3.568   5.873  0.00  0.00    -0.261 NA
ATOM     18  C   UNL     1       4.365  -3.007   7.051  0.00  0.00    +0.113 A 
ATOM     19  C   UNL     1       3.943  -1.736   7.324  0.00  0.00    +0.047 A 
ATOM     20  H   UNL     1       2.689   0.859   6.973  0.00  0.00    +0.167 HD
ENDROOT
BRANCH   3  21
ATOM     21  C   UNL     1       0.289   0.780  -2.435  0.00  0.00    +0.263 C 
ATOM     22  O   UNL     1       0.772   1.843  -2.778  0.00  0.00    -0.268 OA
ATOM     23  N   UNL     1      -0.588   0.147  -3.239  0.00  0.00    -0.294 N 
ATOM     24  C   UNL     1      -1.311  -1.047  -2.775  0.00  0.00    +0.123 C 
ATOM     25  C   UNL     1      -2.807  -0.842  -3.034  0.00  0.00    +0.103 C 
ATOM     26  N   UNL     1      -3.014  -0.500  -4.447  0.00  0.00    -0.302 NA
ATOM     27  C   UNL     1      -2.363   0.772  -4.789  0.00  0.00    +0.103 C 
ATOM     28  C   UNL     1      -0.853   0.636  -4.600  0.00  0.00    +0.123 C 
ATOM     29  C   UNL     1      -4.446  -0.463  -4.776  0.00  0.00    +0.105 C 
ENDBRANCH   3  21
BRANCH  10  30
ATOM     30  N   UNL     1       1.093  -3.681   0.883  0.00  0.00    -0.298 N 
ATOM     31  H   UNL     1       0.847  -3.839  -0.042  0.00  0.00    +0.154 HD
BRANCH  30  32
ATOM     32  C   UNL     1       1.235  -4.758   1.763  0.00  0.00    +0.054 A 
ATOM     33  C   UNL     1       1.170  -4.550   3.134  0.00  0.00    +0.070 A 
ATOM     34  C   UNL     1       1.312  -5.620   4.003  0.00  0.00    +0.122 A 
ATOM     35  C   UNL     1       1.518  -6.898   3.502  0.00  0.00    +0.047 A 
ATOM     36  C   UNL     1       1.583  -7.105   2.137  0.00  0.00    +0.025 A 
ATOM     37  C   UNL     1       1.436  -6.041   1.266  0.00  0.00    +0.062 A 
ATOM     38 CL   UNL     1       1.509  -6.306  -0.448  0.00  0.00    -0.082 Cl
BRANCH  34  39
ATOM     39  O   UNL     1       1.249  -5.418   5.346  0.00  0.00    -0.495 OA
ATOM     40  C   UNL     1       1.403  -6.567   6.182  0.00  0.00    +0.277 C 
ENDBRANCH  34  39
ENDBRANCH  30  32
ENDBRANCH  10  30
TORSDOF 4
