REMARK  Name = CHEMBL1093749
REMARK  11 active torsions:
REMARK  status: ('A' for Active; 'I' for Inactive)
REMARK    1  A    between atoms: C_1  and  N_2
REMARK    2  A    between atoms: N_2  and  S_3
REMARK    3  A    between atoms: S_3  and  C_6
REMARK    4  A    between atoms: C_9  and  C_12
REMARK    5  A    between atoms: C_19  and  C_22
REMARK    6  A    between atoms: C_24  and  O_32
REMARK    7  A    between atoms: C_25  and  O_30
REMARK    8  A    between atoms: C_26  and  O_28
REMARK    9  A    between atoms: O_28  and  C_29
REMARK   10  A    between atoms: O_30  and  C_31
REMARK   11  A    between atoms: O_32  and  C_33
REMARK                            x       y       z     vdW  Elec       q    Type
REMARK                         _______ _______ _______ _____ _____    ______ ____
ROOT
ATOM      1  C   UNL     1      -2.358   0.315   6.255  0.00  0.00    +0.010 A 
ATOM      2  C   UNL     1      -1.695   0.535   7.450  0.00  0.00    +0.011 A 
ATOM      3  C   UNL     1      -2.405   0.800   8.616  0.00  0.00    +0.003 A 
ATOM      4  C   UNL     1      -3.766   0.849   8.616  0.00  0.00    +0.030 A 
ATOM      5  C   UNL     1      -4.480   0.632   7.426  0.00  0.00    +0.090 A 
ATOM      6  C   UNL     1      -3.772   0.367   6.227  0.00  0.00    +0.098 A 
ATOM      7  N   UNL     1      -4.444   0.164   5.091  0.00  0.00    -0.243 NA
ATOM      8  C   UNL     1      -5.766   0.218   5.094  0.00  0.00    +0.090 A 
ATOM      9  C   UNL     1      -6.465   0.488   6.285  0.00  0.00    +0.139 A 
ATOM     10  N   UNL     1      -5.819   0.677   7.410  0.00  0.00    -0.251 NA
ENDROOT
BRANCH   1  14
ATOM     11  C   UNL     1      -0.166  -0.494   2.705  0.00  0.00    +0.105 A 
ATOM     12  C   UNL     1       0.175   0.591   3.493  0.00  0.00    +0.029 A 
ATOM     13  C   UNL     1      -0.533   0.858   4.647  0.00  0.00    +0.010 A 
ATOM     14  C   UNL     1      -1.594   0.033   5.018  0.00  0.00    -0.016 A 
ATOM     15  C   UNL     1      -1.934  -1.058   4.219  0.00  0.00    +0.010 A 
ATOM     16  C   UNL     1      -1.222  -1.313   3.064  0.00  0.00    +0.029 A 
BRANCH  11  17
ATOM     17  S   UNL     1       0.742  -0.829   1.233  0.00  0.00    +0.058 S 
ATOM     18  O   UNL     1       0.570  -2.212   0.955  0.00  0.00    -0.153 OA
ATOM     19  O   UNL     1       2.024  -0.240   1.403  0.00  0.00    -0.153 OA
BRANCH  17  21
ATOM     20  C   UNL     1      -0.018   1.461   0.010  0.00  0.00    +0.127 C 
ATOM     21  N   UNL     1       0.002  -0.004   0.002  0.00  0.00    -0.193 NA
ATOM     22  H   UNL     1      -0.418  -0.491  -0.724  0.00  0.00    +0.148 HD
ENDBRANCH  17  21
ENDBRANCH  11  17
ENDBRANCH   1  14
BRANCH   8  23
ATOM     23  C   UNL     1      -6.514  -0.006   3.835  0.00  0.00    +0.009 A 
ATOM     24  C   UNL     1      -5.834  -0.382   2.676  0.00  0.00    +0.059 A 
ATOM     25  C   UNL     1      -6.535  -0.591   1.502  0.00  0.00    +0.166 A 
ATOM     26  C   UNL     1      -7.916  -0.427   1.476  0.00  0.00    +0.204 A 
ATOM     27  C   UNL     1      -8.596  -0.052   2.630  0.00  0.00    +0.166 A 
ATOM     28  C   UNL     1      -7.899   0.152   3.808  0.00  0.00    +0.059 A 
BRANCH  27  29
ATOM     29  O   UNL     1      -9.946   0.108   2.603  0.00  0.00    -0.491 OA
ATOM     30  C   UNL     1     -10.579   0.493   3.825  0.00  0.00    +0.277 C 
ENDBRANCH  27  29
BRANCH  26  31
ATOM     31  O   UNL     1      -8.603  -0.632   0.320  0.00  0.00    -0.488 OA
ATOM     32  C   UNL     1      -9.082  -1.956   0.076  0.00  0.00    +0.277 C 
ENDBRANCH  26  31
BRANCH  25  33
ATOM     33  O   UNL     1      -5.872  -0.956   0.371  0.00  0.00    -0.491 OA
ATOM     34  C   UNL     1      -4.455  -1.106   0.470  0.00  0.00    +0.277 C 
ENDBRANCH  25  33
ENDBRANCH   8  23
TORSDOF 7
