REMARK  Name = CHEMBL1078274
REMARK  6 active torsions:
REMARK  status: ('A' for Active; 'I' for Inactive)
REMARK    1  A    between atoms: C_1  and  O_2
REMARK    2  A    between atoms: O_2  and  C_3
REMARK    3  A    between atoms: C_5  and  C_10
REMARK    4  A    between atoms: C_8  and  O_9
REMARK    5  A    between atoms: N_16  and  C_17
REMARK    6  A    between atoms: C_20  and  N_23
REMARK                            x       y       z     vdW  Elec       q    Type
REMARK                         _______ _______ _______ _____ _____    ______ ____
ROOT
ATOM      1  C   UNL     1      -4.869   0.231   0.129  0.00  0.00    +0.076 A 
ATOM      2  C   UNL     1      -6.082  -0.409  -0.146  0.00  0.00    +0.048 A 
ATOM      3  C   UNL     1      -7.205   0.369  -0.353  0.00  0.00    +0.116 A 
ATOM      4  N   UNL     1      -7.102   1.688  -0.285  0.00  0.00    -0.223 NA
ATOM      5  C   UNL     1      -5.939   2.268  -0.023  0.00  0.00    +0.220 A 
ATOM      6  N   UNL     1      -4.840   1.560   0.187  0.00  0.00    -0.214 NA
ATOM      7  N   UNL     1      -5.874   3.650   0.039  0.00  0.00    -0.284 N 
ATOM      8  H   UNL     1      -5.017   4.090   0.149  0.00  0.00    +0.155 HD
ENDROOT
BRANCH   1  11
ATOM      9  C   UNL     1      -1.286  -0.652   0.852  0.00  0.00    +0.162 A 
ATOM     10  C   UNL     1      -2.434   0.088   0.638  0.00  0.00    +0.059 A 
ATOM     11  C   UNL     1      -3.636  -0.560   0.358  0.00  0.00    +0.004 A 
ATOM     12  C   UNL     1      -3.678  -1.952   0.295  0.00  0.00    +0.014 A 
ATOM     13  C   UNL     1      -2.530  -2.687   0.510  0.00  0.00    +0.050 A 
ATOM     14  C   UNL     1      -1.332  -2.043   0.782  0.00  0.00    +0.158 A 
BRANCH   9  16
ATOM     15  C   UNL     1      -0.138   1.404   1.181  0.00  0.00    +0.277 C 
ATOM     16  O   UNL     1      -0.111  -0.024   1.125  0.00  0.00    -0.491 OA
ENDBRANCH   9  16
BRANCH  14  17
ATOM     17  O   UNL     1      -0.202  -2.770   0.986  0.00  0.00    -0.503 OA
ATOM     18  H   UNL     1      -0.055  -3.018   1.909  0.00  0.00    +0.292 HD
ENDBRANCH  14  17
ENDBRANCH   1  11
BRANCH   7  19
ATOM     19  C   UNL     1      -7.046   4.412  -0.057  0.00  0.00    +0.034 A 
ATOM     20  C   UNL     1      -8.216   3.966   0.544  0.00  0.00    +0.025 A 
ATOM     21  C   UNL     1      -9.370   4.716   0.449  0.00  0.00    +0.025 A 
ATOM     22  C   UNL     1      -9.362   5.918  -0.248  0.00  0.00    +0.030 A 
ATOM     23  C   UNL     1      -8.193   6.364  -0.848  0.00  0.00    +0.025 A 
ATOM     24  C   UNL     1      -7.036   5.616  -0.749  0.00  0.00    +0.025 A 
BRANCH  22  25
ATOM     25  N   UNL     1     -10.533   6.678  -0.344  0.00  0.00    -0.326 N 
ATOM     26  C   UNL     1     -10.583   7.889  -1.180  0.00  0.00    +0.133 C 
ATOM     27  C   UNL     1     -11.812   7.797  -2.091  0.00  0.00    +0.178 C 
ATOM     28  O   UNL     1     -12.969   7.526  -1.296  0.00  0.00    -0.377 OA
ATOM     29  C   UNL     1     -12.923   6.277  -0.602  0.00  0.00    +0.178 C 
ATOM     30  C   UNL     1     -11.752   6.288   0.382  0.00  0.00    +0.133 C 
ENDBRANCH  22  25
ENDBRANCH   7  19
TORSDOF 5
