REMARK  Name = CHEMBL570192
REMARK  8 active torsions:
REMARK  status: ('A' for Active; 'I' for Inactive)
REMARK    1  A    between atoms: C_1  and  C_2
REMARK    2  A    between atoms: C_4  and  N_8
REMARK    3  A    between atoms: C_10  and  C_28
REMARK    4  A    between atoms: C_12  and  C_26
REMARK    5  A    between atoms: C_13  and  O_15
REMARK    6  A    between atoms: O_15  and  C_16
REMARK    7  A    between atoms: C_16  and  C_18
REMARK    8  A    between atoms: C_16  and  C_19
REMARK                            x       y       z     vdW  Elec       q    Type
REMARK                         _______ _______ _______ _____ _____    ______ ____
ROOT
ATOM      1  N   UNL     1      -0.227  -3.279   1.557  0.00  0.00    -0.283 N 
ATOM      2  C   UNL     1       0.046  -3.133   2.908  0.00  0.00    +0.149 A 
ATOM      3  C   UNL     1       0.347  -4.256   3.683  0.00  0.00    +0.080 A 
ATOM      4  N   UNL     1       0.606  -4.124   4.966  0.00  0.00    -0.233 NA
ATOM      5  C   UNL     1       0.583  -2.917   5.531  0.00  0.00    +0.202 A 
ATOM      6  C   UNL     1       0.281  -1.788   4.754  0.00  0.00    +0.254 A 
ATOM      7  N   UNL     1       0.026  -1.926   3.462  0.00  0.00    -0.194 NA
ATOM      8  C   UNL     1       0.374  -5.622   3.048  0.00  0.00    +0.069 C 
ATOM      9  H   UNL     1      -0.130  -4.146   1.133  0.00  0.00    +0.155 HD
ENDROOT
BRANCH   1  13
ATOM     10  C   UNL     1      -1.785   1.290   0.294  0.00  0.00    +0.067 C 
ATOM     11  C   UNL     1      -1.336  -0.146   0.211  0.00  0.00    +0.062 A 
ATOM     12  C   UNL     1      -0.987  -0.956   1.295  0.00  0.00    +0.068 A 
ATOM     13  C   UNL     1      -0.640  -2.180   0.807  0.00  0.00    +0.120 A 
ATOM     14  N   UNL     1      -0.770  -2.131  -0.544  0.00  0.00    -0.264 N 
ATOM     15  N   UNL     1      -1.212  -0.847  -0.886  0.00  0.00    -0.178 NA
ATOM     16  H   UNL     1      -0.591  -2.858  -1.161  0.00  0.00    +0.190 HD
ENDBRANCH   1  13
BRANCH   5  17
ATOM     17  C   UNL     1       0.865  -2.772   6.928  0.00  0.00    +0.125 C 
ATOM     18  N   UNL     1       1.088  -2.658   8.036  0.00  0.00    -0.189 NA
ENDBRANCH   5  17
BRANCH   6  19
ATOM     19  O   UNL     1       0.257  -0.559   5.324  0.00  0.00    -0.465 OA
BRANCH  19  20
ATOM     20  C   UNL     1       0.007   0.552   4.459  0.00  0.00    +0.220 C 
ATOM     21  C   UNL     1      -1.502   0.740   4.294  0.00  0.00    +0.059 C 
BRANCH  20  22
ATOM     22  C   UNL     1       0.606   1.798   5.057  0.00  0.00    +0.081 A 
ATOM     23  C   UNL     1       1.363   1.707   6.211  0.00  0.00    +0.030 A 
ATOM     24  C   UNL     1       1.910   2.859   6.754  0.00  0.00    +0.042 A 
ATOM     25  C   UNL     1       1.674   4.067   6.112  0.00  0.00    +0.141 A 
ATOM     26  C   UNL     1       0.907   4.080   4.960  0.00  0.00    +0.149 A 
ATOM     27  N   UNL     1       0.407   2.962   4.471  0.00  0.00    -0.253 NA
ATOM     28  F   UNL     1       2.188   5.216   6.606  0.00  0.00    -0.204 F 
ENDBRANCH  20  22
ENDBRANCH  19  20
ENDBRANCH   6  19
TORSDOF 5
