REMARK  Name = CHEMBL391096
REMARK  5 active torsions:
REMARK  status: ('A' for Active; 'I' for Inactive)
REMARK    1  A    between atoms: C_1  and  C_2
REMARK    2  A    between atoms: C_2  and  C_4
REMARK    3  A    between atoms: C_2  and  N_10
REMARK    4  A    between atoms: C_14  and  C_30
REMARK    5  A    between atoms: N_15  and  C_29
REMARK                            x       y       z     vdW  Elec       q    Type
REMARK                         _______ _______ _______ _____ _____    ______ ____
ROOT
ATOM      1  N   UNL     1       0.085  -2.224   1.228  0.00  0.00    -0.322 N 
ATOM      2  C   UNL     1      -0.363  -1.734   2.438  0.00  0.00    +0.134 A 
ATOM      3  C   UNL     1       0.500  -1.663   3.551  0.00  0.00    +0.059 A 
ATOM      4  C   UNL     1       1.851  -2.001   3.775  0.00  0.00    +0.046 A 
ATOM      5  C   UNL     1       2.140  -1.704   5.071  0.00  0.00    +0.107 A 
ATOM      6  N   UNL     1       1.007  -1.187   5.679  0.00  0.00    -0.324 N 
ATOM      7  C   UNL     1      -0.008  -1.154   4.764  0.00  0.00    +0.148 A 
ATOM      8  N   UNL     1      -1.279  -0.761   4.811  0.00  0.00    -0.194 NA
ATOM      9  C   UNL     1      -2.051  -0.845   3.742  0.00  0.00    +0.240 A 
ATOM     10  N   UNL     1      -1.614  -1.313   2.580  0.00  0.00    -0.196 NA
ATOM     11  N   UNL     1      -3.373  -0.423   3.837  0.00  0.00    -0.267 N 
ATOM     12  C   UNL     1      -3.981   0.092   4.945  0.00  0.00    +0.182 A 
ATOM     13  N   UNL     1      -5.222   0.383   4.679  0.00  0.00    -0.345 N 
ATOM     14  C   UNL     1      -5.498   0.077   3.390  0.00  0.00    +0.067 A 
ATOM     15  C   UNL     1      -4.315  -0.440   2.825  0.00  0.00    +0.092 A 
ATOM     16  C   UNL     1      -4.320  -0.832   1.497  0.00  0.00    +0.139 A 
ATOM     17  N   UNL     1      -5.418  -0.717   0.776  0.00  0.00    -0.261 NA
ATOM     18  C   UNL     1      -6.544  -0.233   1.274  0.00  0.00    +0.113 A 
ATOM     19  C   UNL     1      -6.632   0.171   2.577  0.00  0.00    +0.047 A 
ATOM     20  C   UNL     1       0.912  -0.748   7.073  0.00  0.00    +0.151 C 
ATOM     21  H   UNL     1       1.001  -2.529   1.137  0.00  0.00    +0.148 HD
ATOM     22  H   UNL     1      -5.854   0.761   5.311  0.00  0.00    +0.167 HD
ENDROOT
BRANCH   5  23
ATOM     23  C   UNL     1       3.441  -1.901   5.721  0.00  0.00    +0.263 C 
ATOM     24  O   UNL     1       3.502  -2.048   6.928  0.00  0.00    -0.268 OA
ATOM     25  N   UNL     1       4.567  -1.918   4.982  0.00  0.00    -0.292 N 
ATOM     26  C   UNL     1       4.539  -1.581   3.550  0.00  0.00    +0.136 C 
ATOM     27  C   UNL     1       5.623  -0.531   3.279  0.00  0.00    +0.179 C 
ATOM     28  O   UNL     1       6.871  -0.999   3.796  0.00  0.00    -0.377 OA
ATOM     29  C   UNL     1       6.882  -1.191   5.213  0.00  0.00    +0.179 C 
ATOM     30  C   UNL     1       5.863  -2.269   5.584  0.00  0.00    +0.136 C 
ENDBRANCH   5  23
BRANCH   1  32
ATOM     31  C   UNL     1      -0.832  -0.933  -0.636  0.00  0.00    +0.033 C 
ATOM     32  C   UNL     1      -0.825  -2.285   0.081  0.00  0.00    +0.099 C 
BRANCH  32  33
ATOM     33  C   UNL     1      -0.361  -3.356  -0.872  0.00  0.00    -0.028 A 
ATOM     34  C   UNL     1       0.989  -3.525  -1.118  0.00  0.00    +0.005 A 
ATOM     35  C   UNL     1       1.414  -4.508  -1.992  0.00  0.00    +0.000 A 
ATOM     36  C   UNL     1       0.490  -5.322  -2.619  0.00  0.00    +0.000 A 
ATOM     37  C   UNL     1      -0.860  -5.154  -2.372  0.00  0.00    +0.000 A 
ATOM     38  C   UNL     1      -1.285  -4.174  -1.495  0.00  0.00    +0.005 A 
ENDBRANCH  32  33
ENDBRANCH   1  32
TORSDOF 3
