REMARK  Name = CHEMBL1092925
REMARK  5 active torsions:
REMARK  status: ('A' for Active; 'I' for Inactive)
REMARK    1  A    between atoms: C_1  and  N_2
REMARK    2  A    between atoms: C_11  and  C_14
REMARK    3  A    between atoms: C_21  and  C_24
REMARK    4  A    between atoms: C_27  and  C_31
REMARK    5  A    between atoms: C_31  and  N_32
REMARK                            x       y       z     vdW  Elec       q    Type
REMARK                         _______ _______ _______ _____ _____    ______ ____
ROOT
ATOM      1  C   UNL     1      -2.244  -6.903   3.946  0.00  0.00    +0.091 A 
ATOM      2  C   UNL     1      -3.455  -7.562   3.664  0.00  0.00    +0.139 A 
ATOM      3  N   UNL     1      -3.858  -8.564   4.408  0.00  0.00    -0.251 NA
ATOM      4  C   UNL     1      -3.114  -8.966   5.446  0.00  0.00    +0.090 A 
ATOM      5  C   UNL     1      -3.526 -10.037   6.257  0.00  0.00    +0.030 A 
ATOM      6  C   UNL     1      -2.758 -10.434   7.309  0.00  0.00    +0.003 A 
ATOM      7  C   UNL     1      -1.558  -9.796   7.605  0.00  0.00    +0.011 A 
ATOM      8  C   UNL     1      -1.114  -8.737   6.833  0.00  0.00    +0.010 A 
ATOM      9  C   UNL     1      -1.894  -8.304   5.733  0.00  0.00    +0.098 A 
ATOM     10  N   UNL     1      -1.493  -7.290   4.965  0.00  0.00    -0.243 NA
ENDROOT
BRANCH   1  21
ATOM     11  C   UNL     1       0.294   1.447   0.173  0.00  0.00    +0.105 C 
ATOM     12  N   UNL     1       0.160  -0.013   0.085  0.00  0.00    -0.302 NA
ATOM     13  C   UNL     1      -1.250  -0.418   0.155  0.00  0.00    +0.103 C 
ATOM     14  C   UNL     1      -1.361  -1.921  -0.121  0.00  0.00    +0.122 C 
ATOM     15  N   UNL     1      -0.463  -2.633   0.801  0.00  0.00    -0.313 N 
ATOM     16  C   UNL     1       0.938  -2.192   0.887  0.00  0.00    +0.122 C 
ATOM     17  C   UNL     1       0.958  -0.678   1.123  0.00  0.00    +0.103 C 
ATOM     18  C   UNL     1      -0.924  -3.693   1.569  0.00  0.00    +0.121 A 
ATOM     19  C   UNL     1      -2.183  -4.232   1.310  0.00  0.00    +0.044 A 
ATOM     20  C   UNL     1      -2.635  -5.285   2.078  0.00  0.00    +0.015 A 
ATOM     21  C   UNL     1      -1.804  -5.774   3.094  0.00  0.00    +0.020 A 
ATOM     22  C   UNL     1      -0.558  -5.183   3.293  0.00  0.00    +0.123 A 
ATOM     23  N   UNL     1      -0.161  -4.182   2.534  0.00  0.00    -0.240 NA
ENDBRANCH   1  21
BRANCH   8  24
ATOM     24  C   UNL     1       0.164  -8.062   7.155  0.00  0.00    -0.010 A 
ATOM     25  C   UNL     1       1.113  -7.847   6.156  0.00  0.00    +0.047 A 
ATOM     26  C   UNL     1       2.304  -7.216   6.462  0.00  0.00    +0.131 A 
ATOM     27  C   UNL     1       2.557  -6.798   7.758  0.00  0.00    +0.037 A 
ATOM     28  C   UNL     1       1.618  -7.010   8.754  0.00  0.00    +0.131 A 
ATOM     29  C   UNL     1       0.421  -7.634   8.458  0.00  0.00    +0.047 A 
ATOM     30  F   UNL     1       1.870  -6.600  10.017  0.00  0.00    -0.205 F 
ATOM     31  F   UNL     1       3.224  -7.008   5.495  0.00  0.00    -0.205 F 
BRANCH  27  32
ATOM     32  C   UNL     1       3.858  -6.112   8.086  0.00  0.00    +0.125 C 
BRANCH  32  33
ATOM     33  N   UNL     1       3.704  -4.661   7.909  0.00  0.00    -0.295 NA
ATOM     34  C   UNL     1       3.430  -4.329   6.508  0.00  0.00    +0.107 C 
ATOM     35  C   UNL     1       2.850  -2.915   6.412  0.00  0.00    +0.181 C 
ATOM     36  S   UNL     1       4.088  -1.738   7.037  0.00  0.00    -0.029 S 
ATOM     37  O   UNL     1       3.453  -0.486   7.257  0.00  0.00    -0.174 OA
ATOM     38  O   UNL     1       5.232  -1.796   6.196  0.00  0.00    -0.174 OA
ATOM     39  C   UNL     1       4.510  -2.466   8.649  0.00  0.00    +0.181 C 
ATOM     40  C   UNL     1       4.864  -3.942   8.440  0.00  0.00    +0.107 C 
ENDBRANCH  32  33
ENDBRANCH  27  32
ENDBRANCH   8  24
TORSDOF 4
