REMARK  Name = CHEMBL381283
REMARK  3 active torsions:
REMARK  status: ('A' for Active; 'I' for Inactive)
REMARK    1  A    between atoms: C_6  and  N_7
REMARK    2  A    between atoms: C_14  and  C_17
REMARK    3  A    between atoms: C_18  and  N_28
REMARK                            x       y       z     vdW  Elec       q    Type
REMARK                         _______ _______ _______ _____ _____    ______ ____
ROOT
ATOM      1  C   UNL     1      -0.158   2.047   0.148  0.00  0.00    +0.025 A 
ATOM      2  C   UNL     1       1.108   2.591   0.095  0.00  0.00    +0.029 A 
ATOM      3  C   UNL     1       2.218   1.761   0.081  0.00  0.00    +0.067 A 
ATOM      4  C   UNL     1       2.054   0.365   0.122  0.00  0.00    +0.091 A 
ATOM      5  C   UNL     1       0.767  -0.176   0.176  0.00  0.00    +0.053 A 
ATOM      6  C   UNL     1      -0.331   0.665   0.189  0.00  0.00    +0.032 A 
ATOM      7  N   UNL     1       3.293  -0.186   0.096  0.00  0.00    -0.227 NA
ATOM      8  C   UNL     1       4.199   0.764   0.044  0.00  0.00    +0.146 A 
ATOM      9  N   UNL     1       3.584   1.988   0.032  0.00  0.00    -0.338 N 
ATOM     10  H   UNL     1       4.023   2.853  -0.004  0.00  0.00    +0.167 HD
ENDROOT
BRANCH   8  11
ATOM     11  C   UNL     1       5.654   0.546   0.004  0.00  0.00    +0.103 A 
ATOM     12  C   UNL     1       6.168  -0.749  -0.106  0.00  0.00    +0.051 A 
ATOM     13  C   UNL     1       7.626  -0.910  -0.142  0.00  0.00    +0.038 A 
ATOM     14  C   UNL     1       8.223  -2.166  -0.250  0.00  0.00    +0.122 A 
ATOM     15  N   UNL     1       9.536  -2.271  -0.279  0.00  0.00    -0.262 NA
ATOM     16  C   UNL     1      10.330  -1.215  -0.209  0.00  0.00    +0.113 A 
ATOM     17  C   UNL     1       9.824   0.062  -0.100  0.00  0.00    +0.046 A 
ATOM     18  C   UNL     1       8.442   0.236  -0.064  0.00  0.00    +0.054 A 
ATOM     19  N   UNL     1       7.874   1.484   0.042  0.00  0.00    -0.321 N 
ATOM     20  C   UNL     1       6.540   1.648   0.070  0.00  0.00    +0.262 A 
ATOM     21  O   UNL     1       6.082   2.773   0.161  0.00  0.00    -0.267 OA
ATOM     22  H   UNL     1       8.449   2.263   0.095  0.00  0.00    +0.169 HD
BRANCH  12  23
ATOM     23  N   UNL     1       5.333  -1.837  -0.178  0.00  0.00    -0.357 N 
ATOM     24  H   UNL     1       4.373  -1.710  -0.235  0.00  0.00    +0.142 HD
ATOM     25  H   UNL     1       5.704  -2.734  -0.172  0.00  0.00    +0.142 HD
ENDBRANCH  12  23
ENDBRANCH   8  11
BRANCH   6  26
ATOM     26  N   UNL     1      -1.621   0.126   0.242  0.00  0.00    -0.325 N 
ATOM     27  C   UNL     1      -2.800   0.995   0.382  0.00  0.00    +0.133 C 
ATOM     28  C   UNL     1      -3.814   0.611  -0.702  0.00  0.00    +0.178 C 
ATOM     29  O   UNL     1      -4.053  -0.797  -0.645  0.00  0.00    -0.377 OA
ATOM     30  C   UNL     1      -2.899  -1.598  -0.911  0.00  0.00    +0.178 C 
ATOM     31  C   UNL     1      -1.838  -1.327   0.156  0.00  0.00    +0.133 C 
ENDBRANCH   6  26
TORSDOF 3
