REMARK  Name = CHEMBL147112
REMARK  8 active torsions:
REMARK  status: ('A' for Active; 'I' for Inactive)
REMARK    1  A    between atoms: C_1  and  C_2
REMARK    2  A    between atoms: C_3  and  C_27
REMARK    3  A    between atoms: C_7  and  C_8
REMARK    4  A    between atoms: C_13  and  C_19
REMARK    5  A    between atoms: C_24  and  O_25
REMARK    6  A    between atoms: O_25  and  C_26
REMARK    7  A    between atoms: C_27  and  C_28
REMARK    8  A    between atoms: C_28  and  C_29
REMARK                            x       y       z     vdW  Elec       q    Type
REMARK                         _______ _______ _______ _____ _____    ______ ____
ROOT
ATOM      1  C   UNL     1       0.032  -0.424   2.461  0.00  0.00    +0.039 C 
ATOM      2  C   UNL     1      -0.050  -1.365   3.470  0.00  0.00    +0.048 C 
ATOM      3  C   UNL     1      -0.164  -1.117   4.924  0.00  0.00    +0.008 A 
ATOM      4  C   UNL     1      -0.223   0.045   5.690  0.00  0.00    +0.011 A 
ATOM      5  C   UNL     1      -0.331  -0.041   7.060  0.00  0.00    +0.009 A 
ATOM      6  C   UNL     1      -0.382  -1.292   7.679  0.00  0.00    -0.013 A 
ATOM      7  C   UNL     1      -0.324  -2.456   6.918  0.00  0.00    +0.032 A 
ATOM      8  C   UNL     1      -0.215  -2.378   5.537  0.00  0.00    +0.042 A 
ATOM      9  N   UNL     1      -0.140  -3.363   4.559  0.00  0.00    -0.281 N 
ATOM     10  C   UNL     1      -0.048  -2.827   3.330  0.00  0.00    +0.249 C 
ATOM     11  O   UNL     1       0.027  -3.445   2.284  0.00  0.00    -0.270 OA
ATOM     12  H   UNL     1      -0.155  -4.316   4.740  0.00  0.00    +0.155 HD
ENDROOT
BRANCH   1  19
ATOM     13  C   UNL     1      -1.118   0.964  -0.083  0.00  0.00    +0.046 C 
ATOM     14  C   UNL     1      -0.211  -0.237  -0.015  0.00  0.00    -0.023 A 
ATOM     15  C   UNL     1       0.294  -0.958  -1.099  0.00  0.00    -0.026 A 
ATOM     16  C   UNL     1       1.067  -1.960  -0.611  0.00  0.00    +0.087 A 
ATOM     17  N   UNL     1       1.067  -1.897   0.745  0.00  0.00    -0.361 N 
ATOM     18  H   UNL     1       1.542  -2.499   1.340  0.00  0.00    +0.165 HD
ATOM     19  C   UNL     1       0.284  -0.832   1.135  0.00  0.00    +0.043 A 
BRANCH  15  20
ATOM     20  C   UNL     1       0.028  -0.673  -2.554  0.00  0.00    +0.048 C 
BRANCH  20  21
ATOM     21  C   UNL     1       1.012   0.386  -3.055  0.00  0.00    +0.130 C 
BRANCH  21  22
ATOM     22  C   UNL     1       0.746   0.671  -4.510  0.00  0.00    +0.356 C 
ATOM     23  O   UNL     1      -0.148   0.082  -5.093  0.00  0.00    -0.246 OA
ATOM     24  O   UNL     1       1.425   1.491  -5.105  0.00  0.00    -0.246 OA
ENDBRANCH  21  22
ENDBRANCH  20  21
ENDBRANCH  15  20
ENDBRANCH   1  19
BRANCH   6  25
ATOM     25  C   UNL     1      -0.499  -1.380   9.154  0.00  0.00    +0.024 A 
ATOM     26  C   UNL     1      -1.468  -2.198   9.732  0.00  0.00    +0.012 A 
ATOM     27  C   UNL     1      -1.573  -2.277  11.106  0.00  0.00    +0.001 A 
ATOM     28  C   UNL     1      -0.718  -1.547  11.913  0.00  0.00    +0.004 A 
ATOM     29  C   UNL     1       0.247  -0.733  11.351  0.00  0.00    +0.046 A 
ATOM     30  C   UNL     1       0.367  -0.648   9.973  0.00  0.00    +0.128 A 
BRANCH  30  31
ATOM     31  O   UNL     1       1.318   0.147   9.419  0.00  0.00    -0.495 OA
ATOM     32  C   UNL     1       2.167   0.866  10.317  0.00  0.00    +0.277 C 
ENDBRANCH  30  31
ENDBRANCH   6  25
TORSDOF 6
