REMARK  Name = CHEMBL526285
REMARK  4 active torsions:
REMARK  status: ('A' for Active; 'I' for Inactive)
REMARK    1  A    between atoms: C_7  and  N_23
REMARK    2  A    between atoms: C_8  and  C_13
REMARK    3  A    between atoms: N_23  and  C_24
REMARK    4  A    between atoms: C_24  and  C_25
REMARK                            x       y       z     vdW  Elec       q    Type
REMARK                         _______ _______ _______ _____ _____    ______ ____
ROOT
ATOM      1  C   UNL     1       0.038   1.557   0.109  0.00  0.00    +0.001 A 
ATOM      2  C   UNL     1       1.252   2.228   0.059  0.00  0.00    +0.002 A 
ATOM      3  C   UNL     1       2.437   1.530  -0.034  0.00  0.00    +0.026 A 
ATOM      4  C   UNL     1       2.420   0.140  -0.077  0.00  0.00    +0.051 A 
ATOM      5  C   UNL     1       1.187  -0.535  -0.025  0.00  0.00    +0.020 A 
ATOM      6  C   UNL     1      -0.003   0.192   0.068  0.00  0.00    +0.012 A 
ATOM      7  C   UNL     1       1.175  -2.003  -0.071  0.00  0.00    +0.052 A 
ATOM      8  C   UNL     1       2.400  -2.668  -0.165  0.00  0.00    +0.103 A 
ATOM      9  C   UNL     1       3.600  -1.920  -0.212  0.00  0.00    +0.262 A 
ATOM     10  O   UNL     1       4.664  -2.508  -0.294  0.00  0.00    -0.267 OA
ATOM     11  N   UNL     1       3.596  -0.577  -0.169  0.00  0.00    -0.321 N 
ATOM     12  H   UNL     1       4.439  -0.100  -0.204  0.00  0.00    +0.169 HD
ENDROOT
BRANCH   8  13
ATOM     13  C   UNL     1       2.442  -4.139  -0.214  0.00  0.00    +0.146 A 
ATOM     14  N   UNL     1       3.583  -4.897  -0.192  0.00  0.00    -0.338 N 
ATOM     15  H   UNL     1       4.494  -4.565  -0.142  0.00  0.00    +0.167 HD
ATOM     16  C   UNL     1       3.195  -6.223  -0.254  0.00  0.00    +0.066 A 
ATOM     17  C   UNL     1       3.885  -7.426  -0.266  0.00  0.00    +0.028 A 
ATOM     18  C   UNL     1       3.189  -8.616  -0.336  0.00  0.00    +0.002 A 
ATOM     19  C   UNL     1       1.803  -8.618  -0.395  0.00  0.00    +0.002 A 
ATOM     20  C   UNL     1       1.101  -7.434  -0.384  0.00  0.00    +0.030 A 
ATOM     21  C   UNL     1       1.790  -6.219  -0.313  0.00  0.00    +0.089 A 
ATOM     22  N   UNL     1       1.391  -4.923  -0.279  0.00  0.00    -0.227 NA
ENDBRANCH   8  13
BRANCH   7  23
ATOM     23  N   UNL     1      -0.006  -2.702  -0.023  0.00  0.00    -0.342 N 
ATOM     24  H   UNL     1      -0.268  -3.265  -0.769  0.00  0.00    +0.146 HD
BRANCH  23  25
ATOM     25  C   UNL     1      -0.871  -2.598   1.155  0.00  0.00    +0.105 C 
BRANCH  25  26
ATOM     26  C   UNL     1      -2.049  -3.563   1.009  0.00  0.00    +0.003 C 
ATOM     27  C   UNL     1      -2.932  -3.121  -0.162  0.00  0.00    -0.014 C 
ATOM     28  C   UNL     1      -4.150  -4.043  -0.252  0.00  0.00    -0.082 C 
ATOM     29  N   UNL     1      -4.918  -3.970   0.997  0.00  0.00    +0.379 N 
ATOM     30  C   UNL     1      -4.101  -4.460   2.114  0.00  0.00    -0.082 C 
ATOM     31  C   UNL     1      -2.881  -3.554   2.295  0.00  0.00    -0.014 C 
ATOM     32  H   UNL     1      -5.183  -3.012   1.171  0.00  0.00    -0.086 HD
ATOM     33  H   UNL     1      -5.747  -4.537   0.914  0.00  0.00    -0.086 HD
ENDBRANCH  25  26
ENDBRANCH  23  25
ENDBRANCH   7  23
TORSDOF 4
