REMARK  Name = CHEMBL495530
REMARK  6 active torsions:
REMARK  status: ('A' for Active; 'I' for Inactive)
REMARK    1  A    between atoms: C_1  and  N_2
REMARK    2  A    between atoms: N_5  and  C_8
REMARK    3  A    between atoms: C_15  and  C_18
REMARK    4  A    between atoms: C_19  and  N_39
REMARK    5  A    between atoms: C_22  and  N_30
REMARK    6  A    between atoms: C_31  and  C_33
REMARK                            x       y       z     vdW  Elec       q    Type
REMARK                         _______ _______ _______ _____ _____    ______ ____
ROOT
ATOM      1  C   UNL     1      -0.604  -7.947   6.267  0.00  0.00    +0.103 A 
ATOM      2  C   UNL     1       0.664  -7.804   6.833  0.00  0.00    +0.050 A 
ATOM      3  C   UNL     1       1.032  -8.693   7.943  0.00  0.00    +0.022 A 
ATOM      4  C   UNL     1       2.286  -8.601   8.552  0.00  0.00    +0.035 A 
ATOM      5  C   UNL     1       2.602  -9.451   9.595  0.00  0.00    +0.034 A 
ATOM      6  C   UNL     1       1.676 -10.395  10.037  0.00  0.00    +0.025 A 
ATOM      7  C   UNL     1       0.438 -10.493   9.442  0.00  0.00    +0.028 A 
ATOM      8  C   UNL     1       0.100  -9.646   8.391  0.00  0.00    +0.051 A 
ATOM      9  N   UNL     1      -1.140  -9.736   7.787  0.00  0.00    -0.321 N 
ATOM     10  H   UNL     1      -1.774 -10.397   8.105  0.00  0.00    +0.169 HD
ATOM     11  C   UNL     1      -1.490  -8.926   6.775  0.00  0.00    +0.262 A 
ATOM     12  O   UNL     1      -2.598  -9.040   6.279  0.00  0.00    -0.267 OA
ENDROOT
BRANCH   1  20
ATOM     13  C   UNL     1      -1.573  -4.144   1.743  0.00  0.00    +0.032 A 
ATOM     14  C   UNL     1      -2.863  -4.671   1.769  0.00  0.00    +0.025 A 
ATOM     15  C   UNL     1      -3.199  -5.647   2.683  0.00  0.00    +0.029 A 
ATOM     16  C   UNL     1      -2.250  -6.109   3.583  0.00  0.00    +0.067 A 
ATOM     17  C   UNL     1      -0.947  -5.583   3.565  0.00  0.00    +0.091 A 
ATOM     18  C   UNL     1      -0.615  -4.597   2.630  0.00  0.00    +0.053 A 
ATOM     19  N   UNL     1      -0.245  -6.211   4.541  0.00  0.00    -0.227 NA
ATOM     20  C   UNL     1      -1.019  -7.079   5.152  0.00  0.00    +0.146 A 
ATOM     21  N   UNL     1      -2.271  -7.054   4.596  0.00  0.00    -0.338 N 
ATOM     22  H   UNL     1      -3.030  -7.596   4.862  0.00  0.00    +0.167 HD
BRANCH  13  27
ATOM     23  C   UNL     1      -1.088   0.836  -0.444  0.00  0.00    -0.096 C 
ATOM     24  N   UNL     1      -0.974  -0.626  -0.352  0.00  0.00    +0.380 N 
ATOM     25  C   UNL     1      -2.313  -1.211  -0.204  0.00  0.00    -0.060 C 
ATOM     26  C   UNL     1      -2.206  -2.740  -0.224  0.00  0.00    +0.086 C 
ATOM     27  N   UNL     1      -1.245  -3.153   0.810  0.00  0.00    -0.333 N 
ATOM     28  C   UNL     1       0.071  -2.496   0.837  0.00  0.00    +0.086 C 
ATOM     29  C   UNL     1      -0.143  -0.979   0.806  0.00  0.00    -0.060 C 
ATOM     30  H   UNL     1      -0.545  -0.982  -1.193  0.00  0.00    -0.082 HD
ENDBRANCH  13  27
ENDBRANCH   1  20
BRANCH   5  31
ATOM     31  N   UNL     1       3.857  -9.364  10.210  0.00  0.00    -0.281 N 
ATOM     32  C   UNL     1       3.975  -9.586  11.534  0.00  0.00    +0.248 C 
ATOM     33  O   UNL     1       3.007  -9.936  12.181  0.00  0.00    -0.270 OA
ATOM     34  H   UNL     1       4.641  -9.145   9.683  0.00  0.00    +0.155 HD
BRANCH  32  35
ATOM     35  C   UNL     1       5.282  -9.402  12.201  0.00  0.00    +0.037 A 
ATOM     36  C   UNL     1       6.394  -8.995  11.462  0.00  0.00    +0.013 A 
ATOM     37  C   UNL     1       7.611  -8.825  12.090  0.00  0.00    +0.001 A 
ATOM     38  C   UNL     1       7.730  -9.058  13.449  0.00  0.00    +0.000 A 
ATOM     39  C   UNL     1       6.632  -9.463  14.187  0.00  0.00    +0.001 A 
ATOM     40  C   UNL     1       5.408  -9.630  13.572  0.00  0.00    +0.013 A 
ENDBRANCH  32  35
ENDBRANCH   5  31
BRANCH   2  41
ATOM     41  N   UNL     1       1.545  -6.859   6.364  0.00  0.00    -0.357 N 
ATOM     42  H   UNL     1       1.262  -6.228   5.684  0.00  0.00    +0.142 HD
ATOM     43  H   UNL     1       2.449  -6.824   6.713  0.00  0.00    +0.142 HD
ENDBRANCH   2  41
TORSDOF 5
