REMARK  Name = CHEMBL296540
REMARK  6 active torsions:
REMARK  status: ('A' for Active; 'I' for Inactive)
REMARK    1  A    between atoms: C_1  and  N_2
REMARK    2  A    between atoms: C_6  and  C_9
REMARK    3  A    between atoms: C_11  and  O_17
REMARK    4  A    between atoms: C_13  and  O_15
REMARK    5  A    between atoms: O_15  and  C_16
REMARK    6  A    between atoms: O_17  and  C_18
REMARK                            x       y       z     vdW  Elec       q    Type
REMARK                         _______ _______ _______ _____ _____    ______ ____
ROOT
ATOM      1  C   UNL     1      -0.018   1.461   0.010  0.00  0.00    +0.154 C 
ATOM      2  N   UNL     1       0.002  -0.004   0.002  0.00  0.00    -0.295 N 
ATOM      3  C   UNL     1      -1.181  -0.699   0.004  0.00  0.00    +0.148 A 
ATOM      4  C   UNL     1      -1.179  -2.111  -0.004  0.00  0.00    +0.037 A 
ATOM      5  C   UNL     1       0.043  -2.821  -0.014  0.00  0.00    +0.027 A 
ATOM      6  C   UNL     1       1.218  -2.119  -0.016  0.00  0.00    +0.048 A 
ATOM      7  C   UNL     1       1.181  -0.655  -0.013  0.00  0.00    +0.260 A 
ATOM      8  O   UNL     1       2.222  -0.022  -0.019  0.00  0.00    -0.267 OA
ATOM      9  C   UNL     1      -2.410  -2.783  -0.003  0.00  0.00    +0.126 A 
ATOM     10  N   UNL     1      -3.520  -2.069   0.007  0.00  0.00    -0.222 NA
ATOM     11  C   UNL     1      -3.483  -0.741   0.014  0.00  0.00    +0.214 A 
ATOM     12  N   UNL     1      -2.346  -0.062   0.013  0.00  0.00    -0.197 NA
ATOM     13  N   UNL     1      -4.675  -0.043   0.023  0.00  0.00    -0.327 N 
ATOM     14  H   UNL     1      -5.518  -0.522   0.024  0.00  0.00    +0.145 HD
ATOM     15  H   UNL     1      -4.668   0.927   0.029  0.00  0.00    +0.145 HD
ENDROOT
BRANCH   6  16
ATOM     16  C   UNL     1       2.516  -2.833  -0.027  0.00  0.00    -0.006 A 
ATOM     17  C   UNL     1       3.377  -2.735   1.065  0.00  0.00    +0.054 A 
ATOM     18  C   UNL     1       4.589  -3.405   1.052  0.00  0.00    +0.124 A 
ATOM     19  C   UNL     1       4.948  -4.173  -0.046  0.00  0.00    +0.091 A 
ATOM     20  C   UNL     1       4.093  -4.273  -1.135  0.00  0.00    +0.124 A 
ATOM     21  C   UNL     1       2.877  -3.611  -1.126  0.00  0.00    +0.054 A 
BRANCH  20  22
ATOM     22  O   UNL     1       4.449  -5.027  -2.209  0.00  0.00    -0.495 OA
ATOM     23  C   UNL     1       5.715  -5.687  -2.148  0.00  0.00    +0.277 C 
ENDBRANCH  20  22
BRANCH  18  24
ATOM     24  O   UNL     1       5.429  -3.309   2.117  0.00  0.00    -0.495 OA
ATOM     25  C   UNL     1       6.663  -4.026   2.036  0.00  0.00    +0.277 C 
ENDBRANCH  18  24
ENDBRANCH   6  16
TORSDOF 3
