REMARK  Name = CHEMBL377230
REMARK  4 active torsions:
REMARK  status: ('A' for Active; 'I' for Inactive)
REMARK    1  A    between atoms: C_6  and  C_7
REMARK    2  A    between atoms: C_14  and  C_15
REMARK    3  A    between atoms: C_21  and  N_25
REMARK    4  A    between atoms: C_28  and  N_31
REMARK                            x       y       z     vdW  Elec       q    Type
REMARK                         _______ _______ _______ _____ _____    ______ ____
ROOT
ATOM      1  C   UNL     1      -4.337   3.138   0.017  0.00  0.00    +0.160 A 
ATOM      2  N   UNL     1      -5.661   3.483   0.051  0.00  0.00    -0.337 N 
ATOM      3  H   UNL     1      -6.415   2.873   0.065  0.00  0.00    +0.167 HD
ATOM      4  C   UNL     1      -5.723   4.866   0.062  0.00  0.00    +0.067 A 
ATOM      5  C   UNL     1      -6.767   5.780   0.092  0.00  0.00    +0.029 A 
ATOM      6  C   UNL     1      -6.498   7.132   0.095  0.00  0.00    +0.025 A 
ATOM      7  C   UNL     1      -5.182   7.589   0.067  0.00  0.00    +0.032 A 
ATOM      8  C   UNL     1      -4.131   6.692   0.035  0.00  0.00    +0.053 A 
ATOM      9  C   UNL     1      -4.392   5.318   0.033  0.00  0.00    +0.091 A 
ATOM     10  N   UNL     1      -3.596   4.221   0.012  0.00  0.00    -0.226 NA
ENDROOT
BRANCH   1  20
ATOM     11  C   UNL     1      -0.018   1.385  -0.079  0.00  0.00    +0.013 A 
ATOM     12  C   UNL     1      -1.203   2.064  -0.051  0.00  0.00    +0.013 A 
ATOM     13  C   UNL     1      -2.407   1.358  -0.034  0.00  0.00    +0.030 A 
ATOM     14  C   UNL     1      -2.393  -0.049  -0.046  0.00  0.00    +0.067 A 
ATOM     15  C   UNL     1      -1.174  -0.721  -0.074  0.00  0.00    +0.040 A 
ATOM     16  C   UNL     1       0.001  -0.004  -0.090  0.00  0.00    +0.057 A 
ATOM     17  N   UNL     1      -3.702  -0.462  -0.024  0.00  0.00    -0.276 N 
ATOM     18  N   UNL     1      -4.540   0.657   0.001  0.00  0.00    -0.170 NA
ATOM     19  H   UNL     1      -3.999  -1.385  -0.026  0.00  0.00    +0.189 HD
ATOM     20  C   UNL     1      -3.820   1.756  -0.004  0.00  0.00    +0.135 A 
BRANCH  16  21
ATOM     21  C   UNL     1       1.319  -0.732  -0.127  0.00  0.00    +0.417 C 
ATOM     22  F   UNL     1       2.365   0.197  -0.144  0.00  0.00    -0.166 F 
ATOM     23  F   UNL     1       1.436  -1.544   1.007  0.00  0.00    -0.166 F 
ATOM     24  F   UNL     1       1.382  -1.526  -1.277  0.00  0.00    -0.166 F 
ENDBRANCH  16  21
ENDBRANCH   1  20
BRANCH   7  25
ATOM     25  N   UNL     1      -4.923   8.964   0.069  0.00  0.00    -0.330 N 
ATOM     26  C   UNL     1      -3.545   9.466   0.161  0.00  0.00    +0.103 C 
ATOM     27  C   UNL     1      -3.292  10.430  -1.002  0.00  0.00    +0.004 C 
ATOM     28  C   UNL     1      -4.362  11.524  -0.994  0.00  0.00    -0.066 C 
ATOM     29  C   UNL     1      -5.743  10.892  -1.182  0.00  0.00    +0.004 C 
ATOM     30  C   UNL     1      -6.023   9.933  -0.026  0.00  0.00    +0.103 C 
BRANCH  28  31
ATOM     31  N   UNL     1      -4.104  12.469  -2.089  0.00  0.00    +0.382 N 
ATOM     32  C   UNL     1      -2.776  13.070  -1.912  0.00  0.00    -0.078 C 
ATOM     33  C   UNL     1      -2.469  13.994  -3.092  0.00  0.00    -0.019 C 
ATOM     34  C   UNL     1      -3.526  15.099  -3.157  0.00  0.00    -0.004 C 
ATOM     35  C   UNL     1      -4.913  14.460  -3.267  0.00  0.00    -0.019 C 
ATOM     36  C   UNL     1      -5.130  13.518  -2.080  0.00  0.00    -0.078 C 
ATOM     37  H   UNL     1      -4.134  11.978  -2.970  0.00  0.00    -0.081 HD
ENDBRANCH  28  31
ENDBRANCH   7  25
TORSDOF 4
