REMARK  Name = CHEMBL370515
REMARK  9 active torsions:
REMARK  status: ('A' for Active; 'I' for Inactive)
REMARK    1  A    between atoms: C_1  and  C_2
REMARK    2  A    between atoms: C_4  and  C_7
REMARK    3  A    between atoms: C_11  and  C_12
REMARK    4  A    between atoms: C_12  and  C_13
REMARK    5  A    between atoms: C_12  and  C_14
REMARK    6  A    between atoms: N_19  and  C_20
REMARK    7  A    between atoms: C_22  and  C_28
REMARK    8  A    between atoms: N_30  and  O_31
REMARK    9  A    between atoms: O_31  and  C_32
REMARK                            x       y       z     vdW  Elec       q    Type
REMARK                         _______ _______ _______ _____ _____    ______ ____
ROOT
ATOM      1  C   UNL     1      -0.037  -3.075  -1.515  0.00  0.00    +0.063 A 
ATOM      2  C   UNL     1      -0.440  -2.861  -2.822  0.00  0.00    +0.126 A 
ATOM      3  N   UNL     1      -0.649  -4.049  -3.410  0.00  0.00    -0.234 N 
ATOM      4  C   UNL     1      -0.386  -5.054  -2.498  0.00  0.00    +0.109 A 
ATOM      5  C   UNL     1       0.002  -4.469  -1.313  0.00  0.00    -0.002 A 
ATOM      6  C   UNL     1      -0.544  -6.400  -2.913  0.00  0.00    +0.151 A 
ATOM      7  N   UNL     1      -0.936  -6.652  -4.150  0.00  0.00    -0.217 NA
ATOM      8  C   UNL     1      -1.185  -5.672  -5.017  0.00  0.00    +0.245 A 
ATOM      9  N   UNL     1      -1.059  -4.413  -4.702  0.00  0.00    -0.155 NA
ATOM     10  N   UNL     1      -0.293  -7.435  -2.035  0.00  0.00    -0.295 N 
ATOM     11  H   UNL     1      -0.096  -7.245  -1.105  0.00  0.00    +0.154 HD
ENDROOT
BRANCH  10  12
ATOM     12  C   UNL     1      -0.322  -8.760  -2.488  0.00  0.00    +0.069 A 
ATOM     13  C   UNL     1      -0.174  -9.033  -3.837  0.00  0.00    +0.042 A 
ATOM     14  C   UNL     1      -0.204 -10.355  -4.285  0.00  0.00    +0.076 A 
ATOM     15  C   UNL     1      -0.383 -11.396  -3.368  0.00  0.00    +0.138 A 
ATOM     16  C   UNL     1      -0.530 -11.113  -2.023  0.00  0.00    +0.079 A 
ATOM     17  C   UNL     1      -0.494  -9.802  -1.580  0.00  0.00    +0.147 A 
ATOM     18  F   UNL     1      -0.633  -9.532  -0.264  0.00  0.00    -0.203 F 
ATOM     19  F   UNL     1      -0.413 -12.677  -3.796  0.00  0.00    -0.205 F 
BRANCH  14  20
ATOM     20  C   UNL     1      -0.048 -10.654  -5.722  0.00  0.00    +0.270 C 
ATOM     21  O   UNL     1      -0.074 -11.806  -6.110  0.00  0.00    -0.268 OA
ATOM     22  N   UNL     1       0.125  -9.649  -6.604  0.00  0.00    -0.191 N 
ATOM     23  H   UNL     1       0.145  -8.730  -6.294  0.00  0.00    +0.183 HD
BRANCH  22  24
ATOM     24  O   UNL     1       0.275  -9.935  -7.982  0.00  0.00    -0.283 OA
ATOM     25  C   UNL     1       0.449  -8.777  -8.801  0.00  0.00    +0.226 C 
ENDBRANCH  22  24
ENDBRANCH  14  20
ENDBRANCH  10  12
BRANCH   1  29
ATOM     26  C   UNL     1       0.700   1.399   0.559  0.00  0.00    +0.091 C 
ATOM     27  C   UNL     1       0.621  -0.097   0.397  0.00  0.00    +0.169 A 
ATOM     28  N   UNL     1       0.258  -0.737  -0.716  0.00  0.00    -0.192 NA
ATOM     29  C   UNL     1       0.296  -2.037  -0.520  0.00  0.00    +0.260 A 
ATOM     30  O   UNL     1       0.692  -2.254   0.747  0.00  0.00    -0.333 OA
ATOM     31  N   UNL     1       0.901  -0.973   1.321  0.00  0.00    -0.061 NA
ENDBRANCH   1  29
BRANCH   5  32
ATOM     32  C   UNL     1       0.390  -5.183  -0.044  0.00  0.00    +0.016 C 
ATOM     33  C   UNL     1       1.821  -4.800   0.339  0.00  0.00    +0.012 C 
ATOM     34  C   UNL     1      -0.564  -4.778   1.081  0.00  0.00    +0.012 C 
ENDBRANCH   5  32
TORSDOF 5
