REMARK  Name = CHEMBL448154
REMARK  4 active torsions:
REMARK  status: ('A' for Active; 'I' for Inactive)
REMARK    1  A    between atoms: C_1  and  C_2
REMARK    2  A    between atoms: C_2  and  N_3
REMARK    3  A    between atoms: C_7  and  C_10
REMARK    4  A    between atoms: N_22  and  C_23
REMARK                            x       y       z     vdW  Elec       q    Type
REMARK                         _______ _______ _______ _____ _____    ______ ____
ROOT
ATOM      1  N   UNL     1      -1.276  -0.873   0.027  0.00  0.00    -0.292 N 
ATOM      2  C   UNL     1      -1.961  -0.893   1.215  0.00  0.00    +0.148 A 
ATOM      3  C   UNL     1      -3.354  -1.127   1.233  0.00  0.00    +0.037 A 
ATOM      4  C   UNL     1      -4.054  -1.341   0.024  0.00  0.00    +0.027 A 
ATOM      5  C   UNL     1      -3.362  -1.319  -1.157  0.00  0.00    +0.050 A 
ATOM      6  C   UNL     1      -1.920  -1.068  -1.141  0.00  0.00    +0.261 A 
ATOM      7  O   UNL     1      -1.297  -1.041  -2.187  0.00  0.00    -0.267 OA
ATOM      8  C   UNL     1      -4.016  -1.139   2.470  0.00  0.00    +0.126 A 
ATOM      9  N   UNL     1      -3.311  -0.933   3.566  0.00  0.00    -0.222 NA
ATOM     10  C   UNL     1      -2.002  -0.716   3.511  0.00  0.00    +0.221 A 
ATOM     11  N   UNL     1      -1.333  -0.695   2.369  0.00  0.00    -0.196 NA
ATOM     12  N   UNL     1      -1.312  -0.505   4.690  0.00  0.00    -0.283 N 
ATOM     13  H   UNL     1      -0.373  -0.264   4.666  0.00  0.00    +0.155 HD
ENDROOT
BRANCH   5  14
ATOM     14  C   UNL     1      -4.068  -1.540  -2.441  0.00  0.00    +0.024 A 
ATOM     15  C   UNL     1      -4.207  -2.832  -2.951  0.00  0.00    +0.050 A 
ATOM     16  C   UNL     1      -4.865  -3.031  -4.148  0.00  0.00    +0.021 A 
ATOM     17  C   UNL     1      -5.387  -1.954  -4.842  0.00  0.00    +0.003 A 
ATOM     18  C   UNL     1      -5.253  -0.671  -4.342  0.00  0.00    +0.021 A 
ATOM     19  C   UNL     1      -4.602  -0.458  -3.143  0.00  0.00    +0.050 A 
ATOM     20 CL   UNL     1      -4.441   1.151  -2.513  0.00  0.00    -0.083 Cl
ATOM     21 CL   UNL     1      -3.552  -4.185  -2.082  0.00  0.00    -0.083 Cl
ENDBRANCH   5  14
BRANCH  12  22
ATOM     22  C   UNL     1      -1.966  -0.638   5.914  0.00  0.00    +0.036 A 
ATOM     23  C   UNL     1      -2.931  -1.626   6.105  0.00  0.00    +0.041 A 
ATOM     24  C   UNL     1      -3.556  -1.724   7.331  0.00  0.00    +0.084 A 
ATOM     25  N   UNL     1      -3.250  -0.898   8.314  0.00  0.00    -0.367 N 
ATOM     26  C   UNL     1      -2.342   0.049   8.172  0.00  0.00    +0.084 A 
ATOM     27  C   UNL     1      -1.668   0.210   6.980  0.00  0.00    +0.041 A 
ATOM     28  H   UNL     1      -3.706  -0.990   9.166  0.00  0.00    +0.165 HD
ENDBRANCH  12  22
BRANCH   1  30
ATOM     29  C   UNL     1       0.432   0.875  -0.080  0.00  0.00    +0.027 C 
ATOM     30  C   UNL     1       0.168  -0.629   0.026  0.00  0.00    +0.123 C 
ENDBRANCH   1  30
TORSDOF 3
