REMARK  Name = CHEMBL495762
REMARK  4 active torsions:
REMARK  status: ('A' for Active; 'I' for Inactive)
REMARK    1  A    between atoms: C_1  and  N_2
REMARK    2  A    between atoms: N_5  and  C_8
REMARK    3  A    between atoms: C_15  and  C_18
REMARK    4  A    between atoms: C_19  and  N_31
REMARK                            x       y       z     vdW  Elec       q    Type
REMARK                         _______ _______ _______ _____ _____    ______ ____
ROOT
ATOM      1  C   UNL     1      -1.578  -2.354   3.502  0.00  0.00    +0.032 A 
ATOM      2  C   UNL     1      -2.928  -2.679   3.620  0.00  0.00    +0.025 A 
ATOM      3  C   UNL     1      -3.313  -3.842   4.253  0.00  0.00    +0.029 A 
ATOM      4  C   UNL     1      -2.353  -4.695   4.778  0.00  0.00    +0.067 A 
ATOM      5  C   UNL     1      -0.989  -4.375   4.664  0.00  0.00    +0.091 A 
ATOM      6  C   UNL     1      -0.610  -3.196   4.016  0.00  0.00    +0.053 A 
ATOM      7  N   UNL     1      -0.291  -5.375   5.259  0.00  0.00    -0.227 NA
ATOM      8  C   UNL     1      -1.123  -6.278   5.726  0.00  0.00    +0.146 A 
ATOM      9  N   UNL     1      -2.413  -5.903   5.454  0.00  0.00    -0.338 N 
ATOM     10  H   UNL     1      -3.216  -6.392   5.690  0.00  0.00    +0.167 HD
ENDROOT
BRANCH   8  11
ATOM     11  C   UNL     1      -0.729  -7.507   6.434  0.00  0.00    +0.103 A 
ATOM     12  C   UNL     1       0.610  -7.729   6.764  0.00  0.00    +0.051 A 
ATOM     13  C   UNL     1       0.952  -8.970   7.471  0.00  0.00    +0.038 A 
ATOM     14  C   UNL     1      -0.073  -9.880   7.787  0.00  0.00    +0.052 A 
ATOM     15  C   UNL     1       0.243 -11.057   8.456  0.00  0.00    +0.026 A 
ATOM     16  C   UNL     1       1.551 -11.323   8.803  0.00  0.00    +0.003 A 
ATOM     17  C   UNL     1       2.562 -10.426   8.493  0.00  0.00    +0.021 A 
ATOM     18  C   UNL     1       2.273  -9.253   7.829  0.00  0.00    +0.052 A 
ATOM     19 CL   UNL     1       3.543  -8.134   7.442  0.00  0.00    -0.083 Cl
ATOM     20  N   UNL     1      -1.377  -9.601   7.432  0.00  0.00    -0.321 N 
ATOM     21  H   UNL     1      -2.075 -10.237   7.655  0.00  0.00    +0.169 HD
ATOM     22  C   UNL     1      -1.706  -8.467   6.791  0.00  0.00    +0.262 A 
ATOM     23  O   UNL     1      -2.872  -8.263   6.504  0.00  0.00    -0.267 OA
BRANCH  12  24
ATOM     24  N   UNL     1       1.580  -6.813   6.436  0.00  0.00    -0.357 N 
ATOM     25  H   UNL     1       1.419  -5.866   6.575  0.00  0.00    +0.142 HD
ATOM     26  H   UNL     1       2.424  -7.112   6.065  0.00  0.00    +0.142 HD
ENDBRANCH  12  24
ENDBRANCH   8  11
BRANCH   1  31
ATOM     27  C   UNL     1      -0.465   2.948   2.824  0.00  0.00    -0.096 C 
ATOM     28  N   UNL     1      -0.620   1.533   2.458  0.00  0.00    +0.380 N 
ATOM     29  C   UNL     1      -2.011   1.121   2.682  0.00  0.00    -0.060 C 
ATOM     30  C   UNL     1      -2.201  -0.319   2.195  0.00  0.00    +0.086 C 
ATOM     31  N   UNL     1      -1.201  -1.171   2.857  0.00  0.00    -0.333 N 
ATOM     32  C   UNL     1       0.206  -0.744   2.822  0.00  0.00    +0.086 C 
ATOM     33  C   UNL     1       0.282   0.716   3.280  0.00  0.00    -0.060 C 
ATOM     34  H   UNL     1      -0.388   1.411   1.484  0.00  0.00    -0.082 HD
ENDBRANCH   1  31
TORSDOF 3
