REMARK  Name = CHEMBL193136
REMARK  9 active torsions:
REMARK  status: ('A' for Active; 'I' for Inactive)
REMARK    1  A    between atoms: C_1  and  C_2
REMARK    2  A    between atoms: C_6  and  C_8
REMARK    3  A    between atoms: C_12  and  C_13
REMARK    4  A    between atoms: C_13  and  C_14
REMARK    5  A    between atoms: C_13  and  C_15
REMARK    6  A    between atoms: N_20  and  C_21
REMARK    7  A    between atoms: C_23  and  C_29
REMARK    8  A    between atoms: N_31  and  O_32
REMARK    9  A    between atoms: O_32  and  C_33
REMARK                            x       y       z     vdW  Elec       q    Type
REMARK                         _______ _______ _______ _____ _____    ______ ____
ROOT
ATOM      1  C   UNL     1      -3.590   2.608  -2.745  0.00  0.00    +0.042 A 
ATOM      2  C   UNL     1      -3.574   3.421  -3.863  0.00  0.00    +0.125 A 
ATOM      3  N   UNL     1      -4.813   3.896  -4.071  0.00  0.00    -0.234 N 
ATOM      4  C   UNL     1      -5.654   3.399  -3.092  0.00  0.00    +0.109 A 
ATOM      5  C   UNL     1      -4.911   2.590  -2.259  0.00  0.00    -0.004 A 
ATOM      6  C   UNL     1      -7.019   3.776  -3.119  0.00  0.00    +0.151 A 
ATOM      7  N   UNL     1      -7.446   4.585  -4.074  0.00  0.00    -0.217 NA
ATOM      8  C   UNL     1      -6.624   5.055  -5.010  0.00  0.00    +0.245 A 
ATOM      9  N   UNL     1      -5.356   4.748  -5.044  0.00  0.00    -0.155 NA
ATOM     10  N   UNL     1      -7.893   3.303  -2.161  0.00  0.00    -0.295 N 
ATOM     11  H   UNL     1      -7.558   2.786  -1.412  0.00  0.00    +0.154 HD
ENDROOT
BRANCH  10  12
ATOM     12  C   UNL     1      -9.263   3.570  -2.271  0.00  0.00    +0.069 A 
ATOM     13  C   UNL     1      -9.804   3.917  -3.496  0.00  0.00    +0.042 A 
ATOM     14  C   UNL     1     -11.171   4.183  -3.602  0.00  0.00    +0.076 A 
ATOM     15  C   UNL     1     -11.986   4.097  -2.468  0.00  0.00    +0.138 A 
ATOM     16  C   UNL     1     -11.435   3.750  -1.248  0.00  0.00    +0.079 A 
ATOM     17  C   UNL     1     -10.082   3.481  -1.147  0.00  0.00    +0.147 A 
ATOM     18  F   UNL     1      -9.551   3.137   0.047  0.00  0.00    -0.203 F 
ATOM     19  F   UNL     1     -13.309   4.353  -2.564  0.00  0.00    -0.205 F 
BRANCH  14  20
ATOM     20  C   UNL     1     -11.755   4.553  -4.906  0.00  0.00    +0.270 C 
ATOM     21  O   UNL     1     -12.945   4.784  -4.996  0.00  0.00    -0.268 OA
ATOM     22  N   UNL     1     -10.968   4.636  -5.997  0.00  0.00    -0.191 N 
ATOM     23  H   UNL     1     -10.018   4.452  -5.926  0.00  0.00    +0.183 HD
BRANCH  22  24
ATOM     24  O   UNL     1     -11.528   4.992  -7.248  0.00  0.00    -0.283 OA
ATOM     25  C   UNL     1     -10.580   5.041  -8.316  0.00  0.00    +0.226 C 
ENDBRANCH  22  24
ENDBRANCH  14  20
ENDBRANCH  10  12
BRANCH   1  31
ATOM     26  C   UNL     1      -0.864  -0.305   0.249  0.00  0.00    +0.090 C 
ATOM     27  C   UNL     1      -1.238   0.623  -0.878  0.00  0.00    +0.148 A 
ATOM     28  N   UNL     1      -0.416   1.081  -1.786  0.00  0.00    -0.157 NA
ATOM     29  H   UNL     1      -0.841   2.391  -3.414  0.00  0.00    +0.191 HD
ATOM     30  N   UNL     1      -1.167   1.905  -2.641  0.00  0.00    -0.258 N 
ATOM     31  C   UNL     1      -2.435   1.885  -2.170  0.00  0.00    +0.158 A 
ATOM     32  N   UNL     1      -2.458   1.102  -1.110  0.00  0.00    -0.212 NA
ENDBRANCH   1  31
BRANCH   5  33
ATOM     33  C   UNL     1      -5.416   1.835  -1.056  0.00  0.00    +0.016 C 
ATOM     34  C   UNL     1      -5.169   0.338  -1.254  0.00  0.00    +0.012 C 
ATOM     35  C   UNL     1      -4.675   2.313   0.194  0.00  0.00    +0.012 C 
ENDBRANCH   5  33
TORSDOF 5
