REMARK  Name = CHEMBL291759
REMARK  13 active torsions:
REMARK  status: ('A' for Active; 'I' for Inactive)
REMARK    1  A    between atoms: C_1  and  C_2
REMARK    2  A    between atoms: C_2  and  O_3
REMARK    3  A    between atoms: O_3  and  C_4
REMARK    4  A    between atoms: C_4  and  C_6
REMARK    5  A    between atoms: C_6  and  N_7
REMARK    6  A    between atoms: N_10  and  C_13
REMARK    7  A    between atoms: C_13  and  C_14
REMARK    8  A    between atoms: C_14  and  C_15
REMARK    9  A    between atoms: C_15  and  C_16
REMARK   10  A    between atoms: C_21  and  C_22
REMARK   11  A    between atoms: C_26  and  S_33
REMARK   12  A    between atoms: S_33  and  N_36
REMARK   13  A    between atoms: N_36  and  C_37
REMARK                            x       y       z     vdW  Elec       q    Type
REMARK                         _______ _______ _______ _____ _____    ______ ____
ROOT
ATOM      1  C   UNL     1       2.605 -10.472   5.947  0.00  0.00    -0.019 A 
ATOM      2  C   UNL     1       3.957 -10.582   6.248  0.00  0.00    -0.023 A 
ATOM      3  C   UNL     1       4.071 -10.974   7.548  0.00  0.00    +0.020 A 
ATOM      4  N   UNL     1       2.832 -11.111   8.073  0.00  0.00    -0.358 N 
ATOM      5  H   UNL     1       2.630 -11.380   8.983  0.00  0.00    +0.166 HD
ATOM      6  C   UNL     1       1.905 -10.800   7.100  0.00  0.00    +0.044 A 
ATOM      7  C   UNL     1       5.392 -11.206   8.243  0.00  0.00    +0.053 C 
ATOM      8  C   UNL     1       6.484 -11.341   7.176  0.00  0.00    +0.006 C 
ATOM      9  C   UNL     1       6.389 -10.169   6.195  0.00  0.00    +0.005 C 
ATOM     10  C   UNL     1       5.129 -10.324   5.335  0.00  0.00    +0.037 C 
ENDROOT
BRANCH   6  11
ATOM     11  C   UNL     1       0.502 -10.815   7.248  0.00  0.00    +0.039 C 
ATOM     12  C   UNL     1      -0.094 -11.743   8.081  0.00  0.00    +0.048 C 
ATOM     13  C   UNL     1      -1.520 -11.819   8.468  0.00  0.00    +0.010 A 
ATOM     14  C   UNL     1      -2.636 -11.051   8.154  0.00  0.00    +0.039 A 
ATOM     15  C   UNL     1      -3.866 -11.381   8.686  0.00  0.00    +0.106 A 
ATOM     16  C   UNL     1      -3.987 -12.472   9.530  0.00  0.00    +0.030 A 
ATOM     17  C   UNL     1      -2.886 -13.241   9.848  0.00  0.00    +0.026 A 
ATOM     18  C   UNL     1      -1.639 -12.925   9.322  0.00  0.00    +0.042 A 
ATOM     19  N   UNL     1      -0.392 -13.518   9.475  0.00  0.00    -0.281 N 
ATOM     20  C   UNL     1       0.549 -12.871   8.767  0.00  0.00    +0.249 C 
ATOM     21  O   UNL     1       1.729 -13.168   8.706  0.00  0.00    -0.270 OA
ATOM     22  H   UNL     1      -0.223 -14.301  10.022  0.00  0.00    +0.155 HD
BRANCH  15  23
ATOM     23  S   UNL     1      -5.284 -10.412   8.291  0.00  0.00    +0.058 S 
ATOM     24  O   UNL     1      -6.213 -10.603   9.349  0.00  0.00    -0.153 OA
ATOM     25  O   UNL     1      -4.807  -9.126   7.919  0.00  0.00    -0.153 OA
BRANCH  23  26
ATOM     26  N   UNL     1      -5.967 -11.073   6.936  0.00  0.00    -0.193 NA
ATOM     27  C   UNL     1      -6.536 -12.423   6.986  0.00  0.00    +0.127 C 
ATOM     28  H   UNL     1      -5.991 -10.568   6.108  0.00  0.00    +0.148 HD
ENDBRANCH  23  26
ENDBRANCH  15  23
ENDBRANCH   6  11
BRANCH   1  29
ATOM     29  C   UNL     1       2.011 -10.066   4.622  0.00  0.00    +0.039 C 
BRANCH  29  30
ATOM     30  C   UNL     1       1.838  -8.546   4.585  0.00  0.00    +0.020 C 
BRANCH  30  31
ATOM     31  C   UNL     1       1.236  -8.134   3.241  0.00  0.00    +0.085 C 
BRANCH  31  35
ATOM     32  N   UNL     1       1.366  -4.069   2.096  0.00  0.00    -0.290 NA
ATOM     33  C   UNL     1       0.063  -4.749   2.078  0.00  0.00    +0.100 C 
ATOM     34  C   UNL     1       0.281  -6.263   2.035  0.00  0.00    +0.100 C 
ATOM     35  N   UNL     1       1.069  -6.675   3.205  0.00  0.00    -0.300 NA
ATOM     36  C   UNL     1       2.373  -5.996   3.224  0.00  0.00    +0.100 C 
ATOM     37  C   UNL     1       2.155  -4.481   3.266  0.00  0.00    +0.100 C 
BRANCH  32  38
ATOM     38  C   UNL     1       1.200  -2.610   2.061  0.00  0.00    +0.205 C 
BRANCH  38  39
ATOM     39  C   UNL     1       0.607  -2.205   0.736  0.00  0.00    +0.321 C 
ATOM     40  O   UNL     1       0.349  -3.045  -0.093  0.00  0.00    -0.249 OA
BRANCH  39  41
ATOM     41  O   UNL     1       0.364  -0.910   0.478  0.00  0.00    -0.464 OA
BRANCH  41  43
ATOM     42  C   UNL     1      -0.402   0.915  -0.909  0.00  0.00    +0.048 C 
ATOM     43  C   UNL     1      -0.199  -0.597  -0.798  0.00  0.00    +0.229 C 
ENDBRANCH  41  43
ENDBRANCH  39  41
ENDBRANCH  38  39
ENDBRANCH  32  38
ENDBRANCH  31  35
ENDBRANCH  30  31
ENDBRANCH  29  30
ENDBRANCH   1  29
TORSDOF 11
