REMARK  Name = CHEMBL211662
REMARK  5 active torsions:
REMARK  status: ('A' for Active; 'I' for Inactive)
REMARK    1  A    between atoms: C_4  and  O_7
REMARK    2  A    between atoms: O_7  and  C_8
REMARK    3  A    between atoms: C_14  and  C_18
REMARK    4  A    between atoms: C_24  and  N_28
REMARK    5  A    between atoms: C_31  and  N_34
REMARK                            x       y       z     vdW  Elec       q    Type
REMARK                         _______ _______ _______ _____ _____    ______ ____
ROOT
ATOM      1  C   UNL     1       7.498  -4.649   0.162  0.00  0.00    +0.160 A 
ATOM      2  N   UNL     1       8.510  -5.569   0.238  0.00  0.00    -0.337 N 
ATOM      3  H   UNL     1       8.410  -6.534   0.256  0.00  0.00    +0.167 HD
ATOM      4  C   UNL     1       9.700  -4.865   0.283  0.00  0.00    +0.067 A 
ATOM      5  C   UNL     1      11.034  -5.239   0.362  0.00  0.00    +0.029 A 
ATOM      6  C   UNL     1      12.019  -4.275   0.390  0.00  0.00    +0.025 A 
ATOM      7  C   UNL     1      11.684  -2.923   0.339  0.00  0.00    +0.032 A 
ATOM      8  C   UNL     1      10.360  -2.534   0.260  0.00  0.00    +0.053 A 
ATOM      9  C   UNL     1       9.353  -3.503   0.231  0.00  0.00    +0.091 A 
ATOM     10  N   UNL     1       8.001  -3.437   0.152  0.00  0.00    -0.226 NA
ENDROOT
BRANCH   1  17
ATOM     11  C   UNL     1       3.663  -1.991  -0.123  0.00  0.00    +0.129 A 
ATOM     12  C   UNL     1       2.493  -2.748  -0.163  0.00  0.00    +0.048 A 
ATOM     13  C   UNL     1       2.543  -4.112  -0.120  0.00  0.00    +0.031 A 
ATOM     14  C   UNL     1       3.772  -4.763  -0.035  0.00  0.00    +0.067 A 
ATOM     15  C   UNL     1       4.957  -4.007   0.006  0.00  0.00    +0.034 A 
ATOM     16  C   UNL     1       4.893  -2.612  -0.044  0.00  0.00    +0.058 A 
ATOM     17  C   UNL     1       6.060  -4.972   0.094  0.00  0.00    +0.135 A 
ATOM     18  N   UNL     1       5.533  -6.175   0.102  0.00  0.00    -0.170 NA
ATOM     19  H   UNL     1       3.528  -6.838   0.014  0.00  0.00    +0.189 HD
ATOM     20  N   UNL     1       4.139  -6.085   0.025  0.00  0.00    -0.276 N 
BRANCH  11  21
ATOM     21  O   UNL     1       3.592  -0.634  -0.167  0.00  0.00    -0.456 OA
BRANCH  21  25
ATOM     22  C   UNL     1       2.425   1.357   3.253  0.00  0.00    +0.000 A 
ATOM     23  C   UNL     1       2.416  -0.026   3.222  0.00  0.00    +0.004 A 
ATOM     24  C   UNL     1       2.806  -0.695   2.078  0.00  0.00    +0.046 A 
ATOM     25  C   UNL     1       3.207   0.021   0.959  0.00  0.00    +0.128 A 
ATOM     26  C   UNL     1       3.215   1.409   0.993  0.00  0.00    +0.046 A 
ATOM     27  C   UNL     1       2.824   2.073   2.139  0.00  0.00    +0.004 A 
ENDBRANCH  21  25
ENDBRANCH  11  21
ENDBRANCH   1  17
BRANCH   7  28
ATOM     28  N   UNL     1      12.693  -1.954   0.368  0.00  0.00    -0.330 N 
ATOM     29  C   UNL     1      12.358  -0.526   0.454  0.00  0.00    +0.103 C 
ATOM     30  C   UNL     1      13.111   0.086   1.640  0.00  0.00    +0.004 C 
ATOM     31  C   UNL     1      14.607  -0.201   1.492  0.00  0.00    -0.066 C 
ATOM     32  C   UNL     1      14.841  -1.713   1.500  0.00  0.00    +0.004 C 
ATOM     33  C   UNL     1      14.108  -2.346   0.319  0.00  0.00    +0.103 C 
BRANCH  31  34
ATOM     34  N   UNL     1      15.336   0.413   2.610  0.00  0.00    +0.382 N 
ATOM     35  C   UNL     1      15.105   1.863   2.605  0.00  0.00    -0.078 C 
ATOM     36  C   UNL     1      15.795   2.497   3.814  0.00  0.00    -0.019 C 
ATOM     37  C   UNL     1      17.299   2.218   3.741  0.00  0.00    -0.004 C 
ATOM     38  C   UNL     1      17.525   0.705   3.671  0.00  0.00    -0.019 C 
ATOM     39  C   UNL     1      16.771   0.137   2.467  0.00  0.00    -0.078 C 
ATOM     40  H   UNL     1      15.005   0.025   3.480  0.00  0.00    -0.081 HD
ENDBRANCH  31  34
ENDBRANCH   7  28
TORSDOF 5
