REMARK  Name = CHEMBL525909
REMARK  14 active torsions:
REMARK  status: ('A' for Active; 'I' for Inactive)
REMARK    1  A    between atoms: C_1  and  C_2
REMARK    2  A    between atoms: N_4  and  C_5
REMARK    3  A    between atoms: N_4  and  C_11
REMARK    4  A    between atoms: C_5  and  C_6
REMARK    5  A    between atoms: C_6  and  C_7
REMARK    6  A    between atoms: C_7  and  N_8
REMARK    7  A    between atoms: N_8  and  C_9
REMARK    8  A    between atoms: N_8  and  C_10
REMARK    9  A    between atoms: C_14  and  N_17
REMARK   10  A    between atoms: N_17  and  C_18
REMARK   11  A    between atoms: C_18  and  C_33
REMARK   12  A    between atoms: C_23  and  C_29
REMARK   13  A    between atoms: C_29  and  O_31
REMARK   14  A    between atoms: O_31  and  C_32
REMARK                            x       y       z     vdW  Elec       q    Type
REMARK                         _______ _______ _______ _____ _____    ______ ____
ROOT
ATOM      1  C   UNL     1       0.275   3.001  -6.593  0.00  0.00    +0.051 C 
ATOM      2  C   UNL     1      -0.625   3.624  -7.451  0.00  0.00    +0.068 C 
ATOM      3  C   UNL     1      -0.600   5.030  -7.900  0.00  0.00    +0.010 A 
ATOM      4  C   UNL     1       0.250   6.104  -7.641  0.00  0.00    +0.011 A 
ATOM      5  C   UNL     1       0.010   7.319  -8.217  0.00  0.00    +0.016 A 
ATOM      6  C   UNL     1      -1.088   7.489  -9.068  0.00  0.00    +0.061 A 
ATOM      7  C   UNL     1      -1.946   6.419  -9.334  0.00  0.00    +0.039 A 
ATOM      8  C   UNL     1      -1.706   5.186  -8.752  0.00  0.00    +0.042 A 
ATOM      9  N   UNL     1      -2.371   3.968  -8.829  0.00  0.00    -0.281 N 
ATOM     10  C   UNL     1      -1.754   3.037  -8.082  0.00  0.00    +0.251 C 
ATOM     11  O   UNL     1      -2.108   1.877  -7.962  0.00  0.00    -0.270 OA
ATOM     12  H   UNL     1      -3.171   3.810  -9.355  0.00  0.00    +0.155 HD
ENDROOT
BRANCH   1  13
ATOM     13  C   UNL     1       1.313   3.795  -5.910  0.00  0.00    -0.003 A 
ATOM     14  C   UNL     1       0.956   4.912  -5.150  0.00  0.00    +0.010 A 
ATOM     15  C   UNL     1       1.932   5.650  -4.514  0.00  0.00    +0.001 A 
ATOM     16  C   UNL     1       3.263   5.287  -4.627  0.00  0.00    +0.000 A 
ATOM     17  C   UNL     1       3.624   4.181  -5.377  0.00  0.00    +0.001 A 
ATOM     18  C   UNL     1       2.658   3.430  -6.014  0.00  0.00    +0.010 A 
ENDBRANCH   1  13
BRANCH   1  19
ATOM     19  N   UNL     1       0.197   1.650  -6.382  0.00  0.00    -0.313 N 
ATOM     20  H   UNL     1       0.280   1.037  -7.129  0.00  0.00    +0.152 HD
BRANCH  19  24
ATOM     21  C   UNL     1      -0.393   0.173  -2.530  0.00  0.00    +0.036 A 
ATOM     22  C   UNL     1      -0.114  -0.701  -3.573  0.00  0.00    +0.025 A 
ATOM     23  C   UNL     1       0.082  -0.211  -4.849  0.00  0.00    +0.025 A 
ATOM     24  C   UNL     1      -0.001   1.154  -5.089  0.00  0.00    +0.031 A 
ATOM     25  C   UNL     1      -0.281   2.028  -4.046  0.00  0.00    +0.025 A 
ATOM     26  C   UNL     1      -0.481   1.538  -2.771  0.00  0.00    +0.025 A 
BRANCH  21  30
ATOM     27  C   UNL     1       0.131  -0.641   1.110  0.00  0.00    +0.109 C 
ATOM     28  C   UNL     1       0.290  -0.029  -0.258  0.00  0.00    +0.217 C 
ATOM     29  O   UNL     1       1.211   0.729  -0.480  0.00  0.00    -0.276 OA
ATOM     30  N   UNL     1      -0.591  -0.324  -1.235  0.00  0.00    -0.272 N 
BRANCH  30  31
ATOM     31  C   UNL     1      -1.755  -1.163  -0.942  0.00  0.00    +0.112 C 
BRANCH  31  32
ATOM     32  C   UNL     1      -2.943  -0.275  -0.568  0.00  0.00    +0.001 C 
BRANCH  32  33
ATOM     33  C   UNL     1      -4.160  -1.151  -0.262  0.00  0.00    -0.078 C 
BRANCH  33  34
ATOM     34  N   UNL     1      -5.300  -0.298   0.097  0.00  0.00    +0.376 N 
ATOM     35  C   UNL     1      -6.498  -1.131   0.274  0.00  0.00    -0.097 C 
ATOM     36  C   UNL     1      -5.006   0.409   1.351  0.00  0.00    -0.097 C 
ATOM     37  H   UNL     1      -5.463   0.373  -0.638  0.00  0.00    -0.083 HD
ENDBRANCH  33  34
ENDBRANCH  32  33
ENDBRANCH  31  32
ENDBRANCH  30  31
ENDBRANCH  21  30
ENDBRANCH  19  24
ENDBRANCH   1  19
BRANCH   6  38
ATOM     38  C   UNL     1      -1.341   8.803  -9.686  0.00  0.00    +0.339 C 
ATOM     39  O   UNL     1      -2.294   8.954 -10.426  0.00  0.00    -0.245 OA
BRANCH  38  40
ATOM     40  O   UNL     1      -0.516   9.838  -9.431  0.00  0.00    -0.464 OA
ATOM     41  C   UNL     1      -0.821  11.082 -10.064  0.00  0.00    +0.280 C 
ENDBRANCH  38  40
ENDBRANCH   6  38
TORSDOF 10
