REMARK  Name = CHEMBL208600
REMARK  3 active torsions:
REMARK  status: ('A' for Active; 'I' for Inactive)
REMARK    1  A    between atoms: C_1  and  N_2
REMARK    2  A    between atoms: N_5  and  C_8
REMARK    3  A    between atoms: C_15  and  C_18
REMARK                            x       y       z     vdW  Elec       q    Type
REMARK                         _______ _______ _______ _____ _____    ______ ____
ROOT
ATOM      1  C   UNL     1      -0.973  -3.611   1.778  0.00  0.00    +0.032 A 
ATOM      2  C   UNL     1      -2.285  -4.064   1.655  0.00  0.00    +0.025 A 
ATOM      3  C   UNL     1      -2.752  -5.077   2.465  0.00  0.00    +0.029 A 
ATOM      4  C   UNL     1      -1.913  -5.652   3.409  0.00  0.00    +0.067 A 
ATOM      5  C   UNL     1      -0.588  -5.202   3.540  0.00  0.00    +0.091 A 
ATOM      6  C   UNL     1      -0.123  -4.177   2.710  0.00  0.00    +0.053 A 
ATOM      7  N   UNL     1      -0.012  -5.933   4.525  0.00  0.00    -0.226 NA
ATOM      8  C   UNL     1      -0.880  -6.792   5.004  0.00  0.00    +0.160 A 
ATOM      9  N   UNL     1      -2.074  -6.658   4.346  0.00  0.00    -0.337 N 
ATOM     10  H   UNL     1      -2.881  -7.172   4.507  0.00  0.00    +0.167 HD
ENDROOT
BRANCH   8  11
ATOM     11  C   UNL     1      -0.612  -7.756   6.088  0.00  0.00    +0.135 A 
ATOM     12  C   UNL     1       0.656  -7.920   6.810  0.00  0.00    +0.030 A 
ATOM     13  C   UNL     1       1.902  -7.295   6.732  0.00  0.00    +0.012 A 
ATOM     14  C   UNL     1       2.911  -7.685   7.566  0.00  0.00    +0.001 A 
ATOM     15  C   UNL     1       2.709  -8.700   8.493  0.00  0.00    +0.002 A 
ATOM     16  C   UNL     1       1.489  -9.330   8.588  0.00  0.00    +0.028 A 
ATOM     17  C   UNL     1       0.446  -8.948   7.747  0.00  0.00    +0.066 A 
ATOM     18  N   UNL     1      -0.851  -9.368   7.598  0.00  0.00    -0.276 N 
ATOM     19  N   UNL     1      -1.465  -8.621   6.588  0.00  0.00    -0.170 NA
ATOM     20  H   UNL     1      -1.277 -10.070   8.114  0.00  0.00    +0.189 HD
ENDBRANCH   8  11
BRANCH   1  25
ATOM     21  C   UNL     1      -0.039   1.464  -0.002  0.00  0.00    -0.096 C 
ATOM     22  N   UNL     1      -0.008  -0.004  -0.004  0.00  0.00    +0.380 N 
ATOM     23  C   UNL     1      -1.383  -0.521  -0.015  0.00  0.00    -0.060 C 
ATOM     24  C   UNL     1      -1.352  -2.048  -0.132  0.00  0.00    +0.086 C 
ATOM     25  N   UNL     1      -0.511  -2.583   0.950  0.00  0.00    -0.333 N 
ATOM     26  C   UNL     1       0.828  -2.004   1.137  0.00  0.00    +0.086 C 
ATOM     27  C   UNL     1       0.695  -0.479   1.195  0.00  0.00    -0.060 C 
ATOM     28  H   UNL     1       0.477  -0.328  -0.827  0.00  0.00    -0.082 HD
ENDBRANCH   1  25
TORSDOF 2
