REMARK  Name = CHEMBL496150
REMARK  6 active torsions:
REMARK  status: ('A' for Active; 'I' for Inactive)
REMARK    1  A    between atoms: C_1  and  N_2
REMARK    2  A    between atoms: N_2  and  C_3
REMARK    3  A    between atoms: N_2  and  C_4
REMARK    4  A    between atoms: N_8  and  C_10
REMARK    5  A    between atoms: C_17  and  C_20
REMARK    6  A    between atoms: C_21  and  N_32
REMARK                            x       y       z     vdW  Elec       q    Type
REMARK                         _______ _______ _______ _____ _____    ______ ____
ROOT
ATOM      1  C   UNL     1      -2.672  -3.825  -1.461  0.00  0.00    +0.032 A 
ATOM      2  C   UNL     1      -1.969  -4.879  -0.881  0.00  0.00    +0.025 A 
ATOM      3  C   UNL     1      -2.249  -6.182  -1.235  0.00  0.00    +0.029 A 
ATOM      4  C   UNL     1      -3.235  -6.448  -2.174  0.00  0.00    +0.067 A 
ATOM      5  C   UNL     1      -3.949  -5.391  -2.764  0.00  0.00    +0.091 A 
ATOM      6  C   UNL     1      -3.661  -4.074  -2.394  0.00  0.00    +0.053 A 
ATOM      7  N   UNL     1      -4.836  -5.940  -3.631  0.00  0.00    -0.227 NA
ATOM      8  C   UNL     1      -4.718  -7.248  -3.615  0.00  0.00    +0.146 A 
ATOM      9  N   UNL     1      -3.740  -7.613  -2.729  0.00  0.00    -0.338 N 
ATOM     10  H   UNL     1      -3.454  -8.518  -2.527  0.00  0.00    +0.167 HD
ENDROOT
BRANCH   8  11
ATOM     11  C   UNL     1      -5.518  -8.181  -4.427  0.00  0.00    +0.103 A 
ATOM     12  C   UNL     1      -6.576  -7.705  -5.205  0.00  0.00    +0.050 A 
ATOM     13  C   UNL     1      -7.343  -8.675  -5.997  0.00  0.00    +0.020 A 
ATOM     14  C   UNL     1      -8.413  -8.266  -6.797  0.00  0.00    +0.012 A 
ATOM     15  C   UNL     1      -9.109  -9.191  -7.524  0.00  0.00    +0.001 A 
ATOM     16  C   UNL     1      -8.760 -10.534  -7.474  0.00  0.00    +0.002 A 
ATOM     17  C   UNL     1      -7.708 -10.958  -6.691  0.00  0.00    +0.026 A 
ATOM     18  C   UNL     1      -6.986 -10.034  -5.943  0.00  0.00    +0.051 A 
ATOM     19  N   UNL     1      -5.928 -10.440  -5.154  0.00  0.00    -0.321 N 
ATOM     20  H   UNL     1      -5.692 -11.380  -5.125  0.00  0.00    +0.169 HD
ATOM     21  C   UNL     1      -5.215  -9.563  -4.428  0.00  0.00    +0.262 A 
ATOM     22  O   UNL     1      -4.287  -9.968  -3.751  0.00  0.00    -0.267 OA
BRANCH  12  23
ATOM     23  N   UNL     1      -6.891  -6.368  -5.227  0.00  0.00    -0.357 N 
ATOM     24  H   UNL     1      -6.329  -5.729  -4.762  0.00  0.00    +0.142 HD
ATOM     25  H   UNL     1      -7.676  -6.063  -5.708  0.00  0.00    +0.142 HD
ENDBRANCH  12  23
ENDBRANCH   8  11
BRANCH   1  29
ATOM     26  C   UNL     1      -1.374  -0.555  -0.057  0.00  0.00    +0.075 C 
ATOM     27  C   UNL     1      -2.012  -0.161  -1.415  0.00  0.00    +0.039 C 
ATOM     28  C   UNL     1      -3.042  -1.300  -1.617  0.00  0.00    +0.107 C 
ATOM     29  N   UNL     1      -2.378  -2.507  -1.093  0.00  0.00    -0.328 N 
ATOM     30  C   UNL     1      -1.357  -2.098  -0.113  0.00  0.00    +0.124 C 
BRANCH  26  32
ATOM     31  C   UNL     1      -0.014   1.445   0.045  0.00  0.00    +0.104 C 
ATOM     32  N   UNL     1      -0.009  -0.024   0.050  0.00  0.00    -0.304 NA
ATOM     33  C   UNL     1       0.666  -0.544   1.246  0.00  0.00    +0.104 C 
ENDBRANCH  26  32
ENDBRANCH   1  29
TORSDOF 4
