REMARK  Name = CHEMBL106232
REMARK  9 active torsions:
REMARK  status: ('A' for Active; 'I' for Inactive)
REMARK    1  A    between atoms: C_1  and  N_2
REMARK    2  A    between atoms: C_6  and  C_9
REMARK    3  A    between atoms: N_21  and  C_22
REMARK    4  A    between atoms: C_22  and  C_23
REMARK    5  A    between atoms: C_23  and  C_24
REMARK    6  A    between atoms: C_24  and  C_25
REMARK    7  A    between atoms: C_25  and  C_26
REMARK    8  A    between atoms: C_26  and  N_27
REMARK    9  A    between atoms: N_30  and  C_33
REMARK                            x       y       z     vdW  Elec       q    Type
REMARK                         _______ _______ _______ _____ _____    ______ ____
ROOT
ATOM      1  C   UNL     1      -0.018   1.461   0.010  0.00  0.00    +0.154 C 
ATOM      2  N   UNL     1       0.002  -0.004   0.002  0.00  0.00    -0.295 N 
ATOM      3  C   UNL     1      -1.181  -0.699   0.004  0.00  0.00    +0.148 A 
ATOM      4  C   UNL     1      -1.179  -2.111  -0.004  0.00  0.00    +0.037 A 
ATOM      5  C   UNL     1       0.043  -2.821  -0.013  0.00  0.00    +0.027 A 
ATOM      6  C   UNL     1       1.218  -2.119  -0.015  0.00  0.00    +0.050 A 
ATOM      7  C   UNL     1       1.181  -0.655  -0.013  0.00  0.00    +0.260 A 
ATOM      8  O   UNL     1       2.222  -0.022  -0.020  0.00  0.00    -0.267 OA
ATOM      9  C   UNL     1      -2.410  -2.783  -0.002  0.00  0.00    +0.126 A 
ATOM     10  N   UNL     1      -3.520  -2.069   0.007  0.00  0.00    -0.222 NA
ATOM     11  C   UNL     1      -3.484  -0.741   0.014  0.00  0.00    +0.217 A 
ATOM     12  N   UNL     1      -2.346  -0.062   0.013  0.00  0.00    -0.196 NA
ATOM     13  N   UNL     1      -4.675  -0.043   0.022  0.00  0.00    -0.313 N 
ATOM     14  H   UNL     1      -4.668   0.927   0.028  0.00  0.00    +0.149 HD
ENDROOT
BRANCH   6  15
ATOM     15  C   UNL     1       2.516  -2.833  -0.025  0.00  0.00    +0.024 A 
ATOM     16  C   UNL     1       3.133  -3.183   1.177  0.00  0.00    +0.050 A 
ATOM     17  C   UNL     1       4.342  -3.849   1.161  0.00  0.00    +0.021 A 
ATOM     18  C   UNL     1       4.943  -4.170  -0.043  0.00  0.00    +0.003 A 
ATOM     19  C   UNL     1       4.337  -3.827  -1.238  0.00  0.00    +0.021 A 
ATOM     20  C   UNL     1       3.124  -3.166  -1.236  0.00  0.00    +0.050 A 
ATOM     21 CL   UNL     1       2.362  -2.742  -2.737  0.00  0.00    -0.083 Cl
ATOM     22 CL   UNL     1       2.381  -2.780   2.689  0.00  0.00    -0.083 Cl
ENDBRANCH   6  15
BRANCH  13  23
ATOM     23  C   UNL     1      -5.948  -0.767   0.024  0.00  0.00    +0.104 C 
BRANCH  23  24
ATOM     24  C   UNL     1      -7.104   0.235   0.034  0.00  0.00    +0.019 C 
BRANCH  24  25
ATOM     25  C   UNL     1      -8.434  -0.521   0.035  0.00  0.00    +0.003 C 
BRANCH  25  26
ATOM     26  C   UNL     1      -9.591   0.481   0.045  0.00  0.00    +0.015 C 
BRANCH  26  27
ATOM     27  C   UNL     1     -10.921  -0.275   0.046  0.00  0.00    +0.084 C 
BRANCH  27  28
ATOM     28  N   UNL     1     -12.031   0.687   0.056  0.00  0.00    -0.306 NA
ATOM     29  C   UNL     1     -12.063   1.442   1.317  0.00  0.00    +0.066 C 
ATOM     30  C   UNL     1     -13.194   2.471   1.263  0.00  0.00    -0.064 C 
ATOM     31  N   UNL     1     -14.474   1.782   1.052  0.00  0.00    +0.379 N 
ATOM     32  C   UNL     1     -14.435   1.053  -0.222  0.00  0.00    -0.064 C 
ATOM     33  C   UNL     1     -13.315   0.012  -0.181  0.00  0.00    +0.066 C 
ATOM     34  C   UNL     1     -15.561   2.770   1.018  0.00  0.00    -0.096 C 
ATOM     35  H   UNL     1     -14.634   1.132   1.807  0.00  0.00    -0.082 HD
ENDBRANCH  27  28
ENDBRANCH  26  27
ENDBRANCH  25  26
ENDBRANCH  24  25
ENDBRANCH  23  24
ENDBRANCH  13  23
TORSDOF 7
