REMARK  Name = CHEMBL495984
REMARK  6 active torsions:
REMARK  status: ('A' for Active; 'I' for Inactive)
REMARK    1  A    between atoms: C_1  and  C_2
REMARK    2  A    between atoms: C_2  and  C_3
REMARK    3  A    between atoms: N_6  and  C_32
REMARK    4  A    between atoms: C_7  and  N_9
REMARK    5  A    between atoms: N_9  and  C_10
REMARK    6  A    between atoms: C_21  and  C_22
REMARK                            x       y       z     vdW  Elec       q    Type
REMARK                         _______ _______ _______ _____ _____    ______ ____
ROOT
ATOM      1  C   UNL     1       2.932  -4.495  -2.578  0.00  0.00    +0.053 A 
ATOM      2  C   UNL     1       3.140  -5.948  -2.617  0.00  0.00    +0.020 A 
ATOM      3  C   UNL     1       2.190  -6.826  -2.089  0.00  0.00    +0.012 A 
ATOM      4  C   UNL     1       2.410  -8.174  -2.139  0.00  0.00    +0.001 A 
ATOM      5  C   UNL     1       3.570  -8.678  -2.711  0.00  0.00    +0.002 A 
ATOM      6  C   UNL     1       4.520  -7.829  -3.237  0.00  0.00    +0.026 A 
ATOM      7  C   UNL     1       4.317  -6.454  -3.197  0.00  0.00    +0.051 A 
ATOM      8  N   UNL     1       5.256  -5.587  -3.720  0.00  0.00    -0.321 N 
ATOM      9  H   UNL     1       6.064  -5.949  -4.118  0.00  0.00    +0.169 HD
ATOM     10  C   UNL     1       5.079  -4.256  -3.692  0.00  0.00    +0.262 A 
ATOM     11  O   UNL     1       5.937  -3.532  -4.166  0.00  0.00    -0.267 OA
ATOM     12  C   UNL     1       3.918  -3.674  -3.129  0.00  0.00    +0.103 A 
ENDROOT
BRANCH  12  13
ATOM     13  C   UNL     1       3.754  -2.211  -3.119  0.00  0.00    +0.146 A 
ATOM     14  N   UNL     1       4.702  -1.308  -3.523  0.00  0.00    -0.338 N 
ATOM     15  H   UNL     1       5.588  -1.515  -3.862  0.00  0.00    +0.167 HD
ATOM     16  C   UNL     1       4.161  -0.045  -3.360  0.00  0.00    +0.066 A 
ATOM     17  C   UNL     1       4.630   1.239  -3.592  0.00  0.00    +0.028 A 
ATOM     18  C   UNL     1       3.825   2.325  -3.318  0.00  0.00    +0.002 A 
ATOM     19  C   UNL     1       2.546   2.142  -2.812  0.00  0.00    +0.002 A 
ATOM     20  C   UNL     1       2.063   0.875  -2.575  0.00  0.00    +0.030 A 
ATOM     21  C   UNL     1       2.866  -0.237  -2.847  0.00  0.00    +0.089 A 
ATOM     22  N   UNL     1       2.674  -1.574  -2.727  0.00  0.00    -0.227 NA
ENDBRANCH  12  13
BRANCH   1  23
ATOM     23  N   UNL     1       1.796  -3.959  -2.021  0.00  0.00    -0.327 N 
ATOM     24  H   UNL     1       1.252  -3.339  -2.532  0.00  0.00    +0.148 HD
BRANCH  23  29
ATOM     25  C   UNL     1      -0.501  -4.963   0.820  0.00  0.00    -0.007 C 
ATOM     26  C   UNL     1      -0.113  -3.815   1.756  0.00  0.00    +0.019 C 
ATOM     27  C   UNL     1       1.392  -3.558   1.643  0.00  0.00    +0.086 C 
ATOM     28  N   UNL     1       1.728  -3.216   0.255  0.00  0.00    -0.288 NA
ATOM     29  C   UNL     1       1.408  -4.323  -0.656  0.00  0.00    +0.141 C 
ATOM     30  C   UNL     1      -0.096  -4.603  -0.612  0.00  0.00    +0.042 C 
ATOM     31  C   UNL     1       3.140  -2.828   0.136  0.00  0.00    +0.106 C 
BRANCH  25  33
ATOM     32  C   UNL     1      -2.400  -5.666   2.283  0.00  0.00    +0.004 C 
ATOM     33  C   UNL     1      -2.013  -5.185   0.883  0.00  0.00    +0.000 C 
ENDBRANCH  25  33
ENDBRANCH  23  29
ENDBRANCH   1  23
TORSDOF 4
