REMARK  Name = CHEMBL477560
REMARK  6 active torsions:
REMARK  status: ('A' for Active; 'I' for Inactive)
REMARK    1  A    between atoms: C_3  and  O_21
REMARK    2  A    between atoms: C_4  and  O_20
REMARK    3  A    between atoms: C_6  and  C_7
REMARK    4  A    between atoms: C_7  and  C_8
REMARK    5  A    between atoms: C_13  and  O_19
REMARK    6  A    between atoms: C_14  and  O_18
REMARK                            x       y       z     vdW  Elec       q    Type
REMARK                         _______ _______ _______ _____ _____    ______ ____
ROOT
ATOM      1  C   UNL     1      -1.739  -1.022  -1.408  0.00  0.00    -0.028 C 
ATOM      2  C   UNL     1      -1.434  -2.170  -2.006  0.00  0.00    +0.014 C 
ATOM      3  C   UNL     1      -1.856  -2.364  -3.409  0.00  0.00    +0.021 A 
ATOM      4  C   UNL     1      -1.832  -3.621  -4.006  0.00  0.00    +0.015 A 
ATOM      5  C   UNL     1      -2.247  -3.765  -5.315  0.00  0.00    +0.050 A 
ATOM      6  C   UNL     1      -2.688  -2.663  -6.035  0.00  0.00    +0.162 A 
ATOM      7  C   UNL     1      -2.711  -1.402  -5.447  0.00  0.00    +0.201 A 
ATOM      8  C   UNL     1      -2.290  -1.248  -4.137  0.00  0.00    +0.173 A 
ATOM      9  O   UNL     1      -2.265  -0.025  -3.543  0.00  0.00    -0.483 OA
ATOM     10  C   UNL     1      -2.533   0.027  -2.140  0.00  0.00    +0.260 C 
ENDROOT
BRANCH   7  11
ATOM     11  O   UNL     1      -3.145  -0.324  -6.157  0.00  0.00    -0.501 OA
ATOM     12  H   UNL     1      -4.094  -0.159  -6.080  0.00  0.00    +0.292 HD
ENDBRANCH   7  11
BRANCH   6  13
ATOM     13  O   UNL     1      -3.100  -2.817  -7.322  0.00  0.00    -0.503 OA
ATOM     14  H   UNL     1      -4.044  -3.007  -7.412  0.00  0.00    +0.292 HD
ENDBRANCH   6  13
BRANCH   1  15
ATOM     15  C   UNL     1      -1.294  -0.774   0.010  0.00  0.00    +0.069 C 
BRANCH  15  21
ATOM     16  C   UNL     1      -0.017   1.378   0.010  0.00  0.00    +0.008 A 
ATOM     17  C   UNL     1       1.170   2.089   0.002  0.00  0.00    +0.049 A 
ATOM     18  C   UNL     1       2.380   1.415  -0.013  0.00  0.00    +0.158 A 
ATOM     19  C   UNL     1       2.399   0.024  -0.021  0.00  0.00    +0.158 A 
ATOM     20  C   UNL     1       1.207  -0.682  -0.013  0.00  0.00    +0.053 A 
ATOM     21  C   UNL     1       0.002  -0.004   0.002  0.00  0.00    -0.040 A 
BRANCH  19  22
ATOM     22  O   UNL     1       3.585  -0.642  -0.036  0.00  0.00    -0.503 OA
ATOM     23  H   UNL     1       3.937  -0.839   0.843  0.00  0.00    +0.292 HD
ENDBRANCH  19  22
BRANCH  18  24
ATOM     24  O   UNL     1       3.548   2.113  -0.021  0.00  0.00    -0.503 OA
ATOM     25  H   UNL     1       3.894   2.310   0.860  0.00  0.00    +0.292 HD
ENDBRANCH  18  24
ENDBRANCH  15  21
ENDBRANCH   1  15
TORSDOF 6
