REMARK  Name = CHEMBL495984
REMARK  6 active torsions:
REMARK  status: ('A' for Active; 'I' for Inactive)
REMARK    1  A    between atoms: C_1  and  C_2
REMARK    2  A    between atoms: C_2  and  C_3
REMARK    3  A    between atoms: N_6  and  C_32
REMARK    4  A    between atoms: C_7  and  N_9
REMARK    5  A    between atoms: N_9  and  C_10
REMARK    6  A    between atoms: C_21  and  C_22
REMARK                            x       y       z     vdW  Elec       q    Type
REMARK                         _______ _______ _______ _____ _____    ______ ____
ROOT
ATOM      1  C   UNL     1       0.722  -2.704   4.879  0.00  0.00    +0.051 A 
ATOM      2  C   UNL     1       0.144  -2.084   6.079  0.00  0.00    +0.020 A 
ATOM      3  C   UNL     1      -0.278  -0.752   6.068  0.00  0.00    +0.012 A 
ATOM      4  C   UNL     1      -0.812  -0.201   7.199  0.00  0.00    +0.001 A 
ATOM      5  C   UNL     1      -0.939  -0.954   8.358  0.00  0.00    +0.002 A 
ATOM      6  C   UNL     1      -0.530  -2.270   8.389  0.00  0.00    +0.026 A 
ATOM      7  C   UNL     1       0.017  -2.852   7.250  0.00  0.00    +0.051 A 
ATOM      8  N   UNL     1       0.432  -4.168   7.261  0.00  0.00    -0.321 N 
ATOM      9  H   UNL     1       0.339  -4.687   8.075  0.00  0.00    +0.169 HD
ATOM     10  C   UNL     1       0.962  -4.749   6.172  0.00  0.00    +0.262 A 
ATOM     11  O   UNL     1       1.313  -5.914   6.231  0.00  0.00    -0.267 OA
ATOM     12  C   UNL     1       1.117  -4.042   4.956  0.00  0.00    +0.103 A 
ENDROOT
BRANCH  12  13
ATOM     13  C   UNL     1       1.697  -4.710   3.779  0.00  0.00    +0.146 A 
ATOM     14  N   UNL     1       1.998  -6.045   3.699  0.00  0.00    -0.338 N 
ATOM     15  H   UNL     1       1.870  -6.707   4.396  0.00  0.00    +0.167 HD
ATOM     16  C   UNL     1       2.519  -6.271   2.438  0.00  0.00    +0.066 A 
ATOM     17  C   UNL     1       2.995  -7.398   1.783  0.00  0.00    +0.028 A 
ATOM     18  C   UNL     1       3.461  -7.295   0.489  0.00  0.00    +0.002 A 
ATOM     19  C   UNL     1       3.458  -6.070  -0.164  0.00  0.00    +0.002 A 
ATOM     20  C   UNL     1       2.991  -4.942   0.469  0.00  0.00    +0.030 A 
ATOM     21  C   UNL     1       2.514  -5.028   1.781  0.00  0.00    +0.089 A 
ATOM     22  N   UNL     1       1.998  -4.120   2.645  0.00  0.00    -0.227 NA
ENDBRANCH  12  13
BRANCH   1  23
ATOM     23  N   UNL     1       0.864  -1.991   3.714  0.00  0.00    -0.356 N 
ATOM     24  H   UNL     1       1.728  -1.945   3.276  0.00  0.00    +0.144 HD
BRANCH  23  29
ATOM     25  C   UNL     1       1.243   0.041   1.690  0.00  0.00    -0.013 C 
ATOM     26  C   UNL     1       0.769  -0.792   0.496  0.00  0.00    -0.015 C 
ATOM     27  C   UNL     1       0.338  -2.176   0.986  0.00  0.00    -0.076 C 
ATOM     28  N   UNL     1      -0.758  -2.037   1.953  0.00  0.00    +0.390 N 
ATOM     29  C   UNL     1      -0.290  -1.300   3.133  0.00  0.00    +0.016 C 
ATOM     30  C   UNL     1       0.117   0.117   2.725  0.00  0.00    +0.006 C 
ATOM     31  C   UNL     1      -1.221  -3.370   2.361  0.00  0.00    -0.093 C 
ATOM     32  H   UNL     1      -1.521  -1.535   1.525  0.00  0.00    -0.080 HD
BRANCH  25  34
ATOM     33  C   UNL     1       2.807   1.385   0.280  0.00  0.00    +0.004 C 
ATOM     34  C   UNL     1       1.601   1.452   1.219  0.00  0.00    -0.000 C 
ENDBRANCH  25  34
ENDBRANCH  23  29
ENDBRANCH   1  23
TORSDOF 4
