REMARK  Name = CHEMBL417208
REMARK  8 active torsions:
REMARK  status: ('A' for Active; 'I' for Inactive)
REMARK    1  A    between atoms: C_1  and  N_2
REMARK    2  A    between atoms: N_5  and  C_8
REMARK    3  A    between atoms: C_8  and  C_9
REMARK    4  A    between atoms: C_9  and  C_10
REMARK    5  A    between atoms: C_10  and  N_11
REMARK    6  A    between atoms: C_17  and  C_32
REMARK    7  A    between atoms: C_18  and  N_22
REMARK    8  A    between atoms: N_24  and  C_25
REMARK                            x       y       z     vdW  Elec       q    Type
REMARK                         _______ _______ _______ _____ _____    ______ ____
ROOT
ATOM      1  N   UNL     1       0.674  -6.326   3.619  0.00  0.00    -0.313 N 
ATOM      2  C   UNL     1       0.699  -7.692   3.827  0.00  0.00    +0.217 A 
ATOM      3  N   UNL     1       0.151  -8.488   2.911  0.00  0.00    -0.222 NA
ATOM      4  C   UNL     1       0.145  -9.798   3.055  0.00  0.00    +0.126 A 
ATOM      5  C   UNL     1       0.731 -10.351   4.206  0.00  0.00    +0.038 A 
ATOM      6  C   UNL     1       0.757 -11.741   4.419  0.00  0.00    +0.025 A 
ATOM      7  C   UNL     1       1.352 -12.214   5.575  0.00  0.00    +0.030 A 
ATOM      8  C   UNL     1       1.924 -11.253   6.519  0.00  0.00    +0.165 A 
ATOM      9  N   UNL     1       1.873  -9.952   6.271  0.00  0.00    -0.208 NA
ATOM     10  C   UNL     1       1.306  -9.474   5.164  0.00  0.00    +0.167 A 
ATOM     11  N   UNL     1       1.267  -8.156   4.924  0.00  0.00    -0.195 NA
ATOM     12  H   UNL     1       1.071  -5.729   4.273  0.00  0.00    +0.149 HD
ENDROOT
BRANCH   7  13
ATOM     13  C   UNL     1       1.408 -13.668   5.853  0.00  0.00    +0.022 A 
ATOM     14  C   UNL     1       0.372 -14.288   6.553  0.00  0.00    +0.050 A 
ATOM     15  C   UNL     1       0.431 -15.645   6.808  0.00  0.00    +0.021 A 
ATOM     16  C   UNL     1       1.513 -16.388   6.372  0.00  0.00    +0.003 A 
ATOM     17  C   UNL     1       2.543 -15.779   5.678  0.00  0.00    +0.021 A 
ATOM     18  C   UNL     1       2.494 -14.425   5.411  0.00  0.00    +0.050 A 
ATOM     19 CL   UNL     1       3.785 -13.664   4.534  0.00  0.00    -0.083 Cl
ATOM     20 CL   UNL     1      -0.986 -13.357   7.102  0.00  0.00    -0.083 Cl
ENDBRANCH   7  13
BRANCH   8  21
ATOM     21  N   UNL     1       2.510 -11.697   7.654  0.00  0.00    -0.205 NA
ATOM     22  C   UNL     1       2.899 -10.836   8.575  0.00  0.00    +0.171 C 
ATOM     23  N   UNL     1       2.430  -9.548   8.551  0.00  0.00    -0.293 N 
ATOM     24  S   UNL     1       4.022 -11.342   9.835  0.00  0.00    -0.014 SA
ATOM     25  H   UNL     1       1.729  -9.298   7.929  0.00  0.00    +0.154 HD
BRANCH  23  26
ATOM     26  C   UNL     1       2.961  -8.594   9.425  0.00  0.00    +0.033 A 
ATOM     27  C   UNL     1       4.304  -8.643   9.776  0.00  0.00    +0.023 A 
ATOM     28  C   UNL     1       4.826  -7.700  10.639  0.00  0.00    +0.002 A 
ATOM     29  C   UNL     1       4.013  -6.707  11.154  0.00  0.00    +0.000 A 
ATOM     30  C   UNL     1       2.675  -6.655  10.807  0.00  0.00    +0.002 A 
ATOM     31  C   UNL     1       2.148  -7.592   9.940  0.00  0.00    +0.023 A 
ENDBRANCH  23  26
ENDBRANCH   8  21
BRANCH   1  32
ATOM     32  C   UNL     1       0.050  -5.780   2.412  0.00  0.00    +0.105 C 
BRANCH  32  33
ATOM     33  C   UNL     1       0.159  -4.254   2.427  0.00  0.00    +0.034 C 
BRANCH  33  34
ATOM     34  C   UNL     1      -0.493  -3.684   1.166  0.00  0.00    +0.086 C 
BRANCH  34  39
ATOM     35  C   UNL     1       0.373   1.799   0.118  0.00  0.00    +0.105 C 
ATOM     36  N   UNL     1       0.269   0.333   0.103  0.00  0.00    -0.303 NA
ATOM     37  C   UNL     1      -1.132  -0.096   0.213  0.00  0.00    +0.099 C 
ATOM     38  C   UNL     1      -1.205  -1.622   0.114  0.00  0.00    +0.100 C 
ATOM     39  N   UNL     1      -0.389  -2.218   1.181  0.00  0.00    -0.300 NA
ATOM     40  C   UNL     1       1.012  -1.789   1.071  0.00  0.00    +0.100 C 
ATOM     41  C   UNL     1       1.085  -0.263   1.170  0.00  0.00    +0.099 C 
ENDBRANCH  34  39
ENDBRANCH  33  34
ENDBRANCH  32  33
ENDBRANCH   1  32
TORSDOF 7
