REMARK  Name = CHEMBL60979
REMARK  9 active torsions:
REMARK  status: ('A' for Active; 'I' for Inactive)
REMARK    1  A    between atoms: C_1  and  N_2
REMARK    2  A    between atoms: N_5  and  C_8
REMARK    3  A    between atoms: C_8  and  C_9
REMARK    4  A    between atoms: C_9  and  C_10
REMARK    5  A    between atoms: C_10  and  N_11
REMARK    6  A    between atoms: C_17  and  C_34
REMARK    7  A    between atoms: N_25  and  C_26
REMARK    8  A    between atoms: C_30  and  O_32
REMARK    9  A    between atoms: O_32  and  C_33
REMARK                            x       y       z     vdW  Elec       q    Type
REMARK                         _______ _______ _______ _____ _____    ______ ____
ROOT
ATOM      1  N   UNL     1       0.457  -6.472   3.864  0.00  0.00    -0.313 N 
ATOM      2  C   UNL     1       0.537  -7.824   4.138  0.00  0.00    +0.217 A 
ATOM      3  N   UNL     1       0.139  -8.689   3.208  0.00  0.00    -0.222 NA
ATOM      4  C   UNL     1       0.192  -9.990   3.412  0.00  0.00    +0.126 A 
ATOM      5  C   UNL     1       0.682 -10.456   4.644  0.00  0.00    +0.038 A 
ATOM      6  C   UNL     1       0.769 -11.826   4.937  0.00  0.00    +0.025 A 
ATOM      7  C   UNL     1       1.265 -12.195   6.178  0.00  0.00    +0.026 A 
ATOM      8  C   UNL     1       1.660 -11.195   7.092  0.00  0.00    +0.136 A 
ATOM      9  N   UNL     1       1.568  -9.915   6.794  0.00  0.00    -0.212 NA
ATOM     10  C   UNL     1       1.098  -9.506   5.614  0.00  0.00    +0.167 A 
ATOM     11  N   UNL     1       1.010  -8.205   5.310  0.00  0.00    -0.195 NA
ATOM     12  N   UNL     1       2.156 -11.568   8.333  0.00  0.00    -0.253 N 
ATOM     13  C   UNL     1       2.537 -10.625   9.217  0.00  0.00    +0.309 C 
ATOM     14  O   UNL     1       2.446  -9.448   8.928  0.00  0.00    -0.252 OA
ATOM     15  N   UNL     1       3.019 -10.988  10.423  0.00  0.00    -0.269 N 
ATOM     16  H   UNL     1       0.746  -5.825   4.526  0.00  0.00    +0.149 HD
ATOM     17  H   UNL     1       2.228 -12.507   8.564  0.00  0.00    +0.158 HD
ATOM     18  H   UNL     1       3.029 -11.923  10.680  0.00  0.00    +0.156 HD
ENDROOT
BRANCH   7  19
ATOM     19  C   UNL     1       1.380 -13.628   6.542  0.00  0.00    +0.022 A 
ATOM     20  C   UNL     1       0.315 -14.280   7.162  0.00  0.00    +0.050 A 
ATOM     21  C   UNL     1       0.427 -15.615   7.498  0.00  0.00    +0.021 A 
ATOM     22  C   UNL     1       1.594 -16.305   7.221  0.00  0.00    +0.003 A 
ATOM     23  C   UNL     1       2.654 -15.664   6.605  0.00  0.00    +0.021 A 
ATOM     24  C   UNL     1       2.551 -14.331   6.259  0.00  0.00    +0.050 A 
ATOM     25 CL   UNL     1       3.880 -13.530   5.480  0.00  0.00    -0.083 Cl
ATOM     26 CL   UNL     1      -1.149 -13.415   7.513  0.00  0.00    -0.083 Cl
ENDBRANCH   7  19
BRANCH  15  27
ATOM     27  C   UNL     1       3.505 -10.015  11.304  0.00  0.00    +0.038 A 
ATOM     28  C   UNL     1       4.590 -10.298  12.123  0.00  0.00    +0.023 A 
ATOM     29  C   UNL     1       5.070  -9.338  12.992  0.00  0.00    +0.005 A 
ATOM     30  C   UNL     1       4.471  -8.093  13.049  0.00  0.00    +0.046 A 
ATOM     31  C   UNL     1       3.387  -7.804  12.233  0.00  0.00    +0.122 A 
ATOM     32  C   UNL     1       2.906  -8.764  11.356  0.00  0.00    +0.069 A 
BRANCH  31  33
ATOM     33  O   UNL     1       2.800  -6.580  12.290  0.00  0.00    -0.495 OA
ATOM     34  C   UNL     1       3.350  -5.639  13.214  0.00  0.00    +0.277 C 
ENDBRANCH  31  33
ENDBRANCH  15  27
BRANCH   1  35
ATOM     35  C   UNL     1      -0.063  -6.016   2.573  0.00  0.00    +0.105 C 
BRANCH  35  36
ATOM     36  C   UNL     1      -0.045  -4.487   2.526  0.00  0.00    +0.034 C 
BRANCH  36  37
ATOM     37  C   UNL     1      -0.588  -4.011   1.178  0.00  0.00    +0.086 C 
BRANCH  37  42
ATOM     38  C   UNL     1       0.063   1.455  -0.025  0.00  0.00    -0.096 C 
ATOM     39  N   UNL     1       0.073  -0.014  -0.029  0.00  0.00    +0.379 N 
ATOM     40  C   UNL     1      -1.309  -0.513  -0.018  0.00  0.00    -0.064 C 
ATOM     41  C   UNL     1      -1.300  -2.043  -0.041  0.00  0.00    +0.066 C 
ATOM     42  N   UNL     1      -0.571  -2.543   1.133  0.00  0.00    -0.306 NA
ATOM     43  C   UNL     1       0.807  -2.032   1.149  0.00  0.00    +0.066 C 
ATOM     44  C   UNL     1       0.781  -0.502   1.162  0.00  0.00    -0.064 C 
ATOM     45  H   UNL     1       0.543  -0.345  -0.858  0.00  0.00    -0.082 HD
ENDBRANCH  37  42
ENDBRANCH  36  37
ENDBRANCH  35  36
ENDBRANCH   1  35
TORSDOF 7
