REMARK  Name = CHEMBL497049
REMARK  8 active torsions:
REMARK  status: ('A' for Active; 'I' for Inactive)
REMARK    1  A    between atoms: C_1  and  O_2
REMARK    2  A    between atoms: O_2  and  C_3
REMARK    3  A    between atoms: C_3  and  C_5
REMARK    4  A    between atoms: C_15  and  C_16
REMARK    5  A    between atoms: C_15  and  N_22
REMARK    6  A    between atoms: N_22  and  C_23
REMARK    7  A    between atoms: C_26  and  C_29
REMARK    8  A    between atoms: C_29  and  N_30
REMARK                            x       y       z     vdW  Elec       q    Type
REMARK                         _______ _______ _______ _____ _____    ______ ____
ROOT
ATOM      1  C   UNL     1       1.601  -2.481  -1.693  0.00  0.00    +0.061 A 
ATOM      2  C   UNL     1       1.305  -3.081  -0.464  0.00  0.00    +0.016 A 
ATOM      3  C   UNL     1       1.012  -4.413  -0.403  0.00  0.00    +0.011 A 
ATOM      4  C   UNL     1       1.009  -5.179  -1.568  0.00  0.00    +0.010 A 
ATOM      5  C   UNL     1       1.304  -4.591  -2.809  0.00  0.00    +0.042 A 
ATOM      6  C   UNL     1       1.595  -3.239  -2.866  0.00  0.00    +0.039 A 
ATOM      7  N   UNL     1       1.228  -5.576  -3.787  0.00  0.00    -0.281 N 
ATOM      8  C   UNL     1       0.902  -6.762  -3.248  0.00  0.00    +0.251 C 
ATOM      9  O   UNL     1       0.764  -7.805  -3.862  0.00  0.00    -0.270 OA
ATOM     10  C   UNL     1       0.743  -6.604  -1.845  0.00  0.00    +0.068 C 
ATOM     11  C   UNL     1       0.407  -7.590  -0.922  0.00  0.00    +0.051 C 
ATOM     12  H   UNL     1       1.389  -5.427  -4.732  0.00  0.00    +0.155 HD
ENDROOT
BRANCH  11  13
ATOM     13  C   UNL     1       0.333  -9.001  -1.345  0.00  0.00    -0.003 A 
ATOM     14  C   UNL     1      -0.814  -9.755  -1.078  0.00  0.00    +0.010 A 
ATOM     15  C   UNL     1      -0.876 -11.073  -1.477  0.00  0.00    +0.001 A 
ATOM     16  C   UNL     1       0.194 -11.651  -2.139  0.00  0.00    +0.000 A 
ATOM     17  C   UNL     1       1.332 -10.911  -2.406  0.00  0.00    +0.001 A 
ATOM     18  C   UNL     1       1.407  -9.589  -2.019  0.00  0.00    +0.010 A 
ENDBRANCH  11  13
BRANCH   1  19
ATOM     19  C   UNL     1       1.916  -1.042  -1.751  0.00  0.00    +0.339 C 
ATOM     20  O   UNL     1       2.168  -0.517  -2.817  0.00  0.00    -0.245 OA
BRANCH  19  22
ATOM     21  C   UNL     1       2.235   1.081  -0.750  0.00  0.00    +0.280 C 
ATOM     22  O   UNL     1       1.922  -0.308  -0.620  0.00  0.00    -0.464 OA
ENDBRANCH  19  22
ENDBRANCH   1  19
BRANCH  11  23
ATOM     23  N   UNL     1       0.145  -7.250   0.379  0.00  0.00    -0.313 N 
ATOM     24  H   UNL     1      -0.566  -6.623   0.582  0.00  0.00    +0.152 HD
BRANCH  23  25
ATOM     25  C   UNL     1       0.902  -7.807   1.412  0.00  0.00    +0.031 A 
ATOM     26  C   UNL     1       2.033  -8.559   1.120  0.00  0.00    +0.023 A 
ATOM     27  C   UNL     1       2.780  -9.108   2.144  0.00  0.00    +0.003 A 
ATOM     28  C   UNL     1       2.402  -8.910   3.459  0.00  0.00    -0.064 A 
ATOM     29  C   UNL     1       1.278  -8.162   3.754  0.00  0.00    +0.003 A 
ATOM     30  C   UNL     1       0.530  -7.605   2.735  0.00  0.00    +0.023 A 
BRANCH  28  31
ATOM     31  C   UNL     1       3.219  -9.511   4.574  0.00  0.00    -0.043 C 
BRANCH  31  32
ATOM     32  N   UNL     1       4.260  -8.560   4.986  0.00  0.00    +0.382 N 
ATOM     33  C   UNL     1       5.197  -8.352   3.876  0.00  0.00    -0.078 C 
ATOM     34  C   UNL     1       6.237  -7.301   4.271  0.00  0.00    -0.019 C 
ATOM     35  C   UNL     1       7.004  -7.789   5.504  0.00  0.00    -0.004 C 
ATOM     36  C   UNL     1       6.009  -8.074   6.632  0.00  0.00    -0.019 C 
ATOM     37  C   UNL     1       4.978  -9.096   6.149  0.00  0.00    -0.078 C 
ATOM     38  H   UNL     1       3.832  -7.680   5.232  0.00  0.00    -0.081 HD
ENDBRANCH  31  32
ENDBRANCH  28  31
ENDBRANCH  23  25
ENDBRANCH  11  23
TORSDOF 7
