REMARK  Name = CHEMBL205405
REMARK  4 active torsions:
REMARK  status: ('A' for Active; 'I' for Inactive)
REMARK    1  A    between atoms: C_1  and  N_2
REMARK    2  A    between atoms: N_5  and  C_8
REMARK    3  A    between atoms: C_15  and  C_18
REMARK    4  A    between atoms: C_19  and  N_29
REMARK                            x       y       z     vdW  Elec       q    Type
REMARK                         _______ _______ _______ _____ _____    ______ ____
ROOT
ATOM      1  C   UNL     1      -0.897  -3.749   1.524  0.00  0.00    +0.032 A 
ATOM      2  C   UNL     1      -2.200  -4.213   1.351  0.00  0.00    +0.025 A 
ATOM      3  C   UNL     1      -2.678  -5.252   2.120  0.00  0.00    +0.029 A 
ATOM      4  C   UNL     1      -1.861  -5.842   3.073  0.00  0.00    +0.067 A 
ATOM      5  C   UNL     1      -0.545  -5.381   3.254  0.00  0.00    +0.091 A 
ATOM      6  C   UNL     1      -0.068  -4.330   2.465  0.00  0.00    +0.053 A 
ATOM      7  N   UNL     1       0.012  -6.132   4.237  0.00  0.00    -0.227 NA
ATOM      8  C   UNL     1      -0.861  -7.013   4.668  0.00  0.00    +0.146 A 
ATOM      9  N   UNL     1      -2.037  -6.875   3.979  0.00  0.00    -0.338 N 
ATOM     10  H   UNL     1      -2.842  -7.402   4.102  0.00  0.00    +0.167 HD
ENDROOT
BRANCH   8  11
ATOM     11  C   UNL     1      -0.613  -8.001   5.732  0.00  0.00    +0.104 A 
ATOM     12  C   UNL     1       0.581  -7.971   6.452  0.00  0.00    +0.068 A 
ATOM     13  C   UNL     1       0.783  -8.978   7.505  0.00  0.00    +0.109 A 
ATOM     14  C   UNL     1      -0.229  -9.923   7.740  0.00  0.00    +0.069 A 
ATOM     15  C   UNL     1      -0.041 -10.880   8.738  0.00  0.00    +0.029 A 
ATOM     16  C   UNL     1       1.140 -10.855   9.454  0.00  0.00    +0.022 A 
ATOM     17  C   UNL     1       2.097  -9.890   9.167  0.00  0.00    +0.111 A 
ATOM     18  N   UNL     1       1.902  -8.997   8.223  0.00  0.00    -0.252 NA
ATOM     19  N   UNL     1      -1.388  -9.901   6.993  0.00  0.00    -0.320 N 
ATOM     20  C   UNL     1      -1.589  -8.983   6.033  0.00  0.00    +0.262 A 
ATOM     21  O   UNL     1      -2.632  -8.999   5.402  0.00  0.00    -0.267 OA
ATOM     22  H   UNL     1      -2.077 -10.561   7.168  0.00  0.00    +0.169 HD
BRANCH  12  23
ATOM     23  N   UNL     1       1.542  -7.026   6.185  0.00  0.00    -0.356 N 
ATOM     24  H   UNL     1       1.363  -6.319   5.545  0.00  0.00    +0.142 HD
ATOM     25  H   UNL     1       2.400  -7.065   6.636  0.00  0.00    +0.142 HD
ENDBRANCH  12  23
ENDBRANCH   8  11
BRANCH   1  30
ATOM     26  C   UNL     1       1.632  -1.172  -2.591  0.00  0.00    +0.105 C 
ATOM     27  N   UNL     1       0.863  -1.379  -1.356  0.00  0.00    -0.302 NA
ATOM     28  C   UNL     1       1.671  -2.068  -0.341  0.00  0.00    +0.103 C 
ATOM     29  C   UNL     1       0.900  -2.103   0.983  0.00  0.00    +0.120 C 
ATOM     30  N   UNL     1      -0.424  -2.693   0.737  0.00  0.00    -0.327 N 
ATOM     31  C   UNL     1      -1.238  -2.144  -0.358  0.00  0.00    +0.120 C 
ATOM     32  C   UNL     1      -0.384  -2.107  -1.629  0.00  0.00    +0.103 C 
ENDBRANCH   1  30
TORSDOF 3
