REMARK  Name = CHEMBL495984
REMARK  6 active torsions:
REMARK  status: ('A' for Active; 'I' for Inactive)
REMARK    1  A    between atoms: C_1  and  C_2
REMARK    2  A    between atoms: C_2  and  C_3
REMARK    3  A    between atoms: N_6  and  C_32
REMARK    4  A    between atoms: C_7  and  N_9
REMARK    5  A    between atoms: N_9  and  C_10
REMARK    6  A    between atoms: C_21  and  C_22
REMARK                            x       y       z     vdW  Elec       q    Type
REMARK                         _______ _______ _______ _____ _____    ______ ____
ROOT
ATOM      1  C   UNL     1       0.858  -4.543   3.753  0.00  0.00    +0.051 A 
ATOM      2  C   UNL     1       0.796  -5.999   3.935  0.00  0.00    +0.020 A 
ATOM      3  C   UNL     1       0.803  -6.863   2.836  0.00  0.00    +0.012 A 
ATOM      4  C   UNL     1       0.745  -8.214   3.035  0.00  0.00    +0.001 A 
ATOM      5  C   UNL     1       0.679  -8.734   4.320  0.00  0.00    +0.002 A 
ATOM      6  C   UNL     1       0.672  -7.900   5.417  0.00  0.00    +0.026 A 
ATOM      7  C   UNL     1       0.730  -6.521   5.238  0.00  0.00    +0.051 A 
ATOM      8  N   UNL     1       0.724  -5.669   6.324  0.00  0.00    -0.321 N 
ATOM      9  H   UNL     1       0.679  -6.042   7.218  0.00  0.00    +0.169 HD
ATOM     10  C   UNL     1       0.781  -4.336   6.173  0.00  0.00    +0.262 A 
ATOM     11  O   UNL     1       0.773  -3.624   7.162  0.00  0.00    -0.267 OA
ATOM     12  C   UNL     1       0.853  -3.737   4.893  0.00  0.00    +0.103 A 
ENDROOT
BRANCH  12  13
ATOM     13  C   UNL     1       0.919  -2.271   4.764  0.00  0.00    +0.146 A 
ATOM     14  N   UNL     1       0.808  -1.382   5.801  0.00  0.00    -0.338 N 
ATOM     15  H   UNL     1       0.674  -1.602   6.736  0.00  0.00    +0.167 HD
ATOM     16  C   UNL     1       0.923  -0.112   5.264  0.00  0.00    +0.066 A 
ATOM     17  C   UNL     1       0.893   1.165   5.804  0.00  0.00    +0.028 A 
ATOM     18  C   UNL     1       1.041   2.262   4.981  0.00  0.00    +0.002 A 
ATOM     19  C   UNL     1       1.221   2.098   3.616  0.00  0.00    +0.002 A 
ATOM     20  C   UNL     1       1.254   0.839   3.061  0.00  0.00    +0.030 A 
ATOM     21  C   UNL     1       1.105  -0.285   3.881  0.00  0.00    +0.089 A 
ATOM     22  N   UNL     1       1.099  -1.619   3.638  0.00  0.00    -0.227 NA
ENDBRANCH  12  13
BRANCH   1  23
ATOM     23  N   UNL     1       0.924  -3.990   2.497  0.00  0.00    -0.356 N 
ATOM     24  H   UNL     1       1.637  -3.370   2.277  0.00  0.00    +0.144 HD
BRANCH  23  29
ATOM     25  C   UNL     1      -0.447  -4.969  -0.897  0.00  0.00    -0.013 C 
ATOM     26  C   UNL     1      -1.471  -3.833  -0.991  0.00  0.00    -0.015 C 
ATOM     27  C   UNL     1      -2.084  -3.593   0.391  0.00  0.00    -0.076 C 
ATOM     28  N   UNL     1      -1.029  -3.225   1.342  0.00  0.00    +0.390 N 
ATOM     29  C   UNL     1      -0.082  -4.337   1.490  0.00  0.00    +0.016 C 
ATOM     30  C   UNL     1       0.608  -4.606   0.151  0.00  0.00    +0.006 C 
ATOM     31  C   UNL     1      -1.631  -2.919   2.646  0.00  0.00    -0.093 C 
ATOM     32  H   UNL     1      -0.539  -2.411   1.001  0.00  0.00    -0.080 HD
BRANCH  25  34
ATOM     33  C   UNL     1      -0.807  -5.644  -3.276  0.00  0.00    +0.004 C 
ATOM     34  C   UNL     1       0.228  -5.162  -2.257  0.00  0.00    -0.000 C 
ENDBRANCH  25  34
ENDBRANCH  23  29
ENDBRANCH   1  23
TORSDOF 4
