REMARK  Name = CHEMBL60979
REMARK  9 active torsions:
REMARK  status: ('A' for Active; 'I' for Inactive)
REMARK    1  A    between atoms: C_1  and  N_2
REMARK    2  A    between atoms: N_5  and  C_8
REMARK    3  A    between atoms: C_8  and  C_9
REMARK    4  A    between atoms: C_9  and  C_10
REMARK    5  A    between atoms: C_10  and  N_11
REMARK    6  A    between atoms: C_17  and  C_34
REMARK    7  A    between atoms: N_25  and  C_26
REMARK    8  A    between atoms: C_30  and  O_32
REMARK    9  A    between atoms: O_32  and  C_33
REMARK                            x       y       z     vdW  Elec       q    Type
REMARK                         _______ _______ _______ _____ _____    ______ ____
ROOT
ATOM      1  N   UNL     1       0.687  -6.640   3.474  0.00  0.00    -0.313 N 
ATOM      2  C   UNL     1       0.824  -8.003   3.658  0.00  0.00    +0.217 A 
ATOM      3  N   UNL     1       0.434  -8.821   2.683  0.00  0.00    -0.222 NA
ATOM      4  C   UNL     1       0.541 -10.129   2.801  0.00  0.00    +0.126 A 
ATOM      5  C   UNL     1       1.080 -10.653   3.988  0.00  0.00    +0.038 A 
ATOM      6  C   UNL     1       1.226 -12.036   4.190  0.00  0.00    +0.025 A 
ATOM      7  C   UNL     1       1.767 -12.463   5.392  0.00  0.00    +0.026 A 
ATOM      8  C   UNL     1       2.148 -11.509   6.360  0.00  0.00    +0.136 A 
ATOM      9  N   UNL     1       2.000 -10.217   6.147  0.00  0.00    -0.212 NA
ATOM     10  C   UNL     1       1.485  -9.752   5.008  0.00  0.00    +0.167 A 
ATOM     11  N   UNL     1       1.341  -8.439   4.791  0.00  0.00    -0.195 NA
ATOM     12  N   UNL     1       2.689 -11.941   7.562  0.00  0.00    -0.253 N 
ATOM     13  C   UNL     1       3.058 -11.043   8.496  0.00  0.00    +0.309 C 
ATOM     14  O   UNL     1       2.916  -9.854   8.286  0.00  0.00    -0.252 OA
ATOM     15  N   UNL     1       3.584 -11.463   9.664  0.00  0.00    -0.269 N 
ATOM     16  H   UNL     1       0.968  -6.026   4.170  0.00  0.00    +0.149 HD
ATOM     17  H   UNL     1       2.803 -12.890   7.730  0.00  0.00    +0.158 HD
ATOM     18  H   UNL     1       3.635 -12.411   9.860  0.00  0.00    +0.156 HD
ENDROOT
BRANCH   7  19
ATOM     19  C   UNL     1       1.944 -13.911   5.659  0.00  0.00    +0.022 A 
ATOM     20  C   UNL     1       0.921 -14.642   6.261  0.00  0.00    +0.050 A 
ATOM     21  C   UNL     1       1.092 -15.991   6.507  0.00  0.00    +0.021 A 
ATOM     22  C   UNL     1       2.276 -16.616   6.158  0.00  0.00    +0.003 A 
ATOM     23  C   UNL     1       3.295 -15.896   5.561  0.00  0.00    +0.021 A 
ATOM     24  C   UNL     1       3.134 -14.548   5.304  0.00  0.00    +0.050 A 
ATOM     25 CL   UNL     1       4.411 -13.648   4.548  0.00  0.00    -0.083 Cl
ATOM     26 CL   UNL     1      -0.565 -13.860   6.701  0.00  0.00    -0.083 Cl
ENDBRANCH   7  19
BRANCH  15  27
ATOM     27  C   UNL     1       4.056 -10.530  10.595  0.00  0.00    +0.038 A 
ATOM     28  C   UNL     1       5.172 -10.822  11.368  0.00  0.00    +0.023 A 
ATOM     29  C   UNL     1       5.637  -9.902  12.286  0.00  0.00    +0.005 A 
ATOM     30  C   UNL     1       4.995  -8.687  12.438  0.00  0.00    +0.046 A 
ATOM     31  C   UNL     1       3.880  -8.389  11.668  0.00  0.00    +0.122 A 
ATOM     32  C   UNL     1       3.412  -9.309  10.742  0.00  0.00    +0.069 A 
BRANCH  31  33
ATOM     33  O   UNL     1       3.249  -7.195  11.818  0.00  0.00    -0.495 OA
ATOM     34  C   UNL     1       3.788  -6.294  12.787  0.00  0.00    +0.277 C 
ENDBRANCH  31  33
ENDBRANCH  15  27
BRANCH   1  35
ATOM     35  C   UNL     1       0.116  -6.123   2.227  0.00  0.00    +0.102 C 
BRANCH  35  36
ATOM     36  C   UNL     1       0.076  -4.595   2.280  0.00  0.00    +0.000 C 
BRANCH  36  37
ATOM     37  C   UNL     1      -0.519  -4.055   0.978  0.00  0.00    -0.077 C 
BRANCH  37  42
ATOM     38  C   UNL     1       0.062   1.459  -0.028  0.00  0.00    +0.104 C 
ATOM     39  N   UNL     1       0.072  -0.010  -0.031  0.00  0.00    -0.309 NA
ATOM     40  C   UNL     1      -1.294  -0.546  -0.106  0.00  0.00    +0.065 C 
ATOM     41  C   UNL     1      -1.238  -2.074  -0.168  0.00  0.00    -0.063 C 
ATOM     42  N   UNL     1      -0.557  -2.587   1.029  0.00  0.00    +0.381 N 
ATOM     43  C   UNL     1       0.814  -2.063   1.077  0.00  0.00    -0.063 C 
ATOM     44  C   UNL     1       0.774  -0.535   1.149  0.00  0.00    +0.065 C 
ATOM     45  H   UNL     1      -1.059  -2.292   1.853  0.00  0.00    -0.082 HD
ENDBRANCH  37  42
ENDBRANCH  36  37
ENDBRANCH  35  36
ENDBRANCH   1  35
TORSDOF 7
