REMARK  Name = CHEMBL380702
REMARK  3 active torsions:
REMARK  status: ('A' for Active; 'I' for Inactive)
REMARK    1  A    between atoms: C_7  and  N_28
REMARK    2  A    between atoms: C_8  and  C_12
REMARK    3  A    between atoms: C_17  and  N_22
REMARK                            x       y       z     vdW  Elec       q    Type
REMARK                         _______ _______ _______ _____ _____    ______ ____
ROOT
ATOM      1  C   UNL     1       2.419  -4.226  -0.023  0.00  0.00    +0.148 A 
ATOM      2  N   UNL     1       3.532  -5.017   0.071  0.00  0.00    -0.336 N 
ATOM      3  C   UNL     1       3.097  -6.331   0.037  0.00  0.00    +0.086 A 
ATOM      4  C   UNL     1       3.739  -7.562   0.093  0.00  0.00    +0.033 A 
ATOM      5  C   UNL     1       2.967  -8.708   0.031  0.00  0.00    +0.046 A 
ATOM      6  C   UNL     1       1.583  -8.596  -0.083  0.00  0.00    +0.124 A 
ATOM      7  N   UNL     1       0.994  -7.415  -0.135  0.00  0.00    -0.211 NA
ATOM      8  H   UNL     1       4.451  -4.715   0.146  0.00  0.00    +0.167 HD
ATOM      9  C   UNL     1       1.697  -6.282  -0.079  0.00  0.00    +0.180 A 
ATOM     10  N   UNL     1       1.346  -4.981  -0.105  0.00  0.00    -0.208 NA
ENDROOT
BRANCH   1  18
ATOM     11  C   UNL     1       0.190   1.549   0.034  0.00  0.00    +0.001 A 
ATOM     12  C   UNL     1       1.425   2.180  -0.001  0.00  0.00    +0.002 A 
ATOM     13  C   UNL     1       2.590   1.443  -0.033  0.00  0.00    +0.026 A 
ATOM     14  C   UNL     1       2.529   0.053  -0.030  0.00  0.00    +0.051 A 
ATOM     15  C   UNL     1       1.275  -0.581   0.006  0.00  0.00    +0.020 A 
ATOM     16  C   UNL     1       0.106   0.185   0.037  0.00  0.00    +0.012 A 
ATOM     17  C   UNL     1       1.218  -2.049   0.009  0.00  0.00    +0.050 A 
ATOM     18  C   UNL     1       2.423  -2.754  -0.025  0.00  0.00    +0.103 A 
ATOM     19  C   UNL     1       3.647  -2.045  -0.060  0.00  0.00    +0.262 A 
ATOM     20  N   UNL     1       3.684  -0.703  -0.061  0.00  0.00    -0.321 N 
ATOM     21  O   UNL     1       4.694  -2.669  -0.088  0.00  0.00    -0.267 OA
ATOM     22  H   UNL     1       4.543  -0.253  -0.086  0.00  0.00    +0.169 HD
BRANCH  17  23
ATOM     23  N   UNL     1       0.014  -2.708   0.043  0.00  0.00    -0.357 N 
ATOM     24  H   UNL     1      -0.811  -2.208   0.147  0.00  0.00    +0.142 HD
ATOM     25  H   UNL     1      -0.012  -3.675  -0.035  0.00  0.00    +0.142 HD
ENDBRANCH  17  23
ENDBRANCH   1  18
BRANCH   6  26
ATOM     26  N   UNL     1       0.807  -9.749  -0.146  0.00  0.00    -0.311 N 
ATOM     27  C   UNL     1      -0.622  -9.683  -0.491  0.00  0.00    +0.134 C 
ATOM     28  C   UNL     1      -0.896 -10.694  -1.610  0.00  0.00    +0.178 C 
ATOM     29  O   UNL     1      -0.396 -11.975  -1.220  0.00  0.00    -0.377 OA
ATOM     30  C   UNL     1       1.019 -12.014  -1.018  0.00  0.00    +0.178 C 
ATOM     31  C   UNL     1       1.393 -11.071   0.126  0.00  0.00    +0.134 C 
ENDBRANCH   6  26
TORSDOF 3
