REMARK  Name = CHEMBL495984
REMARK  6 active torsions:
REMARK  status: ('A' for Active; 'I' for Inactive)
REMARK    1  A    between atoms: C_1  and  C_2
REMARK    2  A    between atoms: C_2  and  C_3
REMARK    3  A    between atoms: N_6  and  C_32
REMARK    4  A    between atoms: C_7  and  N_9
REMARK    5  A    between atoms: N_9  and  C_10
REMARK    6  A    between atoms: C_21  and  C_22
REMARK                            x       y       z     vdW  Elec       q    Type
REMARK                         _______ _______ _______ _____ _____    ______ ____
ROOT
ATOM      1  C   UNL     1       1.101  -4.676  -3.781  0.00  0.00    +0.053 A 
ATOM      2  C   UNL     1       1.022  -6.143  -3.777  0.00  0.00    +0.020 A 
ATOM      3  C   UNL     1       1.123  -6.867  -2.586  0.00  0.00    +0.012 A 
ATOM      4  C   UNL     1       1.045  -8.231  -2.613  0.00  0.00    +0.001 A 
ATOM      5  C   UNL     1       0.867  -8.903  -3.813  0.00  0.00    +0.002 A 
ATOM      6  C   UNL     1       0.764  -8.209  -5.000  0.00  0.00    +0.026 A 
ATOM      7  C   UNL     1       0.840  -6.820  -4.997  0.00  0.00    +0.051 A 
ATOM      8  N   UNL     1       0.739  -6.106  -6.174  0.00  0.00    -0.321 N 
ATOM      9  H   UNL     1       0.614  -6.585  -7.008  0.00  0.00    +0.169 HD
ATOM     10  C   UNL     1       0.809  -4.765  -6.192  0.00  0.00    +0.262 A 
ATOM     11  O   UNL     1       0.714  -4.179  -7.257  0.00  0.00    -0.267 OA
ATOM     12  C   UNL     1       0.986  -4.014  -5.005  0.00  0.00    +0.103 A 
ENDROOT
BRANCH  12  13
ATOM     13  C   UNL     1       1.053  -2.545  -5.061  0.00  0.00    +0.146 A 
ATOM     14  N   UNL     1       0.824  -1.787  -6.180  0.00  0.00    -0.338 N 
ATOM     15  H   UNL     1       0.593  -2.117  -7.062  0.00  0.00    +0.167 HD
ATOM     16  C   UNL     1       0.985  -0.462  -5.816  0.00  0.00    +0.066 A 
ATOM     17  C   UNL     1       0.885   0.741  -6.499  0.00  0.00    +0.028 A 
ATOM     18  C   UNL     1       1.111   1.929  -5.835  0.00  0.00    +0.002 A 
ATOM     19  C   UNL     1       1.437   1.930  -4.487  0.00  0.00    +0.002 A 
ATOM     20  C   UNL     1       1.541   0.747  -3.792  0.00  0.00    +0.030 A 
ATOM     21  C   UNL     1       1.315  -0.467  -4.449  0.00  0.00    +0.089 A 
ATOM     22  N   UNL     1       1.336  -1.761  -4.046  0.00  0.00    -0.227 NA
ENDBRANCH  12  13
BRANCH   1  23
ATOM     23  N   UNL     1       1.277  -3.975  -2.613  0.00  0.00    -0.327 N 
ATOM     24  H   UNL     1       2.016  -3.353  -2.527  0.00  0.00    +0.148 HD
BRANCH  23  29
ATOM     25  C   UNL     1       0.164  -4.492   0.972  0.00  0.00    -0.007 C 
ATOM     26  C   UNL     1      -0.789  -3.295   1.020  0.00  0.00    +0.019 C 
ATOM     27  C   UNL     1      -1.524  -3.180  -0.317  0.00  0.00    +0.086 C 
ATOM     28  N   UNL     1      -0.548  -3.008  -1.401  0.00  0.00    -0.288 NA
ATOM     29  C   UNL     1       0.348  -4.168  -1.496  0.00  0.00    +0.141 C 
ATOM     30  C   UNL     1       1.139  -4.312  -0.194  0.00  0.00    +0.042 C 
ATOM     31  C   UNL     1       0.216  -1.765  -1.229  0.00  0.00    +0.106 C 
BRANCH  25  33
ATOM     32  C   UNL     1      -0.017  -4.880   3.434  0.00  0.00    +0.004 C 
ATOM     33  C   UNL     1       0.946  -4.576   2.284  0.00  0.00    +0.000 C 
ENDBRANCH  25  33
ENDBRANCH  23  29
ENDBRANCH   1  23
TORSDOF 4
