REMARK  Name = CHEMBL526658
REMARK  6 active torsions:
REMARK  status: ('A' for Active; 'I' for Inactive)
REMARK    1  A    between atoms: C_7  and  N_31
REMARK    2  A    between atoms: C_8  and  C_13
REMARK    3  A    between atoms: C_18  and  O_22
REMARK    4  A    between atoms: O_22  and  C_23
REMARK    5  A    between atoms: C_23  and  C_24
REMARK    6  A    between atoms: C_24  and  N_25
REMARK                            x       y       z     vdW  Elec       q    Type
REMARK                         _______ _______ _______ _____ _____    ______ ____
ROOT
ATOM      1  C   UNL     1       4.146  -4.577   0.204  0.00  0.00    +0.146 A 
ATOM      2  N   UNL     1       3.012  -5.175  -0.083  0.00  0.00    -0.227 NA
ATOM      3  C   UNL     1       3.180  -6.521  -0.029  0.00  0.00    +0.090 A 
ATOM      4  C   UNL     1       2.320  -7.603  -0.242  0.00  0.00    +0.033 A 
ATOM      5  C   UNL     1       2.786  -8.880  -0.112  0.00  0.00    +0.048 A 
ATOM      6  C   UNL     1       4.113  -9.119   0.232  0.00  0.00    +0.123 A 
ATOM      7  C   UNL     1       4.981  -8.062   0.447  0.00  0.00    +0.073 A 
ATOM      8  C   UNL     1       4.521  -6.759   0.318  0.00  0.00    +0.070 A 
ATOM      9  N   UNL     1       5.113  -5.517   0.455  0.00  0.00    -0.338 N 
ATOM     10  H   UNL     1       6.038  -5.342   0.686  0.00  0.00    +0.167 HD
ENDROOT
BRANCH   1  18
ATOM     11  C   UNL     1       2.741   1.450   0.055  0.00  0.00    +0.001 A 
ATOM     12  C   UNL     1       4.039   1.904   0.242  0.00  0.00    +0.002 A 
ATOM     13  C   UNL     1       5.082   1.014   0.381  0.00  0.00    +0.026 A 
ATOM     14  C   UNL     1       4.834  -0.354   0.335  0.00  0.00    +0.051 A 
ATOM     15  C   UNL     1       3.517  -0.809   0.146  0.00  0.00    +0.020 A 
ATOM     16  C   UNL     1       2.474   0.111   0.006  0.00  0.00    +0.012 A 
ATOM     17  C   UNL     1       3.263  -2.255   0.098  0.00  0.00    +0.050 A 
ATOM     18  C   UNL     1       4.349  -3.119   0.244  0.00  0.00    +0.103 A 
ATOM     19  C   UNL     1       5.647  -2.587   0.431  0.00  0.00    +0.262 A 
ATOM     20  O   UNL     1       6.590  -3.349   0.556  0.00  0.00    -0.267 OA
ATOM     21  N   UNL     1       5.865  -1.262   0.473  0.00  0.00    -0.321 N 
ATOM     22  H   UNL     1       6.769  -0.935   0.602  0.00  0.00    +0.169 HD
BRANCH  17  23
ATOM     23  N   UNL     1       1.991  -2.743  -0.084  0.00  0.00    -0.357 N 
ATOM     24  H   UNL     1       1.234  -2.136  -0.081  0.00  0.00    +0.142 HD
ATOM     25  H   UNL     1       1.850  -3.693  -0.215  0.00  0.00    +0.142 HD
ENDBRANCH  17  23
ENDBRANCH   1  18
BRANCH   6  26
ATOM     26  O   UNL     1       4.560 -10.397   0.358  0.00  0.00    -0.491 OA
BRANCH  26  27
ATOM     27  C   UNL     1       3.613 -11.441   0.123  0.00  0.00    +0.244 C 
BRANCH  27  28
ATOM     28  C   UNL     1       4.294 -12.798   0.310  0.00  0.00    +0.125 C 
BRANCH  28  29
ATOM     29  N   UNL     1       4.725 -12.942   1.707  0.00  0.00    -0.295 NA
ATOM     30  C   UNL     1       5.756 -13.981   1.836  0.00  0.00    +0.112 C 
ATOM     31  C   UNL     1       6.218 -14.056   3.294  0.00  0.00    +0.175 C 
ATOM     32  O   UNL     1       5.088 -14.307   4.134  0.00  0.00    -0.377 OA
ATOM     33  C   UNL     1       4.064 -13.314   4.034  0.00  0.00    +0.175 C 
ATOM     34  C   UNL     1       3.581 -13.232   2.584  0.00  0.00    +0.112 C 
ENDBRANCH  28  29
ENDBRANCH  27  28
ENDBRANCH  26  27
ENDBRANCH   6  26
TORSDOF 6
