REMARK  Name = CHEMBL143147
REMARK  6 active torsions:
REMARK  status: ('A' for Active; 'I' for Inactive)
REMARK    1  A    between atoms: C_1  and  C_2
REMARK    2  A    between atoms: C_2  and  C_3
REMARK    3  A    between atoms: C_2  and  N_4
REMARK    4  A    between atoms: N_15  and  C_16
REMARK    5  A    between atoms: C_19  and  N_22
REMARK    6  A    between atoms: N_25  and  C_28
REMARK                            x       y       z     vdW  Elec       q    Type
REMARK                         _______ _______ _______ _____ _____    ______ ____
ROOT
ATOM      1  N   UNL     1      -0.972  -1.260   0.383  0.00  0.00    -0.290 N 
ATOM      2  C   UNL     1      -1.419  -1.445   1.637  0.00  0.00    +0.253 A 
ATOM      3  O   UNL     1      -1.166  -0.609   2.486  0.00  0.00    -0.268 OA
ATOM      4  C   UNL     1      -2.174  -2.580   1.997  0.00  0.00    +0.071 A 
ATOM      5  C   UNL     1      -2.469  -3.527   1.068  0.00  0.00    +0.018 A 
ATOM      6  C   UNL     1      -1.986  -3.333  -0.296  0.00  0.00    +0.036 A 
ATOM      7  C   UNL     1      -1.239  -2.174  -0.604  0.00  0.00    +0.149 A 
ATOM      8  N   UNL     1      -0.809  -2.005  -1.847  0.00  0.00    -0.196 NA
ATOM      9  C   UNL     1      -1.082  -2.906  -2.779  0.00  0.00    +0.221 A 
ATOM     10  N   UNL     1      -1.786  -4.003  -2.526  0.00  0.00    -0.222 NA
ATOM     11  C   UNL     1      -2.244  -4.258  -1.313  0.00  0.00    +0.126 A 
ATOM     12  N   UNL     1      -0.618  -2.696  -4.063  0.00  0.00    -0.284 N 
ATOM     13  H   UNL     1      -0.035  -1.944  -4.251  0.00  0.00    +0.155 HD
ENDROOT
BRANCH  12  14
ATOM     14  C   UNL     1      -0.989  -3.569  -5.094  0.00  0.00    +0.034 A 
ATOM     15  C   UNL     1      -2.283  -4.071  -5.146  0.00  0.00    +0.025 A 
ATOM     16  C   UNL     1      -2.648  -4.931  -6.162  0.00  0.00    +0.025 A 
ATOM     17  C   UNL     1      -1.723  -5.295  -7.131  0.00  0.00    +0.030 A 
ATOM     18  C   UNL     1      -0.429  -4.792  -7.079  0.00  0.00    +0.025 A 
ATOM     19  C   UNL     1      -0.065  -3.928  -6.066  0.00  0.00    +0.025 A 
BRANCH  17  20
ATOM     20  N   UNL     1      -2.093  -6.167  -8.161  0.00  0.00    -0.333 N 
ATOM     21  C   UNL     1      -1.101  -6.658  -9.130  0.00  0.00    +0.086 C 
ATOM     22  C   UNL     1      -1.217  -8.183  -9.214  0.00  0.00    -0.060 C 
ATOM     23  N   UNL     1      -2.604  -8.551  -9.527  0.00  0.00    +0.380 N 
ATOM     24  C   UNL     1      -3.489  -8.148  -8.427  0.00  0.00    -0.060 C 
ATOM     25  C   UNL     1      -3.484  -6.625  -8.300  0.00  0.00    +0.086 C 
ATOM     26  C   UNL     1      -2.692 -10.005  -9.715  0.00  0.00    -0.096 C 
ATOM     27  H   UNL     1      -2.891  -8.087 -10.375  0.00  0.00    -0.082 HD
ENDBRANCH  17  20
ENDBRANCH  12  14
BRANCH   1  29
ATOM     28  C   UNL     1      -1.030   1.185   0.358  0.00  0.00    +0.031 C 
ATOM     29  C   UNL     1      -0.192  -0.061   0.064  0.00  0.00    +0.086 C 
ATOM     30  C   UNL     1       1.077  -0.036   0.918  0.00  0.00    +0.031 C 
ENDBRANCH   1  29
TORSDOF 3
