REMARK  Name = CHEMBL205405
REMARK  4 active torsions:
REMARK  status: ('A' for Active; 'I' for Inactive)
REMARK    1  A    between atoms: C_1  and  N_2
REMARK    2  A    between atoms: N_5  and  C_8
REMARK    3  A    between atoms: C_15  and  C_17
REMARK    4  A    between atoms: C_18  and  N_28
REMARK                            x       y       z     vdW  Elec       q    Type
REMARK                         _______ _______ _______ _____ _____    ______ ____
ROOT
ATOM      1  C   UNL     1      -0.997  -3.571   1.819  0.00  0.00    +0.032 A 
ATOM      2  C   UNL     1      -2.313  -4.014   1.708  0.00  0.00    +0.025 A 
ATOM      3  C   UNL     1      -2.777  -5.020   2.507  0.00  0.00    +0.032 A 
ATOM      4  C   UNL     1      -1.928  -5.615   3.446  0.00  0.00    +0.090 A 
ATOM      5  C   UNL     1      -0.599  -5.170   3.559  0.00  0.00    +0.068 A 
ATOM      6  C   UNL     1      -0.139  -4.152   2.738  0.00  0.00    +0.051 A 
ATOM      7  N   UNL     1      -0.018  -5.935   4.554  0.00  0.00    -0.338 N 
ATOM      8  C   UNL     1      -0.978  -6.803   5.011  0.00  0.00    +0.146 A 
ATOM      9  N   UNL     1      -2.098  -6.609   4.354  0.00  0.00    -0.227 NA
ATOM     10  H   UNL     1       0.896  -5.871   4.870  0.00  0.00    +0.167 HD
ENDROOT
BRANCH   8  11
ATOM     11  C   UNL     1      -0.781  -7.801   6.076  0.00  0.00    +0.104 A 
ATOM     12  C   UNL     1      -1.790  -8.716   6.373  0.00  0.00    +0.068 A 
ATOM     13  C   UNL     1      -1.547  -9.694   7.445  0.00  0.00    +0.109 A 
ATOM     14  C   UNL     1      -0.316  -9.665   8.120  0.00  0.00    +0.069 A 
ATOM     15  C   UNL     1      -0.081 -10.591   9.137  0.00  0.00    +0.029 A 
ATOM     16  C   UNL     1      -1.078 -11.501   9.436  0.00  0.00    +0.022 A 
ATOM     17  C   UNL     1      -2.271 -11.470   8.726  0.00  0.00    +0.111 A 
ATOM     18  N   UNL     1      -2.474 -10.590   7.771  0.00  0.00    -0.252 NA
ATOM     19  N   UNL     1       0.643  -8.734   7.779  0.00  0.00    -0.320 N 
ATOM     20  C   UNL     1       0.436  -7.839   6.799  0.00  0.00    +0.262 A 
ATOM     21  O   UNL     1       1.315  -7.039   6.529  0.00  0.00    -0.267 OA
ATOM     22  H   UNL     1       1.488  -8.729   8.256  0.00  0.00    +0.169 HD
BRANCH  12  23
ATOM     23  N   UNL     1      -2.979  -8.704   5.684  0.00  0.00    -0.356 N 
ATOM     24  H   UNL     1      -3.095  -8.108   4.927  0.00  0.00    +0.142 HD
ATOM     25  H   UNL     1      -3.703  -9.291   5.955  0.00  0.00    +0.142 HD
ENDBRANCH  12  23
ENDBRANCH   8  11
BRANCH   1  30
ATOM     26  C   UNL     1      -0.052   1.510   0.060  0.00  0.00    -0.096 C 
ATOM     27  N   UNL     1      -0.030   0.041   0.050  0.00  0.00    +0.380 N 
ATOM     28  C   UNL     1      -1.407  -0.468   0.049  0.00  0.00    -0.060 C 
ATOM     29  C   UNL     1      -1.386  -1.994  -0.078  0.00  0.00    +0.086 C 
ATOM     30  N   UNL     1      -0.538  -2.540   0.993  0.00  0.00    -0.333 N 
ATOM     31  C   UNL     1       0.806  -1.970   1.171  0.00  0.00    +0.086 C 
ATOM     32  C   UNL     1       0.682  -0.444   1.239  0.00  0.00    -0.060 C 
ATOM     33  H   UNL     1       0.446  -0.280  -0.780  0.00  0.00    -0.082 HD
ENDBRANCH   1  30
TORSDOF 3
