REMARK  Name = CHEMBL495984
REMARK  6 active torsions:
REMARK  status: ('A' for Active; 'I' for Inactive)
REMARK    1  A    between atoms: C_1  and  C_2
REMARK    2  A    between atoms: C_2  and  C_3
REMARK    3  A    between atoms: N_6  and  C_32
REMARK    4  A    between atoms: C_7  and  N_9
REMARK    5  A    between atoms: N_9  and  C_10
REMARK    6  A    between atoms: C_21  and  C_22
REMARK                            x       y       z     vdW  Elec       q    Type
REMARK                         _______ _______ _______ _____ _____    ______ ____
ROOT
ATOM      1  C   UNL     1       0.490  -2.606  -4.890  0.00  0.00    +0.053 A 
ATOM      2  C   UNL     1       0.030  -1.900  -6.093  0.00  0.00    +0.020 A 
ATOM      3  C   UNL     1      -0.169  -0.517  -6.086  0.00  0.00    +0.012 A 
ATOM      4  C   UNL     1      -0.596   0.113  -7.220  0.00  0.00    +0.001 A 
ATOM      5  C   UNL     1      -0.835  -0.610  -8.381  0.00  0.00    +0.002 A 
ATOM      6  C   UNL     1      -0.645  -1.975  -8.410  0.00  0.00    +0.026 A 
ATOM      7  C   UNL     1      -0.210  -2.637  -7.266  0.00  0.00    +0.051 A 
ATOM      8  N   UNL     1      -0.013  -4.004  -7.276  0.00  0.00    -0.321 N 
ATOM      9  H   UNL     1      -0.182  -4.501  -8.092  0.00  0.00    +0.169 HD
ATOM     10  C   UNL     1       0.407  -4.662  -6.183  0.00  0.00    +0.262 A 
ATOM     11  O   UNL     1       0.567  -5.869  -6.240  0.00  0.00    -0.267 OA
ATOM     12  C   UNL     1       0.674  -3.988  -4.968  0.00  0.00    +0.103 A 
ENDROOT
BRANCH  12  13
ATOM     13  C   UNL     1       1.139  -4.740  -3.790  0.00  0.00    +0.146 A 
ATOM     14  N   UNL     1       1.246  -6.104  -3.717  0.00  0.00    -0.338 N 
ATOM     15  H   UNL     1       1.032  -6.737  -4.421  0.00  0.00    +0.167 HD
ATOM     16  C   UNL     1       1.716  -6.410  -2.453  0.00  0.00    +0.066 A 
ATOM     17  C   UNL     1       2.018  -7.597  -1.802  0.00  0.00    +0.028 A 
ATOM     18  C   UNL     1       2.481  -7.569  -0.502  0.00  0.00    +0.002 A 
ATOM     19  C   UNL     1       2.646  -6.361   0.160  0.00  0.00    +0.002 A 
ATOM     20  C   UNL     1       2.350  -5.173  -0.469  0.00  0.00    +0.030 A 
ATOM     21  C   UNL     1       1.881  -5.183  -1.787  0.00  0.00    +0.089 A 
ATOM     22  N   UNL     1       1.519  -4.204  -2.653  0.00  0.00    -0.227 NA
ENDBRANCH  12  13
BRANCH   1  23
ATOM     23  N   UNL     1       0.737  -1.924  -3.723  0.00  0.00    -0.327 N 
ATOM     24  H   UNL     1       1.611  -1.979  -3.305  0.00  0.00    +0.148 HD
BRANCH  23  29
ATOM     25  C   UNL     1       1.374   0.039  -1.683  0.00  0.00    -0.007 C 
ATOM     26  C   UNL     1       0.822  -0.724  -0.476  0.00  0.00    +0.019 C 
ATOM     27  C   UNL     1       0.235  -2.057  -0.946  0.00  0.00    +0.086 C 
ATOM     28  N   UNL     1      -0.835  -1.806  -1.920  0.00  0.00    -0.288 NA
ATOM     29  C   UNL     1      -0.319  -1.115  -3.109  0.00  0.00    +0.141 C 
ATOM     30  C   UNL     1       0.251   0.245  -2.704  0.00  0.00    +0.042 C 
ATOM     31  C   UNL     1      -1.937  -1.049  -1.309  0.00  0.00    +0.106 C 
BRANCH  25  33
ATOM     32  C   UNL     1       3.110   1.192  -0.304  0.00  0.00    +0.004 C 
ATOM     33  C   UNL     1       1.907   1.399  -1.228  0.00  0.00    +0.000 C 
ENDBRANCH  25  33
ENDBRANCH  23  29
ENDBRANCH   1  23
TORSDOF 4
