REMARK  Name = CHEMBL495984
REMARK  6 active torsions:
REMARK  status: ('A' for Active; 'I' for Inactive)
REMARK    1  A    between atoms: C_1  and  C_2
REMARK    2  A    between atoms: C_2  and  C_3
REMARK    3  A    between atoms: N_6  and  C_32
REMARK    4  A    between atoms: C_7  and  N_9
REMARK    5  A    between atoms: N_9  and  C_10
REMARK    6  A    between atoms: C_21  and  C_22
REMARK                            x       y       z     vdW  Elec       q    Type
REMARK                         _______ _______ _______ _____ _____    ______ ____
ROOT
ATOM      1  C   UNL     1       3.957  -2.639  -3.005  0.00  0.00    +0.053 A 
ATOM      2  C   UNL     1       5.277  -2.000  -3.079  0.00  0.00    +0.020 A 
ATOM      3  C   UNL     1       5.454  -0.666  -2.703  0.00  0.00    +0.012 A 
ATOM      4  C   UNL     1       6.694  -0.098  -2.782  0.00  0.00    +0.001 A 
ATOM      5  C   UNL     1       7.779  -0.835  -3.235  0.00  0.00    +0.002 A 
ATOM      6  C   UNL     1       7.627  -2.152  -3.611  0.00  0.00    +0.026 A 
ATOM      7  C   UNL     1       6.374  -2.752  -3.538  0.00  0.00    +0.051 A 
ATOM      8  N   UNL     1       6.200  -4.070  -3.910  0.00  0.00    -0.321 N 
ATOM      9  H   UNL     1       6.965  -4.577  -4.224  0.00  0.00    +0.169 HD
ATOM     10  C   UNL     1       4.999  -4.667  -3.846  0.00  0.00    +0.262 A 
ATOM     11  O   UNL     1       4.896  -5.833  -4.185  0.00  0.00    -0.267 OA
ATOM     12  C   UNL     1       3.850  -3.977  -3.391  0.00  0.00    +0.103 A 
ENDROOT
BRANCH  12  13
ATOM     13  C   UNL     1       2.550  -4.664  -3.329  0.00  0.00    +0.146 A 
ATOM     14  N   UNL     1       2.352  -6.001  -3.559  0.00  0.00    -0.338 N 
ATOM     15  H   UNL     1       3.033  -6.652  -3.788  0.00  0.00    +0.167 HD
ATOM     16  C   UNL     1       0.999  -6.247  -3.402  0.00  0.00    +0.066 A 
ATOM     17  C   UNL     1       0.212  -7.384  -3.505  0.00  0.00    +0.028 A 
ATOM     18  C   UNL     1      -1.147  -7.300  -3.283  0.00  0.00    +0.002 A 
ATOM     19  C   UNL     1      -1.734  -6.085  -2.959  0.00  0.00    +0.002 A 
ATOM     20  C   UNL     1      -0.968  -4.946  -2.853  0.00  0.00    +0.030 A 
ATOM     21  C   UNL     1       0.411  -5.013  -3.074  0.00  0.00    +0.089 A 
ATOM     22  N   UNL     1       1.404  -4.090  -3.039  0.00  0.00    -0.227 NA
ENDBRANCH  12  13
BRANCH   1  23
ATOM     23  N   UNL     1       2.859  -1.942  -2.562  0.00  0.00    -0.327 N 
ATOM     24  H   UNL     1       2.061  -1.895  -3.111  0.00  0.00    +0.148 HD
BRANCH  23  29
ATOM     25  C   UNL     1       0.866   0.051  -1.872  0.00  0.00    -0.007 C 
ATOM     26  C   UNL     1       0.064  -0.789  -0.874  0.00  0.00    +0.019 C 
ATOM     27  C   UNL     1       0.704  -2.173  -0.750  0.00  0.00    +0.086 C 
ATOM     28  N   UNL     1       2.093  -2.033  -0.294  0.00  0.00    -0.288 NA
ATOM     29  C   UNL     1       2.894  -1.270  -1.260  0.00  0.00    +0.141 C 
ATOM     30  C   UNL     1       2.320   0.141  -1.399  0.00  0.00    +0.042 C 
ATOM     31  C   UNL     1       2.696  -3.347  -0.031  0.00  0.00    +0.106 C 
BRANCH  25  33
ATOM     32  C   UNL     1      -1.142   1.377  -2.545  0.00  0.00    +0.004 C 
ATOM     33  C   UNL     1       0.267   1.457  -1.955  0.00  0.00    +0.000 C 
ENDBRANCH  25  33
ENDBRANCH  23  29
ENDBRANCH   1  23
TORSDOF 4
