REMARK  Name = CHEMBL195218
REMARK  14 active torsions:
REMARK  status: ('A' for Active; 'I' for Inactive)
REMARK    1  A    between atoms: C_1  and  C_2
REMARK    2  A    between atoms: C_2  and  C_3
REMARK    3  A    between atoms: C_2  and  C_4
REMARK    4  A    between atoms: C_5  and  N_27
REMARK    5  A    between atoms: N_13  and  C_14
REMARK    6  A    between atoms: C_16  and  C_22
REMARK    7  A    between atoms: N_24  and  O_25
REMARK    8  A    between atoms: O_25  and  C_26
REMARK    9  A    between atoms: C_28  and  O_30
REMARK   10  A    between atoms: O_30  and  C_31
REMARK   11  A    between atoms: C_31  and  C_32
REMARK   12  A    between atoms: C_32  and  C_33
REMARK   13  A    between atoms: C_33  and  S_34
REMARK   14  A    between atoms: S_34  and  C_37
REMARK                            x       y       z     vdW  Elec       q    Type
REMARK                         _______ _______ _______ _____ _____    ______ ____
ROOT
ATOM      1  C   UNL     1      -1.347  -0.951   0.145  0.00  0.00    +0.007 A 
ATOM      2  C   UNL     1      -2.291  -0.770   1.163  0.00  0.00    +0.060 A 
ATOM      3  C   UNL     1      -3.531  -0.878   0.606  0.00  0.00    +0.136 A 
ATOM      4  N   UNL     1      -3.398  -1.119  -0.719  0.00  0.00    -0.233 N 
ATOM      5  C   UNL     1      -2.051  -1.162  -1.024  0.00  0.00    +0.111 A 
ATOM      6  C   UNL     1      -1.670  -1.397  -2.365  0.00  0.00    +0.151 A 
ATOM      7  N   UNL     1      -2.608  -1.566  -3.283  0.00  0.00    -0.217 NA
ATOM      8  C   UNL     1      -3.902  -1.518  -2.974  0.00  0.00    +0.245 A 
ATOM      9  N   UNL     1      -4.322  -1.314  -1.756  0.00  0.00    -0.155 NA
ATOM     10  N   UNL     1      -0.334  -1.451  -2.713  0.00  0.00    -0.295 N 
ATOM     11  H   UNL     1       0.347  -1.232  -2.058  0.00  0.00    +0.154 HD
ENDROOT
BRANCH  10  12
ATOM     12  C   UNL     1       0.037  -1.821  -4.012  0.00  0.00    +0.069 A 
ATOM     13  C   UNL     1      -0.907  -2.344  -4.878  0.00  0.00    +0.042 A 
ATOM     14  C   UNL     1      -0.533  -2.711  -6.173  0.00  0.00    +0.076 A 
ATOM     15  C   UNL     1       0.793  -2.548  -6.586  0.00  0.00    +0.138 A 
ATOM     16  C   UNL     1       1.728  -2.025  -5.713  0.00  0.00    +0.079 A 
ATOM     17  C   UNL     1       1.355  -1.657  -4.433  0.00  0.00    +0.147 A 
ATOM     18  F   UNL     1       2.273  -1.141  -3.586  0.00  0.00    -0.203 F 
ATOM     19  F   UNL     1       1.160  -2.903  -7.837  0.00  0.00    -0.205 F 
BRANCH  14  20
ATOM     20  C   UNL     1      -1.535  -3.270  -7.102  0.00  0.00    +0.270 C 
ATOM     21  O   UNL     1      -1.208  -3.589  -8.229  0.00  0.00    -0.268 OA
ATOM     22  N   UNL     1      -2.812  -3.426  -6.702  0.00  0.00    -0.191 N 
ATOM     23  H   UNL     1      -3.073  -3.172  -5.803  0.00  0.00    +0.183 HD
BRANCH  22  24
ATOM     24  O   UNL     1      -3.773  -3.963  -7.593  0.00  0.00    -0.283 OA
ATOM     25  C   UNL     1      -5.085  -4.072  -7.036  0.00  0.00    +0.226 C 
ENDBRANCH  22  24
ENDBRANCH  14  20
ENDBRANCH  10  12
BRANCH   2  26
ATOM     26  N   UNL     1      -2.010  -0.521   2.518  0.00  0.00    -0.249 N 
ATOM     27  C   UNL     1      -3.019  -0.366   3.398  0.00  0.00    +0.405 C 
ATOM     28  O   UNL     1      -4.172  -0.441   3.020  0.00  0.00    -0.226 OA
ATOM     29  H   UNL     1      -1.090  -0.462   2.820  0.00  0.00    +0.158 HD
BRANCH  27  30
ATOM     30  O   UNL     1      -2.751  -0.128   4.696  0.00  0.00    -0.450 OA
BRANCH  30  31
ATOM     31  C   UNL     1      -3.869   0.026   5.572  0.00  0.00    +0.235 C 
BRANCH  31  32
ATOM     32  C   UNL     1      -3.370   0.288   6.995  0.00  0.00    +0.064 C 
BRANCH  32  33
ATOM     33  C   UNL     1      -4.567   0.453   7.933  0.00  0.00    +0.169 C 
BRANCH  33  34
ATOM     34  S   UNL     1      -3.975   0.763   9.619  0.00  0.00    -0.034 S 
ATOM     35  O   UNL     1      -3.291  -0.395  10.076  0.00  0.00    -0.175 OA
ATOM     36  O   UNL     1      -3.303   2.015   9.636  0.00  0.00    -0.175 OA
ATOM     37  C   UNL     1      -5.517   0.928  10.561  0.00  0.00    +0.194 C 
ENDBRANCH  33  34
ENDBRANCH  32  33
ENDBRANCH  31  32
ENDBRANCH  30  31
ENDBRANCH  27  30
ENDBRANCH   2  26
BRANCH   1  39
ATOM     38  C   UNL     1       0.590   0.489   0.716  0.00  0.00    +0.012 C 
ATOM     39  C   UNL     1       0.152  -0.916   0.296  0.00  0.00    +0.017 C 
ATOM     40  C   UNL     1       0.581  -1.924   1.364  0.00  0.00    +0.012 C 
ENDBRANCH   1  39
TORSDOF 10
