REMARK  Name = CHEMBL522892
REMARK  4 active torsions:
REMARK  status: ('A' for Active; 'I' for Inactive)
REMARK    1  A    between atoms: C_1  and  N_2
REMARK    2  A    between atoms: N_5  and  C_8
REMARK    3  A    between atoms: C_16  and  C_18
REMARK    4  A    between atoms: C_19  and  N_31
REMARK                            x       y       z     vdW  Elec       q    Type
REMARK                         _______ _______ _______ _____ _____    ______ ____
ROOT
ATOM      1  C   UNL     1      -0.576  -4.422   1.088  0.00  0.00    +0.032 A 
ATOM      2  C   UNL     1      -1.925  -4.765   1.034  0.00  0.00    +0.025 A 
ATOM      3  C   UNL     1      -2.470  -5.593   1.973  0.00  0.00    +0.032 A 
ATOM      4  C   UNL     1      -1.672  -6.106   3.001  0.00  0.00    +0.090 A 
ATOM      5  C   UNL     1      -0.310  -5.762   3.058  0.00  0.00    +0.068 A 
ATOM      6  C   UNL     1       0.233  -4.924   2.095  0.00  0.00    +0.051 A 
ATOM      7  N   UNL     1       0.207  -6.411   4.165  0.00  0.00    -0.338 N 
ATOM      8  H   UNL     1       1.125  -6.375   4.477  0.00  0.00    +0.167 HD
ATOM      9  C   UNL     1      -0.821  -7.114   4.740  0.00  0.00    +0.146 A 
ATOM     10  N   UNL     1      -1.923  -6.930   4.050  0.00  0.00    -0.227 NA
ENDROOT
BRANCH   9  11
ATOM     11  C   UNL     1      -0.707  -7.948   5.947  0.00  0.00    +0.103 A 
ATOM     12  C   UNL     1      -1.791  -8.717   6.375  0.00  0.00    +0.053 A 
ATOM     13  C   UNL     1      -1.627  -9.532   7.585  0.00  0.00    +0.055 A 
ATOM     14  C   UNL     1      -0.395  -9.509   8.262  0.00  0.00    +0.054 A 
ATOM     15  C   UNL     1      -0.231 -10.278   9.408  0.00  0.00    +0.026 A 
ATOM     16  C   UNL     1      -1.272 -11.055   9.872  0.00  0.00    +0.005 A 
ATOM     17  C   UNL     1      -2.488 -11.081   9.207  0.00  0.00    +0.039 A 
ATOM     18  C   UNL     1      -2.675 -10.325   8.067  0.00  0.00    +0.134 A 
ATOM     19  F   UNL     1      -3.861 -10.352   7.421  0.00  0.00    -0.205 F 
ATOM     20  N   UNL     1       0.639  -8.726   7.787  0.00  0.00    -0.321 N 
ATOM     21  H   UNL     1       1.484  -8.718   8.263  0.00  0.00    +0.169 HD
ATOM     22  C   UNL     1       0.505  -7.980   6.678  0.00  0.00    +0.262 A 
ATOM     23  O   UNL     1       1.448  -7.310   6.294  0.00  0.00    -0.267 OA
BRANCH  12  24
ATOM     24  N   UNL     1      -2.979  -8.711   5.684  0.00  0.00    -0.357 N 
ATOM     25  H   UNL     1      -2.988  -8.494   4.738  0.00  0.00    +0.142 HD
ATOM     26  H   UNL     1      -3.807  -8.923   6.141  0.00  0.00    +0.142 HD
ENDBRANCH  12  24
ENDBRANCH   9  11
BRANCH   1  31
ATOM     27  C   UNL     1       0.805   0.232  -1.408  0.00  0.00    -0.096 C 
ATOM     28  N   UNL     1       0.696  -1.217  -1.198  0.00  0.00    +0.380 N 
ATOM     29  C   UNL     1      -0.722  -1.594  -1.129  0.00  0.00    -0.060 C 
ATOM     30  C   UNL     1      -0.840  -3.119  -1.025  0.00  0.00    +0.086 C 
ATOM     31  N   UNL     1      -0.034  -3.572   0.119  0.00  0.00    -0.333 N 
ATOM     32  C   UNL     1       1.358  -3.106   0.215  0.00  0.00    +0.086 C 
ATOM     33  C   UNL     1       1.372  -1.582   0.053  0.00  0.00    -0.060 C 
ATOM     34  H   UNL     1       1.132  -1.701  -1.969  0.00  0.00    -0.082 HD
ENDBRANCH   1  31
TORSDOF 3
