REMARK  Name = CHEMBL495762
REMARK  4 active torsions:
REMARK  status: ('A' for Active; 'I' for Inactive)
REMARK    1  A    between atoms: C_1  and  N_2
REMARK    2  A    between atoms: N_5  and  C_8
REMARK    3  A    between atoms: C_15  and  C_18
REMARK    4  A    between atoms: C_19  and  N_31
REMARK                            x       y       z     vdW  Elec       q    Type
REMARK                         _______ _______ _______ _____ _____    ______ ____
ROOT
ATOM      1  C   UNL     1      -1.617  -2.525   3.317  0.00  0.00    +0.032 A 
ATOM      2  C   UNL     1      -2.963  -2.882   3.376  0.00  0.00    +0.025 A 
ATOM      3  C   UNL     1      -3.342  -4.075   3.954  0.00  0.00    +0.029 A 
ATOM      4  C   UNL     1      -2.382  -4.926   4.481  0.00  0.00    +0.067 A 
ATOM      5  C   UNL     1      -1.023  -4.574   4.426  0.00  0.00    +0.091 A 
ATOM      6  C   UNL     1      -0.648  -3.364   3.833  0.00  0.00    +0.053 A 
ATOM      7  N   UNL     1      -0.323  -5.579   5.008  0.00  0.00    -0.227 NA
ATOM      8  C   UNL     1      -1.149  -6.516   5.413  0.00  0.00    +0.146 A 
ATOM      9  N   UNL     1      -2.437  -6.160   5.110  0.00  0.00    -0.338 N 
ATOM     10  H   UNL     1      -3.237  -6.674   5.301  0.00  0.00    +0.167 HD
ENDROOT
BRANCH   8  11
ATOM     11  C   UNL     1      -0.752  -7.761   6.090  0.00  0.00    +0.103 A 
ATOM     12  C   UNL     1       0.580  -7.967   6.458  0.00  0.00    +0.051 A 
ATOM     13  C   UNL     1       0.925  -9.225   7.131  0.00  0.00    +0.038 A 
ATOM     14  C   UNL     1      -0.088 -10.168   7.379  0.00  0.00    +0.052 A 
ATOM     15  C   UNL     1       0.231 -11.362   8.016  0.00  0.00    +0.026 A 
ATOM     16  C   UNL     1       1.532 -11.612   8.399  0.00  0.00    +0.003 A 
ATOM     17  C   UNL     1       2.533 -10.684   8.156  0.00  0.00    +0.021 A 
ATOM     18  C   UNL     1       2.240  -9.493   7.525  0.00  0.00    +0.052 A 
ATOM     19 CL   UNL     1       3.496  -8.334   7.222  0.00  0.00    -0.083 Cl
ATOM     20  N   UNL     1      -1.387  -9.904   6.989  0.00  0.00    -0.321 N 
ATOM     21  H   UNL     1      -2.077 -10.562   7.166  0.00  0.00    +0.169 HD
ATOM     22  C   UNL     1      -1.718  -8.755   6.378  0.00  0.00    +0.262 A 
ATOM     23  O   UNL     1      -2.879  -8.565   6.059  0.00  0.00    -0.267 OA
BRANCH  12  24
ATOM     24  N   UNL     1       1.539  -7.019   6.197  0.00  0.00    -0.357 N 
ATOM     25  H   UNL     1       1.353  -6.082   6.365  0.00  0.00    +0.142 HD
ATOM     26  H   UNL     1       2.402  -7.287   5.844  0.00  0.00    +0.142 HD
ENDBRANCH  12  24
ENDBRANCH   8  11
BRANCH   1  31
ATOM     27  C   UNL     1       0.080   0.986  -0.525  0.00  0.00    +0.105 C 
ATOM     28  N   UNL     1      -0.382   0.478   0.773  0.00  0.00    -0.302 NA
ATOM     29  C   UNL     1       0.575  -0.487   1.331  0.00  0.00    +0.103 C 
ATOM     30  C   UNL     1       0.153  -0.855   2.757  0.00  0.00    +0.120 C 
ATOM     31  N   UNL     1      -1.245  -1.311   2.728  0.00  0.00    -0.327 N 
ATOM     32  C   UNL     1      -2.242  -0.458   2.062  0.00  0.00    +0.120 C 
ATOM     33  C   UNL     1      -1.725  -0.106   0.663  0.00  0.00    +0.103 C 
ENDBRANCH   1  31
TORSDOF 3
