REMARK  Name = CHEMBL253292
REMARK  11 active torsions:
REMARK  status: ('A' for Active; 'I' for Inactive)
REMARK    1  A    between atoms: C_1  and  C_2
REMARK    2  A    between atoms: C_2  and  N_3
REMARK    3  A    between atoms: N_3  and  C_4
REMARK    4  A    between atoms: N_3  and  C_6
REMARK    5  A    between atoms: C_4  and  C_5
REMARK    6  A    between atoms: C_6  and  C_7
REMARK    7  A    between atoms: C_7  and  O_8
REMARK    8  A    between atoms: O_8  and  C_9
REMARK    9  A    between atoms: C_12  and  N_15
REMARK   10  A    between atoms: C_18  and  N_22
REMARK   11  A    between atoms: N_25  and  C_26
REMARK                            x       y       z     vdW  Elec       q    Type
REMARK                         _______ _______ _______ _____ _____    ______ ____
ROOT
ATOM      1  N   UNL     1      -9.681  -6.833  -1.817  0.00  0.00    -0.299 N 
ATOM      2  C   UNL     1     -10.104  -6.773  -3.136  0.00  0.00    +0.128 A 
ATOM      3  C   UNL     1     -11.369  -6.285  -3.451  0.00  0.00    +0.087 A 
ATOM      4  C   UNL     1     -11.745  -6.245  -4.789  0.00  0.00    +0.131 A 
ATOM      5  N   UNL     1     -10.889  -6.673  -5.715  0.00  0.00    -0.220 NA
ATOM      6  C   UNL     1      -9.700  -7.128  -5.377  0.00  0.00    +0.225 A 
ATOM      7  N   UNL     1      -9.303  -7.177  -4.121  0.00  0.00    -0.221 NA
ATOM      8  H   UNL     1     -10.286  -6.583  -1.102  0.00  0.00    +0.154 HD
ENDROOT
BRANCH   1  12
ATOM      9  C   UNL     1      -5.808  -8.092  -0.925  0.00  0.00    +0.121 A 
ATOM     10  C   UNL     1      -6.851  -8.398  -0.064  0.00  0.00    +0.047 A 
ATOM     11  C   UNL     1      -8.135  -7.982  -0.359  0.00  0.00    +0.027 A 
ATOM     12  C   UNL     1      -8.380  -7.256  -1.517  0.00  0.00    +0.033 A 
ATOM     13  C   UNL     1      -7.334  -6.950  -2.378  0.00  0.00    +0.027 A 
ATOM     14  C   UNL     1      -6.051  -7.362  -2.079  0.00  0.00    +0.047 A 
BRANCH   9  15
ATOM     15  O   UNL     1      -4.544  -8.502  -0.633  0.00  0.00    -0.494 OA
BRANCH  15  16
ATOM     16  C   UNL     1      -4.366  -9.249   0.572  0.00  0.00    +0.210 C 
BRANCH  16  17
ATOM     17  C   UNL     1      -2.877  -9.527   0.784  0.00  0.00    -0.037 C 
BRANCH  17  18
ATOM     18  N   UNL     1      -2.168  -8.259   1.000  0.00  0.00    +0.382 N 
ATOM     19  H   UNL     1      -2.357  -7.633   0.232  0.00  0.00    -0.082 HD
BRANCH  18  21
ATOM     20  C   UNL     1      -1.984  -6.269   2.417  0.00  0.00    -0.017 C 
ATOM     21  C   UNL     1      -2.629  -7.647   2.254  0.00  0.00    -0.082 C 
ENDBRANCH  18  21
BRANCH  18  22
ATOM     22  C   UNL     1      -0.723  -8.513   1.082  0.00  0.00    -0.082 C 
ATOM     23  C   UNL     1      -0.220  -9.031  -0.267  0.00  0.00    -0.017 C 
ENDBRANCH  18  22
ENDBRANCH  17  18
ENDBRANCH  16  17
ENDBRANCH  15  16
ENDBRANCH   9  15
ENDBRANCH   1  12
BRANCH   4  24
ATOM     24  N   UNL     1     -12.999  -5.767  -5.155  0.00  0.00    -0.254 N 
ATOM     25  C   UNL     1     -13.395  -5.832  -6.442  0.00  0.00    +0.309 C 
ATOM     26  O   UNL     1     -12.698  -6.392  -7.265  0.00  0.00    -0.252 OA
ATOM     27  N   UNL     1     -14.565  -5.275  -6.816  0.00  0.00    -0.267 N 
ATOM     28  H   UNL     1     -13.587  -5.386  -4.485  0.00  0.00    +0.158 HD
ATOM     29  H   UNL     1     -15.079  -4.754  -6.179  0.00  0.00    +0.156 HD
BRANCH  27  30
ATOM     30  C   UNL     1     -15.037  -5.449  -8.123  0.00  0.00    +0.072 A 
ATOM     31  C   UNL     1     -14.209  -5.176  -9.204  0.00  0.00    +0.064 A 
ATOM     32  C   UNL     1     -14.679  -5.349 -10.493  0.00  0.00    +0.022 A 
ATOM     33  C   UNL     1     -15.971  -5.793 -10.706  0.00  0.00    +0.003 A 
ATOM     34  C   UNL     1     -16.797  -6.066  -9.631  0.00  0.00    +0.022 A 
ATOM     35  C   UNL     1     -16.332  -5.901  -8.340  0.00  0.00    +0.064 A 
ATOM     36 CL   UNL     1     -17.369  -6.251  -6.992  0.00  0.00    -0.082 Cl
ATOM     37 CL   UNL     1     -12.587  -4.617  -8.938  0.00  0.00    -0.082 Cl
ENDBRANCH  27  30
ENDBRANCH   4  24
TORSDOF 9
