REMARK  Name = CHEMBL298566
REMARK  9 active torsions:
REMARK  status: ('A' for Active; 'I' for Inactive)
REMARK    1  A    between atoms: C_1  and  C_2
REMARK    2  A    between atoms: C_2  and  S_3
REMARK    3  A    between atoms: S_3  and  C_6
REMARK    4  A    between atoms: C_13  and  C_14
REMARK    5  A    between atoms: C_15  and  C_24
REMARK    6  A    between atoms: C_24  and  C_25
REMARK    7  A    between atoms: C_25  and  C_26
REMARK    8  A    between atoms: C_26  and  N_27
REMARK    9  A    between atoms: C_30  and  O_33
REMARK                            x       y       z     vdW  Elec       q    Type
REMARK                         _______ _______ _______ _____ _____    ______ ____
ROOT
ATOM      1  C   UNL     1       4.634  -6.300  -1.130  0.00  0.00    +0.044 A 
ATOM      2  C   UNL     1       5.885  -6.270  -1.731  0.00  0.00    -0.019 A 
ATOM      3  C   UNL     1       6.244  -7.588  -1.987  0.00  0.00    -0.023 A 
ATOM      4  C   UNL     1       5.236  -8.394  -1.553  0.00  0.00    +0.020 A 
ATOM      5  N   UNL     1       4.257  -7.624  -1.025  0.00  0.00    -0.358 N 
ATOM      6  H   UNL     1       3.428  -7.947  -0.639  0.00  0.00    +0.166 HD
ATOM      7  C   UNL     1       5.258  -9.900  -1.661  0.00  0.00    +0.053 C 
ATOM      8  C   UNL     1       6.339 -10.297  -2.673  0.00  0.00    +0.006 C 
ATOM      9  C   UNL     1       7.650  -9.587  -2.327  0.00  0.00    +0.005 C 
ATOM     10  C   UNL     1       7.514  -8.089  -2.628  0.00  0.00    +0.037 C 
ENDROOT
BRANCH   1  18
ATOM     11  C   UNL     1       0.624  -2.276   0.835  0.00  0.00    +0.089 A 
ATOM     12  C   UNL     1      -0.648  -2.725   0.520  0.00  0.00    +0.029 A 
ATOM     13  C   UNL     1      -0.826  -3.906  -0.170  0.00  0.00    +0.026 A 
ATOM     14  C   UNL     1       0.276  -4.661  -0.557  0.00  0.00    +0.042 A 
ATOM     15  C   UNL     1       1.562  -4.203  -0.236  0.00  0.00    +0.010 A 
ATOM     16  C   UNL     1       1.730  -3.007   0.454  0.00  0.00    +0.037 A 
ATOM     17  C   UNL     1       2.507  -5.206  -0.774  0.00  0.00    +0.048 C 
ATOM     18  C   UNL     1       3.887  -5.184  -0.701  0.00  0.00    +0.039 C 
ATOM     19  C   UNL     1       1.663  -6.229  -1.402  0.00  0.00    +0.249 C 
ATOM     20  O   UNL     1       2.056  -7.235  -1.966  0.00  0.00    -0.270 OA
ATOM     21  N   UNL     1       0.379  -5.863  -1.246  0.00  0.00    -0.281 N 
ATOM     22  H   UNL     1      -0.379  -6.372  -1.573  0.00  0.00    +0.155 HD
BRANCH  11  23
ATOM     23  S   UNL     1       0.829  -0.764   1.717  0.00  0.00    -0.003 S 
ATOM     24  O   UNL     1       2.077  -0.900   2.383  0.00  0.00    -0.169 OA
ATOM     25  O   UNL     1      -0.374  -0.609   2.458  0.00  0.00    -0.169 OA
BRANCH  23  27
ATOM     26  C   UNL     1       1.124   1.882   1.091  0.00  0.00    +0.028 C 
ATOM     27  C   UNL     1       0.942   0.513   0.434  0.00  0.00    +0.168 C 
ENDBRANCH  23  27
ENDBRANCH  11  23
ENDBRANCH   1  18
BRANCH   2  28
ATOM     28  C   UNL     1       6.698  -5.041  -2.047  0.00  0.00    +0.036 C 
BRANCH  28  29
ATOM     29  C   UNL     1       7.599  -4.706  -0.856  0.00  0.00    -0.014 C 
BRANCH  29  30
ATOM     30  C   UNL     1       8.425  -3.459  -1.177  0.00  0.00    -0.079 C 
BRANCH  30  31
ATOM     31  N   UNL     1       9.290  -3.138  -0.034  0.00  0.00    +0.380 N 
ATOM     32  C   UNL     1       8.459  -2.777   1.121  0.00  0.00    -0.076 C 
ATOM     33  C   UNL     1       9.352  -2.520   2.337  0.00  0.00    +0.013 C 
ATOM     34  C   UNL     1      10.316  -1.373   2.022  0.00  0.00    +0.111 C 
ATOM     35  C   UNL     1      11.126  -1.728   0.772  0.00  0.00    +0.013 C 
ATOM     36  C   UNL     1      10.167  -2.015  -0.386  0.00  0.00    -0.076 C 
ATOM     37  H   UNL     1       9.853  -3.943   0.198  0.00  0.00    -0.082 HD
BRANCH  34  38
ATOM     38  O   UNL     1      11.202  -1.177   3.126  0.00  0.00    -0.392 OA
ATOM     39  H   UNL     1      11.842  -0.463   2.994  0.00  0.00    +0.210 HD
ENDBRANCH  34  38
ENDBRANCH  30  31
ENDBRANCH  29  30
ENDBRANCH  28  29
ENDBRANCH   2  28
TORSDOF 8
