REMARK  Name = CHEMBL104071
REMARK  10 active torsions:
REMARK  status: ('A' for Active; 'I' for Inactive)
REMARK    1  A    between atoms: C_1  and  N_2
REMARK    2  A    between atoms: C_5  and  N_21
REMARK    3  A    between atoms: C_10  and  C_13
REMARK    4  A    between atoms: N_21  and  C_22
REMARK    5  A    between atoms: C_25  and  O_28
REMARK    6  A    between atoms: O_28  and  C_29
REMARK    7  A    between atoms: C_29  and  C_30
REMARK    8  A    between atoms: C_30  and  C_31
REMARK    9  A    between atoms: C_31  and  N_32
REMARK   10  A    between atoms: N_35  and  C_38
REMARK                            x       y       z     vdW  Elec       q    Type
REMARK                         _______ _______ _______ _____ _____    ______ ____
ROOT
ATOM      1  C   UNL     1      -5.993  -5.039  -0.092  0.00  0.00    +0.152 C 
ATOM      2  N   UNL     1      -6.922  -4.332  -0.977  0.00  0.00    -0.311 N 
ATOM      3  C   UNL     1      -6.816  -2.969  -1.130  0.00  0.00    +0.056 A 
ATOM      4  C   UNL     1      -5.838  -2.246  -0.457  0.00  0.00    +0.070 A 
ATOM      5  C   UNL     1      -5.772  -0.872  -0.644  0.00  0.00    +0.125 A 
ATOM      6  N   UNL     1      -6.622  -0.244  -1.450  0.00  0.00    -0.239 NA
ATOM      7  C   UNL     1      -7.564  -0.882  -2.109  0.00  0.00    +0.122 A 
ATOM      8  C   UNL     1      -7.702  -2.269  -1.978  0.00  0.00    +0.018 A 
ATOM      9  C   UNL     1      -8.710  -2.972  -2.679  0.00  0.00    +0.025 A 
ATOM     10  C   UNL     1      -8.810  -4.327  -2.521  0.00  0.00    +0.050 A 
ATOM     11  C   UNL     1      -7.870  -5.023  -1.639  0.00  0.00    +0.259 A 
ATOM     12  O   UNL     1      -7.950  -6.231  -1.499  0.00  0.00    -0.267 OA
ENDROOT
BRANCH  10  13
ATOM     13  C   UNL     1      -9.858  -5.087  -3.243  0.00  0.00    +0.024 A 
ATOM     14  C   UNL     1     -11.112  -5.277  -2.661  0.00  0.00    +0.050 A 
ATOM     15  C   UNL     1     -12.084  -5.987  -3.340  0.00  0.00    +0.021 A 
ATOM     16  C   UNL     1     -11.816  -6.507  -4.593  0.00  0.00    +0.003 A 
ATOM     17  C   UNL     1     -10.575  -6.322  -5.175  0.00  0.00    +0.021 A 
ATOM     18  C   UNL     1      -9.596  -5.610  -4.510  0.00  0.00    +0.050 A 
ATOM     19 CL   UNL     1      -8.042  -5.372  -5.245  0.00  0.00    -0.083 Cl
ATOM     20 CL   UNL     1     -11.450  -4.625  -1.088  0.00  0.00    -0.083 Cl
ENDBRANCH  10  13
BRANCH   5  21
ATOM     21  N   UNL     1      -4.799  -0.141   0.023  0.00  0.00    -0.299 N 
ATOM     22  H   UNL     1      -4.123  -0.598   0.547  0.00  0.00    +0.154 HD
BRANCH  21  23
ATOM     23  C   UNL     1      -4.795   1.257  -0.060  0.00  0.00    +0.033 A 
ATOM     24  C   UNL     1      -3.592   1.943  -0.163  0.00  0.00    +0.027 A 
ATOM     25  C   UNL     1      -3.589   3.321  -0.244  0.00  0.00    +0.047 A 
ATOM     26  C   UNL     1      -4.787   4.021  -0.223  0.00  0.00    +0.121 A 
ATOM     27  C   UNL     1      -5.989   3.336  -0.120  0.00  0.00    +0.047 A 
ATOM     28  C   UNL     1      -5.994   1.957  -0.045  0.00  0.00    +0.027 A 
BRANCH  26  29
ATOM     29  O   UNL     1      -4.782   5.378  -0.303  0.00  0.00    -0.492 OA
BRANCH  29  30
ATOM     30  C   UNL     1      -6.052   6.034  -0.275  0.00  0.00    +0.230 C 
BRANCH  30  31
ATOM     31  C   UNL     1      -5.847   7.547  -0.374  0.00  0.00    +0.056 C 
BRANCH  31  32
ATOM     32  C   UNL     1      -7.206   8.248  -0.344  0.00  0.00    +0.087 C 
BRANCH  32  33
ATOM     33  N   UNL     1      -7.009   9.701  -0.439  0.00  0.00    -0.306 NA
ATOM     34  C   UNL     1      -6.328  10.220   0.755  0.00  0.00    +0.066 C 
ATOM     35  C   UNL     1      -6.089  11.722   0.591  0.00  0.00    -0.064 C 
ATOM     36  N   UNL     1      -7.377  12.405   0.405  0.00  0.00    +0.379 N 
ATOM     37  C   UNL     1      -8.034  11.894  -0.805  0.00  0.00    -0.064 C 
ATOM     38  C   UNL     1      -8.288  10.393  -0.652  0.00  0.00    +0.066 C 
ATOM     39  C   UNL     1      -7.148  13.850   0.265  0.00  0.00    -0.096 C 
ATOM     40  H   UNL     1      -7.966  12.234   1.206  0.00  0.00    -0.082 HD
ENDBRANCH  32  33
ENDBRANCH  31  32
ENDBRANCH  30  31
ENDBRANCH  29  30
ENDBRANCH  26  29
ENDBRANCH  21  23
ENDBRANCH   5  21
TORSDOF 8
