REMARK  Name = CHEMBL574738
REMARK  11 active torsions:
REMARK  status: ('A' for Active; 'I' for Inactive)
REMARK    1  A    between atoms: C_1  and  C_2
REMARK    2  A    between atoms: C_2  and  N_3
REMARK    3  A    between atoms: N_6  and  C_9
REMARK    4  A    between atoms: C_9  and  C_10
REMARK    5  A    between atoms: C_13  and  N_20
REMARK    6  A    between atoms: C_15  and  C_16
REMARK    7  A    between atoms: N_23  and  C_24
REMARK    8  A    between atoms: C_27  and  O_30
REMARK    9  A    between atoms: O_30  and  C_31
REMARK   10  A    between atoms: C_33  and  N_37
REMARK   11  A    between atoms: N_37  and  C_38
REMARK                            x       y       z     vdW  Elec       q    Type
REMARK                         _______ _______ _______ _____ _____    ______ ____
ROOT
ATOM      1  N   UNL     1      -4.962  -8.208   0.103  0.00  0.00    -0.269 N 
ATOM      2  C   UNL     1      -4.420  -8.714  -1.022  0.00  0.00    +0.308 C 
ATOM      3  O   UNL     1      -3.827  -7.984  -1.793  0.00  0.00    -0.252 OA
ATOM      4  N   UNL     1      -4.535 -10.030  -1.293  0.00  0.00    -0.269 N 
ATOM      5  H   UNL     1      -5.370  -8.801   0.754  0.00  0.00    +0.156 HD
ATOM      6  H   UNL     1      -5.070 -10.598  -0.718  0.00  0.00    +0.156 HD
ENDROOT
BRANCH   1  10
ATOM      7  C   UNL     1      -4.888  -4.099   0.786  0.00  0.00    -0.052 A 
ATOM      8  C   UNL     1      -5.021  -4.582  -0.503  0.00  0.00    +0.004 A 
ATOM      9  C   UNL     1      -5.046  -5.943  -0.733  0.00  0.00    +0.023 A 
ATOM     10  C   UNL     1      -4.937  -6.828   0.332  0.00  0.00    +0.035 A 
ATOM     11  C   UNL     1      -4.803  -6.340   1.625  0.00  0.00    +0.036 A 
ATOM     12  C   UNL     1      -4.773  -4.977   1.848  0.00  0.00    +0.058 A 
BRANCH  12  13
ATOM     13  C   UNL     1      -4.622  -4.446   3.250  0.00  0.00    +0.418 C 
ATOM     14  F   UNL     1      -4.643  -5.512   4.157  0.00  0.00    -0.166 F 
ATOM     15  F   UNL     1      -3.406  -3.764   3.362  0.00  0.00    -0.166 F 
ATOM     16  F   UNL     1      -5.676  -3.571   3.534  0.00  0.00    -0.166 F 
ENDBRANCH  12  13
BRANCH   7  17
ATOM     17  C   UNL     1      -4.861  -2.613   1.033  0.00  0.00    -0.042 C 
BRANCH  17  21
ATOM     18  N   UNL     1      -1.301  -0.467   0.361  0.00  0.00    -0.306 NA
ATOM     19  C   UNL     1      -1.990  -0.272   1.645  0.00  0.00    +0.066 C 
ATOM     20  C   UNL     1      -3.442  -0.740   1.517  0.00  0.00    -0.063 C 
ATOM     21  N   UNL     1      -3.467  -2.159   1.138  0.00  0.00    +0.384 N 
ATOM     22  C   UNL     1      -2.797  -2.334  -0.157  0.00  0.00    -0.063 C 
ATOM     23  C   UNL     1      -1.340  -1.879  -0.043  0.00  0.00    +0.066 C 
ATOM     24  H   UNL     1      -2.989  -2.703   1.840  0.00  0.00    -0.081 HD
BRANCH  18  26
ATOM     25  C   UNL     1       0.076   1.544   0.604  0.00  0.00    +0.020 C 
ATOM     26  C   UNL     1       0.082   0.024   0.427  0.00  0.00    +0.081 C 
ENDBRANCH  18  26
ENDBRANCH  17  21
ENDBRANCH   7  17
ENDBRANCH   1  10
BRANCH   4  27
ATOM     27  C   UNL     1      -3.881 -10.575  -2.406  0.00  0.00    +0.035 A 
ATOM     28  C   UNL     1      -2.645 -10.078  -2.798  0.00  0.00    +0.027 A 
ATOM     29  C   UNL     1      -2.001 -10.617  -3.894  0.00  0.00    +0.048 A 
ATOM     30  C   UNL     1      -2.588 -11.654  -4.604  0.00  0.00    +0.130 A 
ATOM     31  C   UNL     1      -3.823 -12.151  -4.213  0.00  0.00    +0.048 A 
ATOM     32  C   UNL     1      -4.465 -11.618  -3.113  0.00  0.00    +0.027 A 
BRANCH  30  33
ATOM     33  O   UNL     1      -1.954 -12.183  -5.684  0.00  0.00    -0.438 OA
BRANCH  33  34
ATOM     34  C   UNL     1      -0.899 -13.005  -5.463  0.00  0.00    +0.225 A 
ATOM     35  C   UNL     1      -0.148 -13.490  -6.526  0.00  0.00    +0.111 A 
ATOM     36  C   UNL     1       0.925 -14.331  -6.247  0.00  0.00    +0.125 A 
ATOM     37  N   UNL     1       1.192 -14.638  -4.979  0.00  0.00    -0.221 NA
ATOM     38  C   UNL     1       0.456 -14.157  -3.998  0.00  0.00    +0.227 A 
ATOM     39  N   UNL     1      -0.565 -13.355  -4.223  0.00  0.00    -0.201 NA
BRANCH  36  40
ATOM     40  N   UNL     1       1.705 -14.842  -7.273  0.00  0.00    -0.332 N 
ATOM     41  C   UNL     1       1.401 -14.497  -8.664  0.00  0.00    +0.127 C 
ATOM     42  H   UNL     1       2.451 -15.427  -7.070  0.00  0.00    +0.147 HD
ENDBRANCH  36  40
ENDBRANCH  33  34
ENDBRANCH  30  33
ENDBRANCH   4  27
TORSDOF 9
