REMARK  Name = CHEMBL495984
REMARK  6 active torsions:
REMARK  status: ('A' for Active; 'I' for Inactive)
REMARK    1  A    between atoms: C_1  and  C_2
REMARK    2  A    between atoms: C_2  and  C_3
REMARK    3  A    between atoms: N_6  and  C_32
REMARK    4  A    between atoms: C_7  and  N_9
REMARK    5  A    between atoms: N_9  and  C_10
REMARK    6  A    between atoms: C_21  and  C_22
REMARK                            x       y       z     vdW  Elec       q    Type
REMARK                         _______ _______ _______ _____ _____    ______ ____
ROOT
ATOM      1  C   UNL     1       2.802  -4.679   2.773  0.00  0.00    +0.051 A 
ATOM      2  C   UNL     1       2.880  -6.141   2.663  0.00  0.00    +0.020 A 
ATOM      3  C   UNL     1       1.822  -6.881   2.126  0.00  0.00    +0.012 A 
ATOM      4  C   UNL     1       1.922  -8.241   2.037  0.00  0.00    +0.001 A 
ATOM      5  C   UNL     1       3.066  -8.893   2.474  0.00  0.00    +0.002 A 
ATOM      6  C   UNL     1       4.121  -8.183   3.007  0.00  0.00    +0.026 A 
ATOM      7  C   UNL     1       4.041  -6.798   3.108  0.00  0.00    +0.051 A 
ATOM      8  N   UNL     1       5.086  -6.069   3.638  0.00  0.00    -0.321 N 
ATOM      9  H   UNL     1       5.882  -6.534   3.941  0.00  0.00    +0.169 HD
ATOM     10  C   UNL     1       5.029  -4.731   3.744  0.00  0.00    +0.262 A 
ATOM     11  O   UNL     1       5.978  -4.131   4.218  0.00  0.00    -0.267 OA
ATOM     12  C   UNL     1       3.896  -4.000   3.313  0.00  0.00    +0.103 A 
ENDROOT
BRANCH  12  13
ATOM     13  C   UNL     1       3.869  -2.534   3.439  0.00  0.00    +0.146 A 
ATOM     14  N   UNL     1       4.926  -1.756   3.837  0.00  0.00    -0.338 N 
ATOM     15  H   UNL     1       5.810  -2.070   4.083  0.00  0.00    +0.167 HD
ATOM     16  C   UNL     1       4.494  -0.442   3.823  0.00  0.00    +0.066 A 
ATOM     17  C   UNL     1       5.099   0.770   4.121  0.00  0.00    +0.028 A 
ATOM     18  C   UNL     1       4.381   1.942   4.005  0.00  0.00    +0.002 A 
ATOM     19  C   UNL     1       3.056   1.918   3.592  0.00  0.00    +0.002 A 
ATOM     20  C   UNL     1       2.440   0.725   3.292  0.00  0.00    +0.030 A 
ATOM     21  C   UNL     1       3.153  -0.473   3.404  0.00  0.00    +0.089 A 
ATOM     22  N   UNL     1       2.832  -1.771   3.181  0.00  0.00    -0.227 NA
ENDBRANCH  12  13
BRANCH   1  23
ATOM     23  N   UNL     1       1.687  -3.997   2.349  0.00  0.00    -0.356 N 
ATOM     24  H   UNL     1       1.200  -3.432   2.969  0.00  0.00    +0.144 HD
BRANCH  23  29
ATOM     25  C   UNL     1      -0.754  -4.447  -0.514  0.00  0.00    -0.013 C 
ATOM     26  C   UNL     1      -0.313  -3.208  -1.297  0.00  0.00    -0.015 C 
ATOM     27  C   UNL     1       1.206  -3.058  -1.190  0.00  0.00    -0.076 C 
ATOM     28  N   UNL     1       1.589  -2.909   0.219  0.00  0.00    +0.390 N 
ATOM     29  C   UNL     1       1.233  -4.124   0.962  0.00  0.00    +0.016 C 
ATOM     30  C   UNL     1      -0.285  -4.315   0.938  0.00  0.00    +0.006 C 
ATOM     31  C   UNL     1       0.883  -1.758   0.798  0.00  0.00    -0.093 C 
ATOM     32  H   UNL     1       2.584  -2.757   0.282  0.00  0.00    -0.080 HD
BRANCH  25  34
ATOM     33  C   UNL     1      -2.738  -4.816  -1.987  0.00  0.00    +0.004 C 
ATOM     34  C   UNL     1      -2.279  -4.559  -0.550  0.00  0.00    -0.000 C 
ENDBRANCH  25  34
ENDBRANCH  23  29
ENDBRANCH   1  23
TORSDOF 4
