REMARK  Name = CHEMBL211662
REMARK  5 active torsions:
REMARK  status: ('A' for Active; 'I' for Inactive)
REMARK    1  A    between atoms: C_4  and  O_7
REMARK    2  A    between atoms: O_7  and  C_8
REMARK    3  A    between atoms: C_14  and  C_18
REMARK    4  A    between atoms: C_24  and  N_28
REMARK    5  A    between atoms: C_31  and  N_34
REMARK                            x       y       z     vdW  Elec       q    Type
REMARK                         _______ _______ _______ _____ _____    ______ ____
ROOT
ATOM      1  C   UNL     1       7.424  -4.691   0.159  0.00  0.00    +0.158 A 
ATOM      2  N   UNL     1       8.396  -5.657   0.234  0.00  0.00    -0.337 N 
ATOM      3  H   UNL     1       8.254  -6.616   0.252  0.00  0.00    +0.167 HD
ATOM      4  C   UNL     1       9.616  -5.005   0.280  0.00  0.00    +0.067 A 
ATOM      5  C   UNL     1      10.932  -5.438   0.360  0.00  0.00    +0.029 A 
ATOM      6  C   UNL     1      11.959  -4.519   0.389  0.00  0.00    +0.025 A 
ATOM      7  C   UNL     1      11.685  -3.153   0.339  0.00  0.00    +0.032 A 
ATOM      8  C   UNL     1      10.380  -2.705   0.260  0.00  0.00    +0.053 A 
ATOM      9  C   UNL     1       9.330  -3.629   0.229  0.00  0.00    +0.091 A 
ATOM     10  N   UNL     1       7.984  -3.500   0.150  0.00  0.00    -0.226 NA
ENDROOT
BRANCH   1  17
ATOM     11  C   UNL     1       3.663  -1.991  -0.123  0.00  0.00    +0.129 A 
ATOM     12  C   UNL     1       2.480  -2.740  -0.162  0.00  0.00    +0.048 A 
ATOM     13  C   UNL     1       2.491  -4.096  -0.121  0.00  0.00    +0.034 A 
ATOM     14  C   UNL     1       3.721  -4.780  -0.035  0.00  0.00    +0.093 A 
ATOM     15  C   UNL     1       4.962  -3.991   0.007  0.00  0.00    +0.034 A 
ATOM     16  C   UNL     1       4.885  -2.593  -0.045  0.00  0.00    +0.058 A 
ATOM     17  C   UNL     1       5.981  -4.947   0.090  0.00  0.00    +0.109 A 
ATOM     18  N   UNL     1       5.367  -6.161   0.095  0.00  0.00    -0.273 N 
ATOM     19  H   UNL     1       5.836  -7.008   0.146  0.00  0.00    +0.189 HD
ATOM     20  N   UNL     1       4.089  -6.047   0.024  0.00  0.00    -0.173 NA
BRANCH  11  21
ATOM     21  O   UNL     1       3.592  -0.634  -0.168  0.00  0.00    -0.456 OA
BRANCH  21  25
ATOM     22  C   UNL     1       2.429   1.359   3.252  0.00  0.00    +0.000 A 
ATOM     23  C   UNL     1       2.420  -0.024   3.222  0.00  0.00    +0.004 A 
ATOM     24  C   UNL     1       2.809  -0.694   2.078  0.00  0.00    +0.046 A 
ATOM     25  C   UNL     1       3.208   0.022   0.959  0.00  0.00    +0.128 A 
ATOM     26  C   UNL     1       3.216   1.409   0.991  0.00  0.00    +0.046 A 
ATOM     27  C   UNL     1       2.826   2.074   2.138  0.00  0.00    +0.004 A 
ENDBRANCH  21  25
ENDBRANCH  11  21
ENDBRANCH   1  17
BRANCH   7  28
ATOM     28  N   UNL     1      12.736  -2.231   0.369  0.00  0.00    -0.330 N 
ATOM     29  C   UNL     1      12.466  -0.789   0.457  0.00  0.00    +0.103 C 
ATOM     30  C   UNL     1      13.245  -0.212   1.643  0.00  0.00    +0.004 C 
ATOM     31  C   UNL     1      14.726  -0.566   1.496  0.00  0.00    -0.066 C 
ATOM     32  C   UNL     1      14.893  -2.087   1.502  0.00  0.00    +0.004 C 
ATOM     33  C   UNL     1      14.133  -2.686   0.321  0.00  0.00    +0.103 C 
BRANCH  31  34
ATOM     34  N   UNL     1      15.482   0.014   2.614  0.00  0.00    +0.382 N 
ATOM     35  C   UNL     1      15.315   1.472   2.611  0.00  0.00    -0.078 C 
ATOM     36  C   UNL     1      16.033   2.074   3.821  0.00  0.00    -0.019 C 
ATOM     37  C   UNL     1      17.523   1.728   3.748  0.00  0.00    -0.004 C 
ATOM     38  C   UNL     1      17.681   0.207   3.677  0.00  0.00    -0.019 C 
ATOM     39  C   UNL     1      16.902  -0.326   2.472  0.00  0.00    -0.078 C 
ATOM     40  H   UNL     1      15.133  -0.360   3.484  0.00  0.00    -0.081 HD
ENDBRANCH  31  34
ENDBRANCH   7  28
TORSDOF 5
