REMARK  Name = CHEMBL526658
REMARK  6 active torsions:
REMARK  status: ('A' for Active; 'I' for Inactive)
REMARK    1  A    between atoms: C_7  and  N_32
REMARK    2  A    between atoms: C_8  and  C_13
REMARK    3  A    between atoms: C_19  and  O_23
REMARK    4  A    between atoms: O_23  and  C_24
REMARK    5  A    between atoms: C_24  and  C_25
REMARK    6  A    between atoms: C_25  and  N_26
REMARK                            x       y       z     vdW  Elec       q    Type
REMARK                         _______ _______ _______ _____ _____    ______ ____
ROOT
ATOM      1  C   UNL     1       1.036  -3.688  -0.259  0.00  0.00    +0.146 A 
ATOM      2  N   UNL     1       2.308  -4.177  -0.129  0.00  0.00    -0.338 N 
ATOM      3  H   UNL     1       3.124  -3.655  -0.072  0.00  0.00    +0.167 HD
ATOM      4  C   UNL     1       2.213  -5.559  -0.091  0.00  0.00    +0.067 A 
ATOM      5  C   UNL     1       3.143  -6.582   0.026  0.00  0.00    +0.031 A 
ATOM      6  C   UNL     1       2.723  -7.895   0.032  0.00  0.00    +0.048 A 
ATOM      7  C   UNL     1       1.370  -8.203  -0.079  0.00  0.00    +0.123 A 
ATOM      8  C   UNL     1       0.432  -7.197  -0.197  0.00  0.00    +0.075 A 
ATOM      9  C   UNL     1       0.845  -5.861  -0.204  0.00  0.00    +0.093 A 
ATOM     10  N   UNL     1       0.179  -4.683  -0.297  0.00  0.00    -0.227 NA
ENDROOT
BRANCH   1  18
ATOM     11  C   UNL     1      -2.534   1.366  -0.489  0.00  0.00    +0.001 A 
ATOM     12  C   UNL     1      -1.489   2.275  -0.568  0.00  0.00    +0.002 A 
ATOM     13  C   UNL     1      -0.179   1.844  -0.570  0.00  0.00    +0.026 A 
ATOM     14  C   UNL     1       0.100   0.483  -0.493  0.00  0.00    +0.051 A 
ATOM     15  C   UNL     1      -0.962  -0.434  -0.414  0.00  0.00    +0.020 A 
ATOM     16  C   UNL     1      -2.282   0.025  -0.413  0.00  0.00    +0.012 A 
ATOM     17  C   UNL     1      -0.660  -1.869  -0.333  0.00  0.00    +0.050 A 
ATOM     18  C   UNL     1       0.681  -2.261  -0.339  0.00  0.00    +0.103 A 
ATOM     19  C   UNL     1       1.696  -1.278  -0.422  0.00  0.00    +0.262 A 
ATOM     20  O   UNL     1       2.863  -1.629  -0.427  0.00  0.00    -0.267 OA
ATOM     21  N   UNL     1       1.405   0.031  -0.494  0.00  0.00    -0.321 N 
ATOM     22  H   UNL     1       2.128   0.674  -0.550  0.00  0.00    +0.169 HD
BRANCH  17  23
ATOM     23  N   UNL     1      -1.667  -2.800  -0.253  0.00  0.00    -0.357 N 
ATOM     24  H   UNL     1      -2.587  -2.511  -0.148  0.00  0.00    +0.142 HD
ATOM     25  H   UNL     1      -1.458  -3.746  -0.303  0.00  0.00    +0.142 HD
ENDBRANCH  17  23
ENDBRANCH   1  18
BRANCH   7  26
ATOM     26  O   UNL     1       0.970  -9.503  -0.072  0.00  0.00    -0.491 OA
BRANCH  26  27
ATOM     27  C   UNL     1       1.990 -10.495   0.052  0.00  0.00    +0.244 C 
BRANCH  27  28
ATOM     28  C   UNL     1       1.353 -11.886   0.041  0.00  0.00    +0.125 C 
BRANCH  28  29
ATOM     29  N   UNL     1       0.711 -12.120  -1.259  0.00  0.00    -0.295 NA
ATOM     30  C   UNL     1      -0.281 -13.202  -1.169  0.00  0.00    +0.112 C 
ATOM     31  C   UNL     1      -0.967 -13.371  -2.528  0.00  0.00    +0.175 C 
ATOM     32  O   UNL     1       0.024 -13.626  -3.528  0.00  0.00    -0.377 OA
ATOM     33  C   UNL     1       1.005 -12.592  -3.642  0.00  0.00    +0.175 C 
ATOM     34  C   UNL     1       1.711 -12.414  -2.295  0.00  0.00    +0.112 C 
ENDBRANCH  28  29
ENDBRANCH  27  28
ENDBRANCH  26  27
ENDBRANCH   7  26
TORSDOF 6
