REMARK  Name = CHEMBL526507
REMARK  7 active torsions:
REMARK  status: ('A' for Active; 'I' for Inactive)
REMARK    1  A    between atoms: C_1  and  N_2
REMARK    2  A    between atoms: N_5  and  C_8
REMARK    3  A    between atoms: C_15  and  C_18
REMARK    4  A    between atoms: C_19  and  N_40
REMARK    5  A    between atoms: C_22  and  C_30
REMARK    6  A    between atoms: N_32  and  C_33
REMARK    7  A    between atoms: C_33  and  C_34
REMARK                            x       y       z     vdW  Elec       q    Type
REMARK                         _______ _______ _______ _____ _____    ______ ____
ROOT
ATOM      1  C   UNL     1      -0.605  -7.764   6.078  0.00  0.00    +0.103 A 
ATOM      2  C   UNL     1       0.611  -7.731   6.763  0.00  0.00    +0.050 A 
ATOM      3  C   UNL     1       0.824  -8.704   7.843  0.00  0.00    +0.021 A 
ATOM      4  C   UNL     1       2.016  -8.723   8.566  0.00  0.00    +0.024 A 
ATOM      5  C   UNL     1       2.183  -9.658   9.582  0.00  0.00    +0.037 A 
ATOM      6  C   UNL     1       1.159 -10.569   9.873  0.00  0.00    +0.015 A 
ATOM      7  C   UNL     1      -0.008 -10.553   9.167  0.00  0.00    +0.027 A 
ATOM      8  C   UNL     1      -0.197  -9.625   8.144  0.00  0.00    +0.051 A 
ATOM      9  N   UNL     1      -1.375  -9.604   7.429  0.00  0.00    -0.321 N 
ATOM     10  H   UNL     1      -2.071 -10.243   7.646  0.00  0.00    +0.169 HD
ATOM     11  C   UNL     1      -1.586  -8.717   6.443  0.00  0.00    +0.262 A 
ATOM     12  O   UNL     1      -2.647  -8.736   5.844  0.00  0.00    -0.267 OA
ENDROOT
BRANCH   1  20
ATOM     13  C   UNL     1      -0.944  -3.661   1.728  0.00  0.00    +0.032 A 
ATOM     14  C   UNL     1      -2.259  -4.107   1.611  0.00  0.00    +0.025 A 
ATOM     15  C   UNL     1      -2.732  -5.109   2.431  0.00  0.00    +0.029 A 
ATOM     16  C   UNL     1      -1.896  -5.679   3.380  0.00  0.00    +0.067 A 
ATOM     17  C   UNL     1      -0.568  -5.236   3.506  0.00  0.00    +0.091 A 
ATOM     18  C   UNL     1      -0.097  -4.223   2.665  0.00  0.00    +0.053 A 
ATOM     19  N   UNL     1       0.006  -5.961   4.498  0.00  0.00    -0.227 NA
ATOM     20  C   UNL     1      -0.869  -6.811   4.987  0.00  0.00    +0.146 A 
ATOM     21  N   UNL     1      -2.062  -6.676   4.328  0.00  0.00    -0.338 N 
ATOM     22  H   UNL     1      -2.872  -7.183   4.495  0.00  0.00    +0.167 HD
BRANCH  13  27
ATOM     23  C   UNL     1       0.013   1.391  -0.108  0.00  0.00    -0.096 C 
ATOM     24  N   UNL     1       0.038  -0.078  -0.093  0.00  0.00    +0.380 N 
ATOM     25  C   UNL     1      -1.338  -0.590  -0.101  0.00  0.00    -0.060 C 
ATOM     26  C   UNL     1      -1.314  -2.118  -0.201  0.00  0.00    +0.086 C 
ATOM     27  N   UNL     1      -0.477  -2.643   0.889  0.00  0.00    -0.333 N 
ATOM     28  C   UNL     1       0.864  -2.068   1.073  0.00  0.00    +0.086 C 
ATOM     29  C   UNL     1       0.737  -0.542   1.113  0.00  0.00    -0.060 C 
ATOM     30  H   UNL     1       0.524  -0.413  -0.911  0.00  0.00    -0.082 HD
ENDBRANCH  13  27
ENDBRANCH   1  20
BRANCH   5  31
ATOM     31  C   UNL     1       3.441  -9.690  10.356  0.00  0.00    +0.244 C 
ATOM     32  O   UNL     1       4.330  -8.900  10.104  0.00  0.00    -0.270 OA
ATOM     33  N   UNL     1       3.603 -10.596  11.341  0.00  0.00    -0.307 N 
ATOM     34  H   UNL     1       2.894 -11.226  11.541  0.00  0.00    +0.149 HD
BRANCH  33  35
ATOM     35  C   UNL     1       4.851 -10.628  12.108  0.00  0.00    +0.139 C 
BRANCH  35  36
ATOM     36  C   UNL     1       4.778 -11.723  13.140  0.00  0.00    -0.030 A 
ATOM     37  C   UNL     1       4.274 -11.454  14.399  0.00  0.00    +0.005 A 
ATOM     38  C   UNL     1       4.207 -12.459  15.346  0.00  0.00    +0.000 A 
ATOM     39  C   UNL     1       4.643 -13.733  15.034  0.00  0.00    +0.000 A 
ATOM     40  C   UNL     1       5.146 -14.002  13.775  0.00  0.00    +0.000 A 
ATOM     41  C   UNL     1       5.209 -12.998  12.827  0.00  0.00    +0.005 A 
ENDBRANCH  35  36
ENDBRANCH  33  35
ENDBRANCH   5  31
BRANCH   2  42
ATOM     42  N   UNL     1       1.581  -6.815   6.435  0.00  0.00    -0.357 N 
ATOM     43  H   UNL     1       1.396  -6.127   5.777  0.00  0.00    +0.142 HD
ATOM     44  H   UNL     1       2.451  -6.855   6.863  0.00  0.00    +0.142 HD
ENDBRANCH   2  42
TORSDOF 6
