REMARK  Name = CHEMBL495984
REMARK  6 active torsions:
REMARK  status: ('A' for Active; 'I' for Inactive)
REMARK    1  A    between atoms: C_1  and  C_2
REMARK    2  A    between atoms: C_2  and  C_3
REMARK    3  A    between atoms: N_6  and  C_32
REMARK    4  A    between atoms: C_7  and  N_9
REMARK    5  A    between atoms: N_9  and  C_10
REMARK    6  A    between atoms: C_21  and  C_22
REMARK                            x       y       z     vdW  Elec       q    Type
REMARK                         _______ _______ _______ _____ _____    ______ ____
ROOT
ATOM      1  C   UNL     1       4.042  -2.417   2.774  0.00  0.00    +0.051 A 
ATOM      2  C   UNL     1       5.248  -1.595   2.935  0.00  0.00    +0.020 A 
ATOM      3  C   UNL     1       5.194  -0.205   2.810  0.00  0.00    +0.012 A 
ATOM      4  C   UNL     1       6.332   0.535   2.965  0.00  0.00    +0.001 A 
ATOM      5  C   UNL     1       7.542  -0.084   3.246  0.00  0.00    +0.002 A 
ATOM      6  C   UNL     1       7.618  -1.454   3.373  0.00  0.00    +0.026 A 
ATOM      7  C   UNL     1       6.471  -2.228   3.219  0.00  0.00    +0.051 A 
ATOM      8  N   UNL     1       6.526  -3.601   3.344  0.00  0.00    -0.321 N 
ATOM      9  H   UNL     1       7.376  -4.025   3.541  0.00  0.00    +0.169 HD
ATOM     10  C   UNL     1       5.431  -4.365   3.200  0.00  0.00    +0.262 A 
ATOM     11  O   UNL     1       5.529  -5.574   3.319  0.00  0.00    -0.267 OA
ATOM     12  C   UNL     1       4.164  -3.801   2.917  0.00  0.00    +0.103 A 
ENDROOT
BRANCH  12  13
ATOM     13  C   UNL     1       2.983  -4.668   2.771  0.00  0.00    +0.146 A 
ATOM     14  N   UNL     1       3.005  -6.038   2.777  0.00  0.00    -0.338 N 
ATOM     15  H   UNL     1       3.788  -6.601   2.877  0.00  0.00    +0.167 HD
ATOM     16  C   UNL     1       1.700  -6.468   2.614  0.00  0.00    +0.066 A 
ATOM     17  C   UNL     1       1.102  -7.718   2.543  0.00  0.00    +0.028 A 
ATOM     18  C   UNL     1      -0.263  -7.818   2.372  0.00  0.00    +0.002 A 
ATOM     19  C   UNL     1      -1.044  -6.676   2.270  0.00  0.00    +0.002 A 
ATOM     20  C   UNL     1      -0.469  -5.427   2.338  0.00  0.00    +0.030 A 
ATOM     21  C   UNL     1       0.913  -5.308   2.512  0.00  0.00    +0.089 A 
ATOM     22  N   UNL     1       1.749  -4.245   2.620  0.00  0.00    -0.227 NA
ENDBRANCH  12  13
BRANCH   1  23
ATOM     23  N   UNL     1       2.826  -1.841   2.496  0.00  0.00    -0.356 N 
ATOM     24  H   UNL     1       2.067  -2.003   3.078  0.00  0.00    +0.144 HD
BRANCH  23  29
ATOM     25  C   UNL     1       0.543  -0.080   2.254  0.00  0.00    -0.013 C 
ATOM     26  C   UNL     1      -0.208  -0.891   1.194  0.00  0.00    -0.015 C 
ATOM     27  C   UNL     1       0.621  -2.121   0.819  0.00  0.00    -0.076 C 
ATOM     28  N   UNL     1       1.920  -1.697   0.284  0.00  0.00    +0.390 N 
ATOM     29  C   UNL     1       2.675  -0.981   1.319  0.00  0.00    +0.016 C 
ATOM     30  C   UNL     1       1.926   0.294   1.713  0.00  0.00    +0.006 C 
ATOM     31  C   UNL     1       1.707  -0.809  -0.867  0.00  0.00    -0.093 C 
ATOM     32  H   UNL     1       2.442  -2.508  -0.011  0.00  0.00    -0.080 HD
BRANCH  25  34
ATOM     33  C   UNL     1      -1.573   0.820   3.232  0.00  0.00    +0.004 C 
ATOM     34  C   UNL     1      -0.242   1.193   2.576  0.00  0.00    -0.000 C 
ENDBRANCH  25  34
ENDBRANCH  23  29
ENDBRANCH   1  23
TORSDOF 4
