REMARK  Name = CHEMBL204727
REMARK  2 active torsions:
REMARK  status: ('A' for Active; 'I' for Inactive)
REMARK    1  A    between atoms: C_7  and  N_22
REMARK    2  A    between atoms: C_8  and  C_12
REMARK                            x       y       z     vdW  Elec       q    Type
REMARK                         _______ _______ _______ _____ _____    ______ ____
ROOT
ATOM      1  C   UNL     1       0.191   1.533   0.027  0.00  0.00    +0.001 A 
ATOM      2  C   UNL     1       1.426   2.166  -0.007  0.00  0.00    +0.002 A 
ATOM      3  C   UNL     1       2.592   1.431  -0.037  0.00  0.00    +0.026 A 
ATOM      4  C   UNL     1       2.534   0.042  -0.034  0.00  0.00    +0.051 A 
ATOM      5  C   UNL     1       1.280  -0.595   0.001  0.00  0.00    +0.020 A 
ATOM      6  C   UNL     1       0.110   0.169   0.031  0.00  0.00    +0.012 A 
ATOM      7  C   UNL     1       1.226  -2.063   0.004  0.00  0.00    +0.050 A 
ATOM      8  C   UNL     1       2.433  -2.766  -0.027  0.00  0.00    +0.103 A 
ATOM      9  C   UNL     1       3.656  -2.055  -0.061  0.00  0.00    +0.262 A 
ATOM     10  N   UNL     1       3.690  -0.712  -0.063  0.00  0.00    -0.321 N 
ATOM     11  O   UNL     1       4.704  -2.676  -0.088  0.00  0.00    -0.267 OA
ATOM     12  H   UNL     1       4.548  -0.260  -0.087  0.00  0.00    +0.169 HD
ENDROOT
BRANCH   8  13
ATOM     13  C   UNL     1       2.432  -4.237  -0.025  0.00  0.00    +0.148 A 
ATOM     14  N   UNL     1       3.548  -5.027   0.071  0.00  0.00    -0.336 N 
ATOM     15  C   UNL     1       3.117  -6.340   0.037  0.00  0.00    +0.086 A 
ATOM     16  C   UNL     1       3.758  -7.569   0.093  0.00  0.00    +0.031 A 
ATOM     17  C   UNL     1       2.983  -8.716   0.029  0.00  0.00    +0.022 A 
ATOM     18  C   UNL     1       1.608  -8.604  -0.087  0.00  0.00    +0.113 A 
ATOM     19  N   UNL     1       1.018  -7.429  -0.139  0.00  0.00    -0.234 NA
ATOM     20  H   UNL     1       4.465  -4.722   0.148  0.00  0.00    +0.167 HD
ATOM     21  C   UNL     1       1.715  -6.295  -0.082  0.00  0.00    +0.178 A 
ATOM     22  N   UNL     1       1.360  -4.994  -0.108  0.00  0.00    -0.208 NA
ENDBRANCH   8  13
BRANCH   7  23
ATOM     23  N   UNL     1       0.024  -2.725   0.038  0.00  0.00    -0.357 N 
ATOM     24  H   UNL     1      -0.802  -2.226   0.140  0.00  0.00    +0.142 HD
ATOM     25  H   UNL     1      -0.000  -3.691  -0.040  0.00  0.00    +0.142 HD
ENDBRANCH   7  23
TORSDOF 2
