REMARK  Name = CHEMBL209265
REMARK  4 active torsions:
REMARK  status: ('A' for Active; 'I' for Inactive)
REMARK    1  A    between atoms: C_1  and  N_2
REMARK    2  A    between atoms: N_5  and  C_8
REMARK    3  A    between atoms: C_8  and  C_9
REMARK    4  A    between atoms: C_16  and  C_19
REMARK                            x       y       z     vdW  Elec       q    Type
REMARK                         _______ _______ _______ _____ _____    ______ ____
ROOT
ATOM      1  C   UNL     1      -0.094  -4.478   2.524  0.00  0.00    -0.031 A 
ATOM      2  C   UNL     1       1.267  -4.704   2.672  0.00  0.00    +0.007 A 
ATOM      3  C   UNL     1       1.777  -5.134   3.879  0.00  0.00    +0.028 A 
ATOM      4  C   UNL     1       0.922  -5.340   4.953  0.00  0.00    +0.067 A 
ATOM      5  C   UNL     1      -0.457  -5.111   4.803  0.00  0.00    +0.090 A 
ATOM      6  C   UNL     1      -0.950  -4.671   3.570  0.00  0.00    +0.034 A 
ATOM      7  N   UNL     1      -1.041  -5.389   5.994  0.00  0.00    -0.226 NA
ATOM      8  C   UNL     1      -0.128  -5.769   6.855  0.00  0.00    +0.160 A 
ATOM      9  N   UNL     1       1.105  -5.755   6.258  0.00  0.00    -0.337 N 
ATOM     10  H   UNL     1       1.949  -5.993   6.674  0.00  0.00    +0.167 HD
ENDROOT
BRANCH   8  11
ATOM     11  C   UNL     1      -0.389  -6.152   8.256  0.00  0.00    +0.135 A 
ATOM     12  C   UNL     1      -1.698  -6.175   8.921  0.00  0.00    +0.030 A 
ATOM     13  C   UNL     1      -2.998  -5.878   8.508  0.00  0.00    +0.012 A 
ATOM     14  C   UNL     1      -4.035  -6.002   9.388  0.00  0.00    +0.001 A 
ATOM     15  C   UNL     1      -3.808  -6.422  10.692  0.00  0.00    +0.002 A 
ATOM     16  C   UNL     1      -2.535  -6.720  11.121  0.00  0.00    +0.028 A 
ATOM     17  C   UNL     1      -1.463  -6.600  10.241  0.00  0.00    +0.066 A 
ATOM     18  N   UNL     1      -0.113  -6.816  10.357  0.00  0.00    -0.276 N 
ATOM     19  N   UNL     1       0.507  -6.540   9.135  0.00  0.00    -0.170 NA
ATOM     20  H   UNL     1       0.340  -7.116  11.161  0.00  0.00    +0.189 HD
ENDBRANCH   8  11
BRANCH   1  21
ATOM     21  C   UNL     1      -0.632  -4.009   1.196  0.00  0.00    +0.119 C 
BRANCH  21  26
ATOM     22  C   UNL     1      -0.018   1.465   0.010  0.00  0.00    -0.096 C 
ATOM     23  N   UNL     1       0.002  -0.004   0.002  0.00  0.00    +0.379 N 
ATOM     24  C   UNL     1      -1.376  -0.512   0.011  0.00  0.00    -0.064 C 
ATOM     25  C   UNL     1      -1.356  -2.042  -0.017  0.00  0.00    +0.066 C 
ATOM     26  N   UNL     1      -0.624  -2.541   1.156  0.00  0.00    -0.302 NA
ATOM     27  C   UNL     1       0.750  -2.020   1.175  0.00  0.00    +0.066 C 
ATOM     28  C   UNL     1       0.713  -0.490   1.192  0.00  0.00    -0.064 C 
ATOM     29  H   UNL     1       0.475  -0.329  -0.828  0.00  0.00    -0.082 HD
ENDBRANCH  21  26
ENDBRANCH   1  21
TORSDOF 3
