REMARK  Name = CHEMBL209783
REMARK  2 active torsions:
REMARK  status: ('A' for Active; 'I' for Inactive)
REMARK    1  A    between atoms: C_7  and  C_11
REMARK    2  A    between atoms: C_17  and  N_21
REMARK                            x       y       z     vdW  Elec       q    Type
REMARK                         _______ _______ _______ _____ _____    ______ ____
ROOT
ATOM      1  C   UNL     1      -4.337   3.138   0.041  0.00  0.00    +0.160 A 
ATOM      2  N   UNL     1      -5.661   3.483   0.076  0.00  0.00    -0.337 N 
ATOM      3  H   UNL     1      -6.415   2.873   0.091  0.00  0.00    +0.167 HD
ATOM      4  C   UNL     1      -5.723   4.866   0.088  0.00  0.00    +0.067 A 
ATOM      5  C   UNL     1      -6.767   5.780   0.120  0.00  0.00    +0.029 A 
ATOM      6  C   UNL     1      -6.498   7.132   0.123  0.00  0.00    +0.025 A 
ATOM      7  C   UNL     1      -5.181   7.589   0.092  0.00  0.00    +0.032 A 
ATOM      8  C   UNL     1      -4.131   6.692   0.059  0.00  0.00    +0.053 A 
ATOM      9  C   UNL     1      -4.392   5.318   0.058  0.00  0.00    +0.091 A 
ATOM     10  N   UNL     1      -3.596   4.221   0.035  0.00  0.00    -0.226 NA
ENDROOT
BRANCH   1  17
ATOM     11  C   UNL     1      -0.018   1.385  -0.066  0.00  0.00    +0.001 A 
ATOM     12  C   UNL     1       0.001  -0.004  -0.077  0.00  0.00    +0.002 A 
ATOM     13  C   UNL     1      -1.174  -0.721  -0.058  0.00  0.00    +0.028 A 
ATOM     14  C   UNL     1      -2.393  -0.049  -0.026  0.00  0.00    +0.066 A 
ATOM     15  C   UNL     1      -2.407   1.358  -0.015  0.00  0.00    +0.030 A 
ATOM     16  C   UNL     1      -1.203   2.064  -0.030  0.00  0.00    +0.012 A 
ATOM     17  C   UNL     1      -3.820   1.756   0.018  0.00  0.00    +0.135 A 
ATOM     18  N   UNL     1      -4.539   0.657   0.024  0.00  0.00    -0.170 NA
ATOM     19  H   UNL     1      -3.998  -1.385  -0.004  0.00  0.00    +0.189 HD
ATOM     20  N   UNL     1      -3.701  -0.462  -0.002  0.00  0.00    -0.276 N 
ENDBRANCH   1  17
BRANCH   7  21
ATOM     21  N   UNL     1      -4.922   8.964   0.094  0.00  0.00    -0.325 N 
ATOM     22  C   UNL     1      -3.545   9.475   0.182  0.00  0.00    +0.133 C 
ATOM     23  C   UNL     1      -3.337  10.497  -0.942  0.00  0.00    +0.178 C 
ATOM     24  O   UNL     1      -4.381  11.473  -0.890  0.00  0.00    -0.377 OA
ATOM     25  C   UNL     1      -5.690  10.941  -1.106  0.00  0.00    +0.178 C 
ATOM     26  C   UNL     1      -6.019   9.941   0.003  0.00  0.00    +0.133 C 
ENDBRANCH   7  21
TORSDOF 2
