REMARK  Name = CHEMBL495530
REMARK  6 active torsions:
REMARK  status: ('A' for Active; 'I' for Inactive)
REMARK    1  A    between atoms: C_1  and  N_2
REMARK    2  A    between atoms: N_5  and  C_8
REMARK    3  A    between atoms: C_15  and  C_18
REMARK    4  A    between atoms: C_19  and  N_39
REMARK    5  A    between atoms: C_22  and  N_30
REMARK    6  A    between atoms: C_31  and  C_33
REMARK                            x       y       z     vdW  Elec       q    Type
REMARK                         _______ _______ _______ _____ _____    ______ ____
ROOT
ATOM      1  C   UNL     1      -0.612  -8.191   5.913  0.00  0.00    +0.103 A 
ATOM      2  C   UNL     1       0.634  -8.044   6.526  0.00  0.00    +0.050 A 
ATOM      3  C   UNL     1       0.984  -8.965   7.615  0.00  0.00    +0.022 A 
ATOM      4  C   UNL     1       2.215  -8.869   8.269  0.00  0.00    +0.035 A 
ATOM      5  C   UNL     1       2.515  -9.751   9.291  0.00  0.00    +0.034 A 
ATOM      6  C   UNL     1       1.596 -10.729   9.666  0.00  0.00    +0.025 A 
ATOM      7  C   UNL     1       0.381 -10.832   9.026  0.00  0.00    +0.028 A 
ATOM      8  C   UNL     1       0.059  -9.954   7.996  0.00  0.00    +0.051 A 
ATOM      9  N   UNL     1      -1.158 -10.047   7.348  0.00  0.00    -0.321 N 
ATOM     10  H   UNL     1      -1.787 -10.733   7.620  0.00  0.00    +0.169 HD
ATOM     11  C   UNL     1      -1.493  -9.207   6.354  0.00  0.00    +0.262 A 
ATOM     12  O   UNL     1      -2.580  -9.326   5.817  0.00  0.00    -0.267 OA
ENDROOT
BRANCH   1  20
ATOM     13  C   UNL     1      -1.515  -4.244   1.500  0.00  0.00    +0.032 A 
ATOM     14  C   UNL     1      -2.793  -4.799   1.463  0.00  0.00    +0.025 A 
ATOM     15  C   UNL     1      -3.137  -5.816   2.329  0.00  0.00    +0.029 A 
ATOM     16  C   UNL     1      -2.209  -6.291   3.243  0.00  0.00    +0.067 A 
ATOM     17  C   UNL     1      -0.917  -5.737   3.288  0.00  0.00    +0.091 A 
ATOM     18  C   UNL     1      -0.577  -4.710   2.402  0.00  0.00    +0.053 A 
ATOM     19  N   UNL     1      -0.235  -6.386   4.264  0.00  0.00    -0.227 NA
ATOM     20  C   UNL     1      -1.009  -7.292   4.817  0.00  0.00    +0.146 A 
ATOM     21  N   UNL     1      -2.242  -7.273   4.220  0.00  0.00    -0.338 N 
ATOM     22  H   UNL     1      -2.998  -7.840   4.441  0.00  0.00    +0.167 HD
BRANCH  13  27
ATOM     23  C   UNL     1       0.492  -1.783  -2.958  0.00  0.00    +0.105 C 
ATOM     24  N   UNL     1      -0.157  -1.958  -1.653  0.00  0.00    -0.302 NA
ATOM     25  C   UNL     1       0.775  -2.532  -0.674  0.00  0.00    +0.103 C 
ATOM     26  C   UNL     1       0.121  -2.530   0.712  0.00  0.00    +0.120 C 
ATOM     27  N   UNL     1      -1.178  -3.213   0.616  0.00  0.00    -0.327 N 
ATOM     28  C   UNL     1      -2.115  -2.783  -0.434  0.00  0.00    +0.120 C 
ATOM     29  C   UNL     1      -1.372  -2.775  -1.774  0.00  0.00    +0.103 C 
ENDBRANCH  13  27
ENDBRANCH   1  20
BRANCH   5  30
ATOM     30  N   UNL     1       3.747  -9.661   9.950  0.00  0.00    -0.281 N 
ATOM     31  C   UNL     1       3.826  -9.928  11.269  0.00  0.00    +0.248 C 
ATOM     32  O   UNL     1       2.845 -10.323  11.869  0.00  0.00    -0.270 OA
ATOM     33  H   UNL     1       4.543  -9.406   9.459  0.00  0.00    +0.155 HD
BRANCH  31  34
ATOM     34  C   UNL     1       5.106  -9.743  11.985  0.00  0.00    +0.037 A 
ATOM     35  C   UNL     1       6.233  -9.285  11.300  0.00  0.00    +0.013 A 
ATOM     36  C   UNL     1       7.424  -9.113  11.975  0.00  0.00    +0.001 A 
ATOM     37  C   UNL     1       7.503  -9.394  13.327  0.00  0.00    +0.000 A 
ATOM     38  C   UNL     1       6.390  -9.848  14.012  0.00  0.00    +0.001 A 
ATOM     39  C   UNL     1       5.191 -10.019  13.351  0.00  0.00    +0.013 A 
ENDBRANCH  31  34
ENDBRANCH   5  30
BRANCH   2  40
ATOM     40  N   UNL     1       1.508  -7.064   6.122  0.00  0.00    -0.357 N 
ATOM     41  H   UNL     1       1.234  -6.413   5.456  0.00  0.00    +0.142 HD
ATOM     42  H   UNL     1       2.399  -7.022   6.502  0.00  0.00    +0.142 HD
ENDBRANCH   2  40
TORSDOF 5
