REMARK  Name = CHEMBL190405
REMARK  17 active torsions:
REMARK  status: ('A' for Active; 'I' for Inactive)
REMARK    1  A    between atoms: C_1  and  C_2
REMARK    2  A    between atoms: C_2  and  C_3
REMARK    3  A    between atoms: C_2  and  C_4
REMARK    4  A    between atoms: C_2  and  N_5
REMARK    5  A    between atoms: C_10  and  C_32
REMARK    6  A    between atoms: C_15  and  N_19
REMARK    7  A    between atoms: N_19  and  C_20
REMARK    8  A    between atoms: C_20  and  C_21
REMARK    9  A    between atoms: C_21  and  C_22
REMARK   10  A    between atoms: C_22  and  C_23
REMARK   11  A    between atoms: C_23  and  C_24
REMARK   12  A    between atoms: C_24  and  O_25
REMARK   13  A    between atoms: O_25  and  C_26
REMARK   14  A    between atoms: C_34  and  O_40
REMARK   15  A    between atoms: C_36  and  O_38
REMARK   16  A    between atoms: O_38  and  C_39
REMARK   17  A    between atoms: O_40  and  C_41
REMARK                            x       y       z     vdW  Elec       q    Type
REMARK                         _______ _______ _______ _____ _____    ______ ____
ROOT
ATOM      1  N   UNL     1       0.688  -0.476  -1.203  0.00  0.00    -0.294 N 
ATOM      2  C   UNL     1       1.972  -0.132  -1.427  0.00  0.00    +0.305 C 
ATOM      3  O   UNL     1       2.560   0.570  -0.629  0.00  0.00    -0.252 OA
ATOM      4  N   UNL     1       2.602  -0.567  -2.536  0.00  0.00    -0.254 N 
ATOM      5  C   UNL     1       3.925  -0.212  -2.766  0.00  0.00    +0.135 A 
ATOM      6  C   UNL     1       4.569  -0.671  -3.936  0.00  0.00    +0.023 A 
ATOM      7  C   UNL     1       5.888  -0.321  -4.172  0.00  0.00    +0.023 A 
ATOM      8  C   UNL     1       6.537   0.488  -3.222  0.00  0.00    +0.019 A 
ATOM      9  C   UNL     1       7.871   0.889  -3.382  0.00  0.00    +0.123 A 
ATOM     10  N   UNL     1       8.445   1.646  -2.476  0.00  0.00    -0.240 NA
ATOM     11  C   UNL     1       7.809   2.062  -1.383  0.00  0.00    +0.121 A 
ATOM     12  C   UNL     1       6.494   1.718  -1.137  0.00  0.00    +0.071 A 
ATOM     13  C   UNL     1       5.823   0.911  -2.069  0.00  0.00    +0.078 A 
ATOM     14  N   UNL     1       4.549   0.549  -1.893  0.00  0.00    -0.231 NA
ATOM     15  H   UNL     1       0.218  -1.037  -1.840  0.00  0.00    +0.151 HD
ATOM     16  H   UNL     1       2.132  -1.127  -3.173  0.00  0.00    +0.158 HD
ENDROOT
BRANCH   6  17
ATOM     17  C   UNL     1       3.839  -1.523  -4.905  0.00  0.00    -0.008 A 
ATOM     18  C   UNL     1       3.140  -2.644  -4.461  0.00  0.00    +0.054 A 
ATOM     19  C   UNL     1       2.458  -3.438  -5.369  0.00  0.00    +0.124 A 
ATOM     20  C   UNL     1       2.471  -3.118  -6.719  0.00  0.00    +0.091 A 
ATOM     21  C   UNL     1       3.166  -2.003  -7.164  0.00  0.00    +0.124 A 
ATOM     22  C   UNL     1       3.845  -1.202  -6.260  0.00  0.00    +0.054 A 
BRANCH  21  23
ATOM     23  O   UNL     1       3.177  -1.694  -8.487  0.00  0.00    -0.495 OA
ATOM     24  C   UNL     1       2.451  -2.560  -9.362  0.00  0.00    +0.277 C 
ENDBRANCH  21  23
BRANCH  19  25
ATOM     25  O   UNL     1       1.776  -4.531  -4.937  0.00  0.00    -0.495 OA
ATOM     26  C   UNL     1       1.096  -5.305  -5.927  0.00  0.00    +0.277 C 
ENDBRANCH  19  25
ENDBRANCH   6  17
BRANCH   1  28
ATOM     27  C   UNL     1      -0.019   1.526   0.010  0.00  0.00    +0.031 C 
ATOM     28  C   UNL     1       0.002  -0.004   0.002  0.00  0.00    +0.028 C 
ATOM     29  C   UNL     1       0.742  -0.511   1.242  0.00  0.00    +0.031 C 
ATOM     30  C   UNL     1      -1.433  -0.534   0.013  0.00  0.00    +0.031 C 
ENDBRANCH   1  28
BRANCH  11  31
ATOM     31  N   UNL     1       8.484   2.861  -0.468  0.00  0.00    -0.329 N 
ATOM     32  H   UNL     1       9.408   3.109  -0.629  0.00  0.00    +0.147 HD
BRANCH  31  33
ATOM     33  C   UNL     1       7.800   3.328   0.740  0.00  0.00    +0.103 C 
BRANCH  33  34
ATOM     34  C   UNL     1       8.759   4.183   1.571  0.00  0.00    +0.019 C 
BRANCH  34  35
ATOM     35  C   UNL     1       8.045   4.671   2.833  0.00  0.00    +0.005 C 
BRANCH  35  36
ATOM     36  C   UNL     1       9.004   5.526   3.664  0.00  0.00    +0.041 C 
BRANCH  36  37
ATOM     37  C   UNL     1       8.290   6.014   4.926  0.00  0.00    +0.229 C 
BRANCH  37  38
ATOM     38  O   UNL     1       9.186   6.812   5.702  0.00  0.00    -0.492 OA
BRANCH  38  39
ATOM     39  C   UNL     1       8.705   7.327   6.864  0.00  0.00    +0.120 A 
ATOM     40  C   UNL     1       7.399   7.065   7.252  0.00  0.00    +0.045 A 
ATOM     41  C   UNL     1       6.912   7.590   8.433  0.00  0.00    +0.004 A 
ATOM     42  C   UNL     1       7.726   8.376   9.229  0.00  0.00    +0.000 A 
ATOM     43  C   UNL     1       9.027   8.639   8.844  0.00  0.00    +0.004 A 
ATOM     44  C   UNL     1       9.521   8.111   7.666  0.00  0.00    +0.045 A 
ENDBRANCH  38  39
ENDBRANCH  37  38
ENDBRANCH  36  37
ENDBRANCH  35  36
ENDBRANCH  34  35
ENDBRANCH  33  34
ENDBRANCH  31  33
ENDBRANCH  11  31
TORSDOF 12
