REMARK  Name = CHEMBL208775
REMARK  6 active torsions:
REMARK  status: ('A' for Active; 'I' for Inactive)
REMARK    1  A    between atoms: C_7  and  C_11
REMARK    2  A    between atoms: C_17  and  O_21
REMARK    3  A    between atoms: O_21  and  C_22
REMARK    4  A    between atoms: C_22  and  C_23
REMARK    5  A    between atoms: C_23  and  C_24
REMARK    6  A    between atoms: C_24  and  N_25
REMARK                            x       y       z     vdW  Elec       q    Type
REMARK                         _______ _______ _______ _____ _____    ______ ____
ROOT
ATOM      1  C   UNL     1      -4.336   3.138   0.061  0.00  0.00    +0.160 A 
ATOM      2  N   UNL     1      -5.661   3.483   0.081  0.00  0.00    -0.337 N 
ATOM      3  H   UNL     1      -6.415   2.873   0.089  0.00  0.00    +0.167 HD
ATOM      4  C   UNL     1      -5.723   4.866   0.089  0.00  0.00    +0.067 A 
ATOM      5  C   UNL     1      -6.766   5.780   0.108  0.00  0.00    +0.031 A 
ATOM      6  C   UNL     1      -6.496   7.132   0.112  0.00  0.00    +0.048 A 
ATOM      7  C   UNL     1      -5.181   7.588   0.096  0.00  0.00    +0.123 A 
ATOM      8  C   UNL     1      -4.131   6.692   0.076  0.00  0.00    +0.075 A 
ATOM      9  C   UNL     1      -4.392   5.318   0.073  0.00  0.00    +0.093 A 
ATOM     10  N   UNL     1      -3.596   4.221   0.062  0.00  0.00    -0.226 NA
ENDROOT
BRANCH   1  17
ATOM     11  C   UNL     1      -0.017   1.385   0.010  0.00  0.00    +0.001 A 
ATOM     12  C   UNL     1       0.002  -0.004   0.002  0.00  0.00    +0.002 A 
ATOM     13  C   UNL     1      -1.173  -0.721   0.009  0.00  0.00    +0.028 A 
ATOM     14  C   UNL     1      -2.392  -0.049   0.024  0.00  0.00    +0.066 A 
ATOM     15  C   UNL     1      -2.406   1.357   0.032  0.00  0.00    +0.030 A 
ATOM     16  C   UNL     1      -1.202   2.063   0.030  0.00  0.00    +0.012 A 
ATOM     17  C   UNL     1      -3.819   1.756   0.048  0.00  0.00    +0.135 A 
ATOM     18  N   UNL     1      -4.539   0.657   0.048  0.00  0.00    -0.170 NA
ATOM     19  H   UNL     1      -3.998  -1.385   0.031  0.00  0.00    +0.189 HD
ATOM     20  N   UNL     1      -3.701  -0.462   0.034  0.00  0.00    -0.276 N 
ENDBRANCH   1  17
BRANCH   7  21
ATOM     21  O   UNL     1      -4.929   8.924   0.098  0.00  0.00    -0.492 OA
BRANCH  21  22
ATOM     22  C   UNL     1      -6.060   9.797   0.118  0.00  0.00    +0.227 C 
BRANCH  22  23
ATOM     23  C   UNL     1      -5.582  11.251   0.118  0.00  0.00    +0.022 C 
BRANCH  23  24
ATOM     24  C   UNL     1      -6.793  12.186   0.139  0.00  0.00    -0.076 C 
BRANCH  24  25
ATOM     25  N   UNL     1      -6.334  13.581   0.139  0.00  0.00    +0.380 N 
ATOM     26  C   UNL     1      -5.709  13.915  -1.167  0.00  0.00    -0.079 C 
ATOM     27  C   UNL     1      -5.806  15.460  -1.222  0.00  0.00    -0.020 C 
ATOM     28  C   UNL     1      -7.180  15.743  -0.572  0.00  0.00    -0.020 C 
ATOM     29  C   UNL     1      -7.487  14.497   0.280  0.00  0.00    -0.079 C 
ATOM     30  H   UNL     1      -5.676  13.732   0.889  0.00  0.00    -0.082 HD
ENDBRANCH  24  25
ENDBRANCH  23  24
ENDBRANCH  22  23
ENDBRANCH  21  22
ENDBRANCH   7  21
TORSDOF 6
