REMARK  Name = CHEMBL24828
REMARK  7 active torsions:
REMARK  status: ('A' for Active; 'I' for Inactive)
REMARK    1  A    between atoms: C_1  and  N_2
REMARK    2  A    between atoms: C_5  and  C_8
REMARK    3  A    between atoms: C_8  and  O_9
REMARK    4  A    between atoms: O_9  and  C_10
REMARK    5  A    between atoms: C_15  and  O_16
REMARK    6  A    between atoms: O_16  and  C_17
REMARK    7  A    between atoms: N_22  and  C_23
REMARK                            x       y       z     vdW  Elec       q    Type
REMARK                         _______ _______ _______ _____ _____    ______ ____
ROOT
ATOM      1  C   UNL     1       1.269  -6.011   1.875  0.00  0.00    +0.164 A 
ATOM      2  C   UNL     1       0.936  -6.780   0.782  0.00  0.00    +0.078 A 
ATOM      3  C   UNL     1       0.856  -8.171   0.916  0.00  0.00    +0.080 A 
ATOM      4  C   UNL     1       1.119  -8.766   2.175  0.00  0.00    +0.044 A 
ATOM      5  C   UNL     1       1.455  -7.962   3.270  0.00  0.00    +0.062 A 
ATOM      6  C   UNL     1       1.533  -6.607   3.116  0.00  0.00    +0.162 A 
ATOM      7  C   UNL     1       1.030 -10.175   2.280  0.00  0.00    +0.134 A 
ATOM      8  N   UNL     1       0.706 -10.865   1.194  0.00  0.00    -0.220 NA
ATOM      9  C   UNL     1       0.469 -10.266   0.038  0.00  0.00    +0.223 A 
ATOM     10  N   UNL     1       0.536  -8.965  -0.118  0.00  0.00    -0.235 NA
ATOM     11  N   UNL     1       1.276 -10.813   3.479  0.00  0.00    -0.297 N 
ATOM     12  H   UNL     1       1.419 -10.293   4.285  0.00  0.00    +0.154 HD
ENDROOT
BRANCH  11  13
ATOM     13  C   UNL     1       1.317 -12.211   3.531  0.00  0.00    +0.068 A 
ATOM     14  C   UNL     1       1.504 -12.946   2.369  0.00  0.00    +0.027 A 
ATOM     15  C   UNL     1       1.545 -14.325   2.423  0.00  0.00    +0.017 A 
ATOM     16  C   UNL     1       1.400 -14.976   3.636  0.00  0.00    +0.021 A 
ATOM     17  C   UNL     1       1.214 -14.248   4.797  0.00  0.00    +0.055 A 
ATOM     18  C   UNL     1       1.178 -12.867   4.750  0.00  0.00    +0.145 A 
ATOM     19  F   UNL     1       1.001 -12.155   5.885  0.00  0.00    -0.204 F 
ATOM     20 BR   UNL     1       1.456 -16.865   3.705  0.00  0.00    -0.050 Br
ENDBRANCH  11  13
BRANCH   6  21
ATOM     21  O   UNL     1       1.866  -5.827   4.179  0.00  0.00    -0.491 OA
ATOM     22  C   UNL     1       2.124  -6.493   5.417  0.00  0.00    +0.277 C 
ENDBRANCH   6  21
BRANCH   1  23
ATOM     23  O   UNL     1       1.347  -4.661   1.747  0.00  0.00    -0.488 OA
BRANCH  23  24
ATOM     24  C   UNL     1       1.066  -4.113   0.458  0.00  0.00    +0.232 C 
BRANCH  24  29
ATOM     25  C   UNL     1       2.631   1.266  -0.609  0.00  0.00    -0.096 C 
ATOM     26  N   UNL     1       2.416  -0.186  -0.561  0.00  0.00    +0.378 N 
ATOM     27  C   UNL     1       0.998  -0.478  -0.805  0.00  0.00    -0.079 C 
ATOM     28  C   UNL     1       0.783  -1.992  -0.837  0.00  0.00    -0.012 C 
ATOM     29  C   UNL     1       1.204  -2.590   0.509  0.00  0.00    +0.023 C 
ATOM     30  C   UNL     1       2.663  -2.217   0.788  0.00  0.00    -0.012 C 
ATOM     31  C   UNL     1       2.808  -0.694   0.759  0.00  0.00    -0.079 C 
ATOM     32  H   UNL     1       2.976  -0.632  -1.272  0.00  0.00    -0.082 HD
ENDBRANCH  24  29
ENDBRANCH  23  24
ENDBRANCH   1  23
TORSDOF 5
