REMARK  Name = CHEMBL107277
REMARK  11 active torsions:
REMARK  status: ('A' for Active; 'I' for Inactive)
REMARK    1  A    between atoms: C_1  and  C_2
REMARK    2  A    between atoms: C_2  and  N_3
REMARK    3  A    between atoms: N_3  and  C_4
REMARK    4  A    between atoms: N_3  and  C_6
REMARK    5  A    between atoms: C_4  and  C_5
REMARK    6  A    between atoms: C_6  and  C_7
REMARK    7  A    between atoms: C_7  and  O_8
REMARK    8  A    between atoms: O_8  and  C_9
REMARK    9  A    between atoms: C_12  and  N_15
REMARK   10  A    between atoms: C_21  and  C_26
REMARK   11  A    between atoms: N_24  and  C_25
REMARK                            x       y       z     vdW  Elec       q    Type
REMARK                         _______ _______ _______ _____ _____    ______ ____
ROOT
ATOM      1  N   UNL     1       1.056  -2.233   8.498  0.00  0.00    -0.299 N 
ATOM      2  C   UNL     1       2.433  -2.262   8.659  0.00  0.00    +0.125 A 
ATOM      3  C   UNL     1       2.966  -2.500   9.919  0.00  0.00    +0.070 A 
ATOM      4  C   UNL     1       4.347  -2.526  10.070  0.00  0.00    +0.056 A 
ATOM      5  C   UNL     1       5.150  -2.308   8.928  0.00  0.00    +0.018 A 
ATOM      6  C   UNL     1       6.560  -2.327   9.043  0.00  0.00    +0.025 A 
ATOM      7  C   UNL     1       7.126  -2.558  10.268  0.00  0.00    +0.050 A 
ATOM      8  C   UNL     1       6.264  -2.781  11.431  0.00  0.00    +0.259 A 
ATOM      9  O   UNL     1       6.761  -2.987  12.524  0.00  0.00    -0.267 OA
ATOM     10  N   UNL     1       4.923  -2.758  11.297  0.00  0.00    -0.311 N 
ATOM     11  C   UNL     1       4.072  -2.982  12.469  0.00  0.00    +0.152 C 
ATOM     12  C   UNL     1       4.529  -2.075   7.695  0.00  0.00    +0.122 A 
ATOM     13  N   UNL     1       3.217  -2.065   7.605  0.00  0.00    -0.239 NA
ATOM     14  H   UNL     1       0.475  -2.292   9.272  0.00  0.00    +0.154 HD
ENDROOT
BRANCH   7  15
ATOM     15  C   UNL     1       8.599  -2.583  10.416  0.00  0.00    +0.024 A 
ATOM     16  C   UNL     1       9.299  -3.780  10.255  0.00  0.00    +0.050 A 
ATOM     17  C   UNL     1      10.673  -3.797  10.395  0.00  0.00    +0.021 A 
ATOM     18  C   UNL     1      11.356  -2.631  10.693  0.00  0.00    +0.003 A 
ATOM     19  C   UNL     1      10.668  -1.442  10.853  0.00  0.00    +0.021 A 
ATOM     20  C   UNL     1       9.294  -1.410  10.711  0.00  0.00    +0.050 A 
ATOM     21 CL   UNL     1       8.434   0.085  10.905  0.00  0.00    -0.083 Cl
ATOM     22 CL   UNL     1       8.445  -5.244   9.882  0.00  0.00    -0.083 Cl
ENDBRANCH   7  15
BRANCH   1  26
ATOM     23  C   UNL     1      -0.589  -1.900   4.682  0.00  0.00    +0.121 A 
ATOM     24  C   UNL     1       0.591  -2.604   4.869  0.00  0.00    +0.047 A 
ATOM     25  C   UNL     1       1.136  -2.716   6.132  0.00  0.00    +0.027 A 
ATOM     26  C   UNL     1       0.503  -2.121   7.216  0.00  0.00    +0.033 A 
ATOM     27  C   UNL     1      -0.678  -1.415   7.028  0.00  0.00    +0.027 A 
ATOM     28  C   UNL     1      -1.219  -1.301   5.763  0.00  0.00    +0.047 A 
BRANCH  23  29
ATOM     29  O   UNL     1      -1.126  -1.791   3.437  0.00  0.00    -0.494 OA
BRANCH  29  30
ATOM     30  C   UNL     1      -0.425  -2.433   2.370  0.00  0.00    +0.210 C 
BRANCH  30  31
ATOM     31  C   UNL     1      -1.174  -2.203   1.056  0.00  0.00    -0.037 C 
BRANCH  31  32
ATOM     32  N   UNL     1      -1.157  -0.771   0.727  0.00  0.00    +0.382 N 
ATOM     33  H   UNL     1      -1.532  -0.243   1.501  0.00  0.00    -0.082 HD
BRANCH  32  35
ATOM     34  C   UNL     1       0.260   1.171   0.262  0.00  0.00    -0.017 C 
ATOM     35  C   UNL     1       0.224  -0.345   0.466  0.00  0.00    -0.082 C 
ENDBRANCH  32  35
BRANCH  32  36
ATOM     36  C   UNL     1      -1.977  -0.534  -0.469  0.00  0.00    -0.082 C 
ATOM     37  C   UNL     1      -3.442  -0.842  -0.152  0.00  0.00    -0.017 C 
ENDBRANCH  32  36
ENDBRANCH  31  32
ENDBRANCH  30  31
ENDBRANCH  29  30
ENDBRANCH  23  29
ENDBRANCH   1  26
TORSDOF 8
