REMARK  Name = CHEMBL208775
REMARK  6 active torsions:
REMARK  status: ('A' for Active; 'I' for Inactive)
REMARK    1  A    between atoms: C_7  and  C_11
REMARK    2  A    between atoms: C_16  and  O_20
REMARK    3  A    between atoms: O_20  and  C_21
REMARK    4  A    between atoms: C_21  and  C_22
REMARK    5  A    between atoms: C_22  and  C_23
REMARK    6  A    between atoms: C_23  and  N_24
REMARK                            x       y       z     vdW  Elec       q    Type
REMARK                         _______ _______ _______ _____ _____    ______ ____
ROOT
ATOM      1  C   UNL     1      -4.336   3.138   0.060  0.00  0.00    +0.160 A 
ATOM      2  N   UNL     1      -3.596   4.221   0.054  0.00  0.00    -0.226 NA
ATOM      3  C   UNL     1      -4.393   5.317   0.069  0.00  0.00    +0.090 A 
ATOM      4  C   UNL     1      -4.133   6.692   0.071  0.00  0.00    +0.033 A 
ATOM      5  C   UNL     1      -5.169   7.582   0.088  0.00  0.00    +0.048 A 
ATOM      6  C   UNL     1      -6.487   7.135   0.104  0.00  0.00    +0.123 A 
ATOM      7  C   UNL     1      -6.766   5.780   0.102  0.00  0.00    +0.073 A 
ATOM      8  C   UNL     1      -5.724   4.864   0.085  0.00  0.00    +0.070 A 
ATOM      9  N   UNL     1      -5.662   3.484   0.073  0.00  0.00    -0.337 N 
ATOM     10  H   UNL     1      -6.417   2.874   0.076  0.00  0.00    +0.167 HD
ENDROOT
BRANCH   1  17
ATOM     11  C   UNL     1      -0.017   1.385   0.010  0.00  0.00    +0.001 A 
ATOM     12  C   UNL     1       0.002  -0.004   0.002  0.00  0.00    +0.002 A 
ATOM     13  C   UNL     1      -1.173  -0.721   0.009  0.00  0.00    +0.028 A 
ATOM     14  C   UNL     1      -2.392  -0.049   0.024  0.00  0.00    +0.066 A 
ATOM     15  C   UNL     1      -2.406   1.357   0.032  0.00  0.00    +0.030 A 
ATOM     16  C   UNL     1      -1.202   2.063   0.030  0.00  0.00    +0.012 A 
ATOM     17  C   UNL     1      -3.819   1.756   0.047  0.00  0.00    +0.135 A 
ATOM     18  N   UNL     1      -4.539   0.657   0.047  0.00  0.00    -0.170 NA
ATOM     19  H   UNL     1      -3.998  -1.385   0.031  0.00  0.00    +0.189 HD
ATOM     20  N   UNL     1      -3.701  -0.462   0.033  0.00  0.00    -0.276 N 
ENDBRANCH   1  17
BRANCH   6  21
ATOM     21  O   UNL     1      -7.506   8.036   0.122  0.00  0.00    -0.492 OA
BRANCH  21  22
ATOM     22  C   UNL     1      -7.149   9.419   0.123  0.00  0.00    +0.227 C 
BRANCH  22  23
ATOM     23  C   UNL     1      -8.418  10.273   0.144  0.00  0.00    +0.022 C 
BRANCH  23  24
ATOM     24  C   UNL     1      -8.036  11.755   0.145  0.00  0.00    -0.076 C 
BRANCH  24  25
ATOM     25  N   UNL     1      -9.255  12.575   0.165  0.00  0.00    +0.380 N 
ATOM     26  C   UNL     1      -9.946  12.433   1.472  0.00  0.00    -0.079 C 
ATOM     27  C   UNL     1     -10.816  13.712   1.553  0.00  0.00    -0.020 C 
ATOM     28  C   UNL     1      -9.909  14.789   0.915  0.00  0.00    -0.020 C 
ATOM     29  C   UNL     1      -8.908  14.007   0.045  0.00  0.00    -0.079 C 
ATOM     30  H   UNL     1      -9.870  12.302  -0.586  0.00  0.00    -0.082 HD
ENDBRANCH  24  25
ENDBRANCH  23  24
ENDBRANCH  22  23
ENDBRANCH  21  22
ENDBRANCH   6  21
TORSDOF 6
