REMARK  Name = CHEMBL425247
REMARK  6 active torsions:
REMARK  status: ('A' for Active; 'I' for Inactive)
REMARK    1  A    between atoms: C_4  and  C_7
REMARK    2  A    between atoms: C_7  and  O_8
REMARK    3  A    between atoms: O_8  and  C_9
REMARK    4  A    between atoms: C_15  and  C_19
REMARK    5  A    between atoms: C_24  and  N_28
REMARK    6  A    between atoms: C_31  and  N_34
REMARK                            x       y       z     vdW  Elec       q    Type
REMARK                         _______ _______ _______ _____ _____    ______ ____
ROOT
ATOM      1  C   UNL     1       4.064  -0.876   4.448  0.00  0.00    +0.160 A 
ATOM      2  N   UNL     1       3.195  -0.417   3.581  0.00  0.00    -0.226 NA
ATOM      3  C   UNL     1       2.158   0.160   4.237  0.00  0.00    +0.090 A 
ATOM      4  C   UNL     1       0.985   0.793   3.809  0.00  0.00    +0.032 A 
ATOM      5  C   UNL     1       0.105   1.290   4.726  0.00  0.00    +0.025 A 
ATOM      6  C   UNL     1       0.362   1.175   6.091  0.00  0.00    +0.032 A 
ATOM      7  C   UNL     1       1.517   0.553   6.535  0.00  0.00    +0.051 A 
ATOM      8  C   UNL     1       2.419   0.043   5.614  0.00  0.00    +0.068 A 
ATOM      9  N   UNL     1       3.626  -0.621   5.722  0.00  0.00    -0.337 N 
ATOM     10  H   UNL     1       4.080  -0.860   6.545  0.00  0.00    +0.167 HD
ENDROOT
BRANCH   1  17
ATOM     11  C   UNL     1       5.320  -1.601   1.466  0.00  0.00    +0.132 A 
ATOM     12  C   UNL     1       6.047  -2.006   0.364  0.00  0.00    +0.046 A 
ATOM     13  C   UNL     1       7.258  -2.666   0.526  0.00  0.00    +0.006 A 
ATOM     14  C   UNL     1       7.753  -2.927   1.783  0.00  0.00    +0.028 A 
ATOM     15  C   UNL     1       7.038  -2.527   2.910  0.00  0.00    +0.070 A 
ATOM     16  C   UNL     1       5.814  -1.855   2.752  0.00  0.00    +0.072 A 
ATOM     17  C   UNL     1       5.322  -1.569   4.105  0.00  0.00    +0.139 A 
ATOM     18  N   UNL     1       6.205  -2.041   4.954  0.00  0.00    -0.170 NA
ATOM     19  N   UNL     1       7.261  -2.639   4.260  0.00  0.00    -0.276 N 
ATOM     20  H   UNL     1       8.035  -3.058   4.667  0.00  0.00    +0.189 HD
BRANCH  11  21
ATOM     21  O   UNL     1       4.136  -0.955   1.304  0.00  0.00    -0.487 OA
BRANCH  21  22
ATOM     22  C   UNL     1       3.697  -0.733  -0.037  0.00  0.00    +0.264 C 
BRANCH  22  26
ATOM     23  C   UNL     1      -0.050   1.318   0.010  0.00  0.00    +0.000 A 
ATOM     24  C   UNL     1       1.131   2.037  -0.010  0.00  0.00    +0.000 A 
ATOM     25  C   UNL     1       2.343   1.373  -0.025  0.00  0.00    +0.007 A 
ATOM     26  C   UNL     1       2.375  -0.009  -0.020  0.00  0.00    -0.010 A 
ATOM     27  C   UNL     1       1.194  -0.727   0.001  0.00  0.00    +0.007 A 
ATOM     28  C   UNL     1      -0.018  -0.064   0.015  0.00  0.00    +0.000 A 
ENDBRANCH  22  26
ENDBRANCH  21  22
ENDBRANCH  11  21
ENDBRANCH   1  17
BRANCH   6  29
ATOM     29  N   UNL     1      -0.550   1.692   7.016  0.00  0.00    -0.330 N 
ATOM     30  C   UNL     1      -0.359   1.475   8.457  0.00  0.00    +0.103 C 
ATOM     31  C   UNL     1      -0.390   2.831   9.168  0.00  0.00    +0.004 C 
ATOM     32  C   UNL     1      -1.687   3.561   8.809  0.00  0.00    -0.066 C 
ATOM     33  C   UNL     1      -1.735   3.806   7.299  0.00  0.00    +0.004 C 
ATOM     34  C   UNL     1      -1.716   2.466   6.567  0.00  0.00    +0.103 C 
BRANCH  32  35
ATOM     35  N   UNL     1      -1.735   4.848   9.516  0.00  0.00    +0.382 N 
ATOM     36  C   UNL     1      -1.682   4.612  10.963  0.00  0.00    -0.078 C 
ATOM     37  C   UNL     1      -1.650   5.952  11.701  0.00  0.00    -0.019 C 
ATOM     38  C   UNL     1      -2.913   6.748  11.359  0.00  0.00    -0.004 C 
ATOM     39  C   UNL     1      -2.997   6.923   9.840  0.00  0.00    -0.019 C 
ATOM     40  C   UNL     1      -2.979   5.548   9.171  0.00  0.00    -0.078 C 
ATOM     41  H   UNL     1      -0.946   5.412   9.239  0.00  0.00    -0.081 HD
ENDBRANCH  32  35
ENDBRANCH   6  29
TORSDOF 6
