REMARK  Name = CHEMBL496150
REMARK  6 active torsions:
REMARK  status: ('A' for Active; 'I' for Inactive)
REMARK    1  A    between atoms: C_1  and  N_2
REMARK    2  A    between atoms: N_2  and  C_3
REMARK    3  A    between atoms: N_2  and  C_4
REMARK    4  A    between atoms: N_8  and  C_10
REMARK    5  A    between atoms: C_17  and  C_19
REMARK    6  A    between atoms: C_20  and  N_31
REMARK                            x       y       z     vdW  Elec       q    Type
REMARK                         _______ _______ _______ _____ _____    ______ ____
ROOT
ATOM      1  C   UNL     1       2.636  -3.664  -1.831  0.00  0.00    +0.032 A 
ATOM      2  C   UNL     1       1.836  -4.756  -1.501  0.00  0.00    +0.025 A 
ATOM      3  C   UNL     1       2.297  -6.031  -1.663  0.00  0.00    +0.032 A 
ATOM      4  C   UNL     1       3.584  -6.250  -2.166  0.00  0.00    +0.090 A 
ATOM      5  C   UNL     1       4.394  -5.151  -2.501  0.00  0.00    +0.068 A 
ATOM      6  C   UNL     1       3.912  -3.861  -2.336  0.00  0.00    +0.051 A 
ATOM      7  N   UNL     1       5.588  -5.675  -2.962  0.00  0.00    -0.338 N 
ATOM      8  C   UNL     1       5.481  -7.041  -2.899  0.00  0.00    +0.146 A 
ATOM      9  N   UNL     1       4.301  -7.372  -2.430  0.00  0.00    -0.227 NA
ATOM     10  H   UNL     1       6.357  -5.171  -3.272  0.00  0.00    +0.167 HD
ENDROOT
BRANCH   8  11
ATOM     11  C   UNL     1       6.532  -7.993  -3.297  0.00  0.00    +0.103 A 
ATOM     12  C   UNL     1       6.363  -9.360  -3.072  0.00  0.00    +0.050 A 
ATOM     13  C   UNL     1       7.439 -10.269  -3.488  0.00  0.00    +0.020 A 
ATOM     14  C   UNL     1       7.333 -11.649  -3.293  0.00  0.00    +0.012 A 
ATOM     15  C   UNL     1       8.351 -12.470  -3.690  0.00  0.00    +0.001 A 
ATOM     16  C   UNL     1       9.489 -11.944  -4.285  0.00  0.00    +0.002 A 
ATOM     17  C   UNL     1       9.614 -10.587  -4.487  0.00  0.00    +0.026 A 
ATOM     18  C   UNL     1       8.591  -9.732  -4.091  0.00  0.00    +0.051 A 
ATOM     19  N   UNL     1       8.696  -8.369  -4.285  0.00  0.00    -0.321 N 
ATOM     20  H   UNL     1       9.495  -8.011  -4.703  0.00  0.00    +0.169 HD
ATOM     21  C   UNL     1       7.717  -7.527  -3.915  0.00  0.00    +0.262 A 
ATOM     22  O   UNL     1       7.855  -6.332  -4.111  0.00  0.00    -0.267 OA
BRANCH  12  23
ATOM     23  N   UNL     1       5.221  -9.843  -2.479  0.00  0.00    -0.357 N 
ATOM     24  H   UNL     1       4.486  -9.242  -2.282  0.00  0.00    +0.142 HD
ATOM     25  H   UNL     1       5.150 -10.784  -2.257  0.00  0.00    +0.142 HD
ENDBRANCH  12  23
ENDBRANCH   8  11
BRANCH   1  29
ATOM     26  C   UNL     1       0.738  -0.471  -1.101  0.00  0.00    -0.050 C 
ATOM     27  C   UNL     1       2.229  -0.043  -1.072  0.00  0.00    +0.005 C 
ATOM     28  C   UNL     1       2.880  -1.124  -1.971  0.00  0.00    +0.103 C 
ATOM     29  N   UNL     1       2.148  -2.365  -1.659  0.00  0.00    -0.331 N 
ATOM     30  C   UNL     1       0.816  -2.011  -1.139  0.00  0.00    +0.090 C 
BRANCH  26  32
ATOM     31  C   UNL     1       0.035   1.453   0.148  0.00  0.00    -0.096 C 
ATOM     32  N   UNL     1       0.043  -0.015   0.111  0.00  0.00    +0.379 N 
ATOM     33  C   UNL     1      -1.340  -0.512   0.098  0.00  0.00    -0.096 C 
ATOM     34  H   UNL     1       0.520  -0.370   0.925  0.00  0.00    -0.082 HD
ENDBRANCH  26  32
ENDBRANCH   1  29
TORSDOF 4
