REMARK  Name = CHEMBL205405
REMARK  4 active torsions:
REMARK  status: ('A' for Active; 'I' for Inactive)
REMARK    1  A    between atoms: C_1  and  N_2
REMARK    2  A    between atoms: N_5  and  C_8
REMARK    3  A    between atoms: C_15  and  C_18
REMARK    4  A    between atoms: C_19  and  N_29
REMARK                            x       y       z     vdW  Elec       q    Type
REMARK                         _______ _______ _______ _____ _____    ______ ____
ROOT
ATOM      1  C   UNL     1      -0.943  -3.664   1.726  0.00  0.00    +0.032 A 
ATOM      2  C   UNL     1      -2.261  -4.104   1.614  0.00  0.00    +0.025 A 
ATOM      3  C   UNL     1      -2.735  -5.103   2.437  0.00  0.00    +0.029 A 
ATOM      4  C   UNL     1      -1.898  -5.676   3.383  0.00  0.00    +0.067 A 
ATOM      5  C   UNL     1      -0.567  -5.239   3.504  0.00  0.00    +0.091 A 
ATOM      6  C   UNL     1      -0.095  -4.228   2.660  0.00  0.00    +0.053 A 
ATOM      7  N   UNL     1       0.006  -5.965   4.495  0.00  0.00    -0.227 NA
ATOM      8  C   UNL     1      -0.870  -6.810   4.988  0.00  0.00    +0.146 A 
ATOM      9  N   UNL     1      -2.065  -6.670   4.333  0.00  0.00    -0.338 N 
ATOM     10  H   UNL     1      -2.877  -7.174   4.503  0.00  0.00    +0.167 HD
ENDROOT
BRANCH   8  11
ATOM     11  C   UNL     1      -0.607  -7.763   6.079  0.00  0.00    +0.104 A 
ATOM     12  C   UNL     1       0.610  -7.733   6.758  0.00  0.00    +0.068 A 
ATOM     13  C   UNL     1       0.827  -8.705   7.841  0.00  0.00    +0.109 A 
ATOM     14  C   UNL     1      -0.197  -9.618   8.144  0.00  0.00    +0.069 A 
ATOM     15  C   UNL     1       0.005 -10.542   9.170  0.00  0.00    +0.029 A 
ATOM     16  C   UNL     1       1.210 -10.516   9.846  0.00  0.00    +0.022 A 
ATOM     17  C   UNL     1       2.177  -9.584   9.492  0.00  0.00    +0.111 A 
ATOM     18  N   UNL     1       1.969  -8.722   8.522  0.00  0.00    -0.252 NA
ATOM     19  N   UNL     1      -1.379  -9.598   7.435  0.00  0.00    -0.320 N 
ATOM     20  C   UNL     1      -1.593  -8.711   6.448  0.00  0.00    +0.262 A 
ATOM     21  O   UNL     1      -2.656  -8.727   5.853  0.00  0.00    -0.267 OA
ATOM     22  H   UNL     1      -2.075 -10.236   7.657  0.00  0.00    +0.169 HD
BRANCH  12  23
ATOM     23  N   UNL     1       1.582  -6.820   6.424  0.00  0.00    -0.356 N 
ATOM     24  H   UNL     1       1.396  -6.133   5.765  0.00  0.00    +0.142 HD
ATOM     25  H   UNL     1       2.453  -6.862   6.848  0.00  0.00    +0.142 HD
ENDBRANCH  12  23
ENDBRANCH   8  11
BRANCH   1  30
ATOM     26  C   UNL     1       0.030   1.382  -0.118  0.00  0.00    -0.096 C 
ATOM     27  N   UNL     1       0.048  -0.087  -0.102  0.00  0.00    +0.380 N 
ATOM     28  C   UNL     1      -1.331  -0.592  -0.104  0.00  0.00    -0.060 C 
ATOM     29  C   UNL     1      -1.313  -2.121  -0.203  0.00  0.00    +0.086 C 
ATOM     30  N   UNL     1      -0.475  -2.649   0.884  0.00  0.00    -0.333 N 
ATOM     31  C   UNL     1       0.870  -2.079   1.062  0.00  0.00    +0.086 C 
ATOM     32  C   UNL     1       0.749  -0.552   1.101  0.00  0.00    -0.060 C 
ATOM     33  H   UNL     1       0.529  -0.425  -0.922  0.00  0.00    -0.082 HD
ENDBRANCH   1  30
TORSDOF 3
