REMARK  Name = CHEMBL205406
REMARK  2 active torsions:
REMARK  status: ('A' for Active; 'I' for Inactive)
REMARK    1  A    between atoms: C_9  and  C_11
REMARK    2  A    between atoms: C_12  and  N_21
REMARK                            x       y       z     vdW  Elec       q    Type
REMARK                         _______ _______ _______ _____ _____    ______ ____
ROOT
ATOM      1  C   UNL     1       3.729  -3.314  -0.062  0.00  0.00    +0.103 A 
ATOM      2  C   UNL     1       5.119  -3.247  -0.164  0.00  0.00    +0.050 A 
ATOM      3  C   UNL     1       5.887  -4.455  -0.165  0.00  0.00    +0.027 A 
ATOM      4  C   UNL     1       7.332  -4.606  -0.261  0.00  0.00    +0.019 A 
ATOM      5  C   UNL     1       7.864  -5.836  -0.244  0.00  0.00    +0.048 A 
ATOM      6  S   UNL     1       6.439  -6.897  -0.097  0.00  0.00    -0.079 S 
ATOM      7  C   UNL     1       5.173  -5.652  -0.062  0.00  0.00    +0.089 A 
ATOM      8  N   UNL     1       3.817  -5.697   0.036  0.00  0.00    -0.316 N 
ATOM      9  C   UNL     1       3.084  -4.565   0.045  0.00  0.00    +0.262 A 
ATOM     10  O   UNL     1       1.869  -4.623   0.138  0.00  0.00    -0.267 OA
ATOM     11  H   UNL     1       3.371  -6.556   0.106  0.00  0.00    +0.169 HD
ENDROOT
BRANCH   1  20
ATOM     12  C   UNL     1      -0.021   1.373  -0.067  0.00  0.00    +0.002 A 
ATOM     13  C   UNL     1       1.165   2.092  -0.033  0.00  0.00    +0.002 A 
ATOM     14  C   UNL     1       2.377   1.442  -0.019  0.00  0.00    +0.030 A 
ATOM     15  C   UNL     1       2.416   0.044  -0.039  0.00  0.00    +0.089 A 
ATOM     16  C   UNL     1       1.212  -0.680  -0.073  0.00  0.00    +0.066 A 
ATOM     17  C   UNL     1      -0.001  -0.007  -0.087  0.00  0.00    +0.028 A 
ATOM     18  N   UNL     1       1.564  -2.018  -0.086  0.00  0.00    -0.338 N 
ATOM     19  H   UNL     1       0.957  -2.774  -0.109  0.00  0.00    +0.167 HD
ATOM     20  C   UNL     1       2.933  -2.076  -0.060  0.00  0.00    +0.146 A 
ATOM     21  N   UNL     1       3.428  -0.859  -0.032  0.00  0.00    -0.227 NA
ENDBRANCH   1  20
BRANCH   2  22
ATOM     22  N   UNL     1       5.747  -2.026  -0.262  0.00  0.00    -0.357 N 
ATOM     23  H   UNL     1       5.233  -1.208  -0.181  0.00  0.00    +0.142 HD
ATOM     24  H   UNL     1       6.705  -1.984  -0.413  0.00  0.00    +0.142 HD
ENDBRANCH   2  22
TORSDOF 2
