REMARK  Name = CHEMBL89363
REMARK  5 active torsions:
REMARK  status: ('A' for Active; 'I' for Inactive)
REMARK    1  A    between atoms: C_1  and  C_2
REMARK    2  A    between atoms: C_6  and  C_13
REMARK    3  A    between atoms: C_7  and  C_8
REMARK    4  A    between atoms: C_8  and  C_9
REMARK    5  A    between atoms: C_9  and  C_10
REMARK                            x       y       z     vdW  Elec       q    Type
REMARK                         _______ _______ _______ _____ _____    ______ ____
ROOT
ATOM      1  C   UNL     1       0.086   1.473  -0.087  0.00  0.00    +0.045 C 
ATOM      2  C   UNL     1      -0.003  -0.032  -0.058  0.00  0.00    -0.029 A 
ATOM      3  C   UNL     1      -0.234  -0.838  -1.124  0.00  0.00    +0.086 A 
ATOM      4  N   UNL     1      -0.243  -2.129  -0.707  0.00  0.00    -0.361 N 
ATOM      5  H   UNL     1      -0.386  -2.905  -1.271  0.00  0.00    +0.165 HD
ATOM      6  C   UNL     1      -0.013  -2.153   0.652  0.00  0.00    +0.043 A 
ATOM      7  C   UNL     1       0.145  -0.841   1.070  0.00  0.00    -0.019 A 
ENDROOT
BRANCH   6   8
ATOM      8  C   UNL     1       0.055  -3.303   1.466  0.00  0.00    +0.039 C 
ATOM      9  C   UNL     1       0.575  -4.479   0.960  0.00  0.00    +0.048 C 
ATOM     10  C   UNL     1       0.581  -5.811   1.604  0.00  0.00    +0.008 A 
ATOM     11  C   UNL     1       0.108  -6.283   2.824  0.00  0.00    +0.010 A 
ATOM     12  C   UNL     1       0.266  -7.614   3.150  0.00  0.00    +0.001 A 
ATOM     13  C   UNL     1       0.893  -8.477   2.266  0.00  0.00    +0.002 A 
ATOM     14  C   UNL     1       1.365  -8.019   1.053  0.00  0.00    +0.024 A 
ATOM     15  C   UNL     1       1.216  -6.680   0.706  0.00  0.00    +0.042 A 
ATOM     16  N   UNL     1       1.591  -5.971  -0.428  0.00  0.00    -0.281 N 
ATOM     17  C   UNL     1       1.236  -4.678  -0.336  0.00  0.00    +0.249 C 
ATOM     18  O   UNL     1       1.431  -3.820  -1.180  0.00  0.00    -0.270 OA
ATOM     19  H   UNL     1       2.049  -6.359  -1.190  0.00  0.00    +0.155 HD
ENDBRANCH   6   8
BRANCH   7  20
ATOM     20  C   UNL     1       0.420  -0.376   2.476  0.00  0.00    +0.049 C 
BRANCH  20  21
ATOM     21  C   UNL     1      -0.905  -0.131   3.201  0.00  0.00    +0.130 C 
BRANCH  21  22
ATOM     22  C   UNL     1      -0.629   0.334   4.608  0.00  0.00    +0.356 C 
ATOM     23  O   UNL     1       0.520   0.459   4.995  0.00  0.00    -0.246 OA
ATOM     24  O   UNL     1      -1.556   0.587   5.359  0.00  0.00    -0.246 OA
ENDBRANCH  21  22
ENDBRANCH  20  21
ENDBRANCH   7  20
TORSDOF 4
