REMARK  Name = CHEMBL495727
REMARK  5 active torsions:
REMARK  status: ('A' for Active; 'I' for Inactive)
REMARK    1  A    between atoms: C_6  and  C_7
REMARK    2  A    between atoms: C_7  and  N_8
REMARK    3  A    between atoms: C_15  and  C_18
REMARK    4  A    between atoms: C_19  and  N_24
REMARK    5  A    between atoms: N_27  and  C_28
REMARK                            x       y       z     vdW  Elec       q    Type
REMARK                         _______ _______ _______ _____ _____    ______ ____
ROOT
ATOM      1  C   UNL     1      -0.017   1.383   0.010  0.00  0.00    +0.007 A 
ATOM      2  C   UNL     1       1.162   2.099   0.002  0.00  0.00    +0.028 A 
ATOM      3  C   UNL     1       2.377   1.428  -0.013  0.00  0.00    +0.067 A 
ATOM      4  C   UNL     1       2.402   0.022  -0.021  0.00  0.00    +0.090 A 
ATOM      5  C   UNL     1       1.197  -0.687  -0.013  0.00  0.00    +0.034 A 
ATOM      6  C   UNL     1       0.002  -0.004   0.002  0.00  0.00    -0.031 A 
ATOM      7  N   UNL     1       3.704  -0.355  -0.036  0.00  0.00    -0.226 NA
ATOM      8  C   UNL     1       4.471   0.708  -0.038  0.00  0.00    +0.161 A 
ATOM      9  N   UNL     1       3.697   1.837  -0.024  0.00  0.00    -0.337 N 
ATOM     10  H   UNL     1       4.016   2.754  -0.023  0.00  0.00    +0.167 HD
ENDROOT
BRANCH   8  11
ATOM     11  C   UNL     1       5.948   0.691  -0.053  0.00  0.00    +0.149 A 
ATOM     12  C   UNL     1       6.766  -0.463  -0.073  0.00  0.00    +0.083 A 
ATOM     13  C   UNL     1       8.057  -0.054  -0.082  0.00  0.00    +0.129 A 
ATOM     14  N   UNL     1       8.065   1.305  -0.068  0.00  0.00    -0.282 N 
ATOM     15  H   UNL     1       8.853   1.870  -0.070  0.00  0.00    +0.188 HD
ATOM     16  N   UNL     1       6.736   1.748  -0.055  0.00  0.00    -0.169 NA
BRANCH  12  17
ATOM     17  N   UNL     1       6.318  -1.795  -0.083  0.00  0.00    -0.266 N 
ATOM     18  C   UNL     1       7.210  -2.806  -0.102  0.00  0.00    +0.304 C 
ATOM     19  O   UNL     1       8.402  -2.564  -0.112  0.00  0.00    -0.252 OA
ATOM     20  N   UNL     1       6.781  -4.083  -0.111  0.00  0.00    -0.296 N 
ATOM     21  H   UNL     1       5.367  -1.988  -0.074  0.00  0.00    +0.156 HD
ATOM     22  H   UNL     1       5.830  -4.276  -0.103  0.00  0.00    +0.151 HD
BRANCH  20  23
ATOM     23  C   UNL     1       7.750  -5.181  -0.133  0.00  0.00    +0.075 C 
ATOM     24  C   UNL     1       7.471  -6.351  -1.078  0.00  0.00    +0.024 C 
ATOM     25  C   UNL     1       7.301  -6.531   0.432  0.00  0.00    +0.024 C 
ENDBRANCH  20  23
ENDBRANCH  12  17
ENDBRANCH   8  11
BRANCH   6  26
ATOM     26  C   UNL     1      -1.296  -0.769   0.011  0.00  0.00    +0.119 C 
BRANCH  26  27
ATOM     27  N   UNL     1      -1.732  -1.010  -1.371  0.00  0.00    -0.294 NA
ATOM     28  C   UNL     1      -2.081   0.251  -2.041  0.00  0.00    +0.113 C 
ATOM     29  C   UNL     1      -2.471  -0.040  -3.493  0.00  0.00    +0.175 C 
ATOM     30  O   UNL     1      -3.548  -0.980  -3.513  0.00  0.00    -0.377 OA
ATOM     31  C   UNL     1      -3.242  -2.220  -2.869  0.00  0.00    +0.175 C 
ATOM     32  C   UNL     1      -2.860  -1.952  -1.411  0.00  0.00    +0.113 C 
ENDBRANCH  26  27
ENDBRANCH   6  26
TORSDOF 5
