REMARK  Name = CHEMBL495735
REMARK  7 active torsions:
REMARK  status: ('A' for Active; 'I' for Inactive)
REMARK    1  A    between atoms: C_1  and  N_2
REMARK    2  A    between atoms: N_5  and  C_8
REMARK    3  A    between atoms: C_15  and  C_17
REMARK    4  A    between atoms: C_18  and  N_37
REMARK    5  A    between atoms: C_21  and  N_29
REMARK    6  A    between atoms: N_29  and  C_30
REMARK    7  A    between atoms: C_30  and  C_31
REMARK                            x       y       z     vdW  Elec       q    Type
REMARK                         _______ _______ _______ _____ _____    ______ ____
ROOT
ATOM      1  C   UNL     1      -0.781  -7.799   6.077  0.00  0.00    +0.103 A 
ATOM      2  C   UNL     1      -1.788  -8.719   6.372  0.00  0.00    +0.050 A 
ATOM      3  C   UNL     1      -1.544  -9.695   7.443  0.00  0.00    +0.022 A 
ATOM      4  C   UNL     1      -2.513 -10.643   7.786  0.00  0.00    +0.034 A 
ATOM      5  C   UNL     1      -2.253 -11.549   8.797  0.00  0.00    +0.028 A 
ATOM      6  C   UNL     1      -1.033 -11.517   9.471  0.00  0.00    +0.025 A 
ATOM      7  C   UNL     1      -0.073 -10.586   9.140  0.00  0.00    +0.028 A 
ATOM      8  C   UNL     1      -0.315  -9.667   8.125  0.00  0.00    +0.051 A 
ATOM      9  N   UNL     1       0.642  -8.729   7.783  0.00  0.00    -0.321 N 
ATOM     10  H   UNL     1       1.486  -8.719   8.261  0.00  0.00    +0.169 HD
ATOM     11  C   UNL     1       0.433  -7.835   6.803  0.00  0.00    +0.262 A 
ATOM     12  O   UNL     1       1.309  -7.030   6.536  0.00  0.00    -0.267 OA
ENDROOT
BRANCH   1  20
ATOM     13  C   UNL     1      -0.999  -3.567   1.823  0.00  0.00    +0.032 A 
ATOM     14  C   UNL     1      -2.314  -4.015   1.708  0.00  0.00    +0.025 A 
ATOM     15  C   UNL     1      -2.777  -5.023   2.505  0.00  0.00    +0.032 A 
ATOM     16  C   UNL     1      -1.928  -5.616   3.446  0.00  0.00    +0.090 A 
ATOM     17  C   UNL     1      -0.601  -5.167   3.563  0.00  0.00    +0.068 A 
ATOM     18  C   UNL     1      -0.142  -4.145   2.745  0.00  0.00    +0.051 A 
ATOM     19  N   UNL     1      -0.020  -5.930   4.559  0.00  0.00    -0.338 N 
ATOM     20  C   UNL     1      -0.978  -6.801   5.013  0.00  0.00    +0.146 A 
ATOM     21  N   UNL     1      -2.097  -6.611   4.353  0.00  0.00    -0.227 NA
ATOM     22  H   UNL     1       0.893  -5.863   4.878  0.00  0.00    +0.167 HD
BRANCH  13  27
ATOM     23  C   UNL     1      -0.069   1.519   0.071  0.00  0.00    -0.096 C 
ATOM     24  N   UNL     1      -0.041   0.050   0.059  0.00  0.00    +0.380 N 
ATOM     25  C   UNL     1      -1.416  -0.464   0.053  0.00  0.00    -0.060 C 
ATOM     26  C   UNL     1      -1.388  -1.991  -0.075  0.00  0.00    +0.086 C 
ATOM     27  N   UNL     1      -0.542  -2.534   0.999  0.00  0.00    -0.333 N 
ATOM     28  C   UNL     1       0.800  -1.958   1.182  0.00  0.00    +0.086 C 
ATOM     29  C   UNL     1       0.669  -0.433   1.250  0.00  0.00    -0.060 C 
ATOM     30  H   UNL     1       0.439  -0.269  -0.769  0.00  0.00    -0.082 HD
ENDBRANCH  13  27
ENDBRANCH   1  20
BRANCH   2  31
ATOM     31  N   UNL     1      -2.976  -8.712   5.681  0.00  0.00    -0.357 N 
ATOM     32  H   UNL     1      -3.093  -8.117   4.924  0.00  0.00    +0.142 HD
ATOM     33  H   UNL     1      -3.698  -9.302   5.950  0.00  0.00    +0.142 HD
ENDBRANCH   2  31
BRANCH   5  34
ATOM     34  N   UNL     1      -3.218 -12.499   9.146  0.00  0.00    -0.340 N 
ATOM     35  H   UNL     1      -4.067 -12.523   8.679  0.00  0.00    +0.146 HD
BRANCH  34  36
ATOM     36  C   UNL     1      -2.945 -13.460  10.218  0.00  0.00    +0.136 C 
BRANCH  36  37
ATOM     37  C   UNL     1      -4.136 -14.367  10.395  0.00  0.00    -0.030 A 
ATOM     38  C   UNL     1      -5.146 -14.018  11.272  0.00  0.00    +0.005 A 
ATOM     39  C   UNL     1      -6.238 -14.850  11.434  0.00  0.00    +0.000 A 
ATOM     40  C   UNL     1      -6.321 -16.030  10.719  0.00  0.00    +0.000 A 
ATOM     41  C   UNL     1      -5.311 -16.378   9.841  0.00  0.00    +0.000 A 
ATOM     42  C   UNL     1      -4.221 -15.544   9.675  0.00  0.00    +0.005 A 
ENDBRANCH  36  37
ENDBRANCH  34  36
ENDBRANCH   5  34
TORSDOF 6
