REMARK  Name = CHEMBL212429
REMARK  5 active torsions:
REMARK  status: ('A' for Active; 'I' for Inactive)
REMARK    1  A    between atoms: C_1  and  N_2
REMARK    2  A    between atoms: C_5  and  N_8
REMARK    3  A    between atoms: N_8  and  C_9
REMARK    4  A    between atoms: N_8  and  C_10
REMARK    5  A    between atoms: C_17  and  C_20
REMARK                            x       y       z     vdW  Elec       q    Type
REMARK                         _______ _______ _______ _____ _____    ______ ____
ROOT
ATOM      1  C   UNL     1      -0.988  -4.880   2.035  0.00  0.00    +0.032 A 
ATOM      2  C   UNL     1      -1.629  -4.307   3.132  0.00  0.00    +0.025 A 
ATOM      3  C   UNL     1      -2.092  -5.098   4.161  0.00  0.00    +0.029 A 
ATOM      4  C   UNL     1      -1.921  -6.474   4.108  0.00  0.00    +0.067 A 
ATOM      5  C   UNL     1      -1.276  -7.061   3.006  0.00  0.00    +0.091 A 
ATOM      6  C   UNL     1      -0.814  -6.250   1.965  0.00  0.00    +0.053 A 
ATOM      7  N   UNL     1      -1.251  -8.399   3.222  0.00  0.00    -0.226 NA
ATOM      8  C   UNL     1      -1.829  -8.672   4.367  0.00  0.00    +0.160 A 
ATOM      9  N   UNL     1      -2.262  -7.514   4.955  0.00  0.00    -0.337 N 
ATOM     10  H   UNL     1      -2.721  -7.437   5.806  0.00  0.00    +0.167 HD
ENDROOT
BRANCH   8  11
ATOM     11  C   UNL     1      -1.990 -10.025   4.936  0.00  0.00    +0.135 A 
ATOM     12  C   UNL     1      -1.536 -11.282   4.329  0.00  0.00    +0.030 A 
ATOM     13  C   UNL     1      -0.873 -11.599   3.142  0.00  0.00    +0.012 A 
ATOM     14  C   UNL     1      -0.584 -12.902   2.853  0.00  0.00    +0.001 A 
ATOM     15  C   UNL     1      -0.944 -13.917   3.729  0.00  0.00    +0.002 A 
ATOM     16  C   UNL     1      -1.598 -13.629   4.905  0.00  0.00    +0.028 A 
ATOM     17  C   UNL     1      -1.903 -12.306   5.220  0.00  0.00    +0.066 A 
ATOM     18  N   UNL     1      -2.530 -11.707   6.283  0.00  0.00    -0.276 N 
ATOM     19  N   UNL     1      -2.560 -10.323   6.081  0.00  0.00    -0.170 NA
ATOM     20  H   UNL     1      -2.891 -12.169   7.055  0.00  0.00    +0.189 HD
ENDBRANCH   8  11
BRANCH   1  21
ATOM     21  N   UNL     1      -0.522  -4.066   0.997  0.00  0.00    -0.330 N 
ATOM     22  C   UNL     1       0.031  -4.671  -0.217  0.00  0.00    +0.129 C 
BRANCH  21  27
ATOM     23  C   UNL     1       0.025   1.464   0.028  0.00  0.00    -0.096 C 
ATOM     24  N   UNL     1       0.029  -0.005   0.012  0.00  0.00    +0.378 N 
ATOM     25  C   UNL     1      -1.353  -0.497   0.034  0.00  0.00    -0.077 C 
ATOM     26  C   UNL     1      -1.357  -2.024  -0.064  0.00  0.00    +0.004 C 
ATOM     27  C   UNL     1      -0.588  -2.608   1.125  0.00  0.00    +0.070 C 
ATOM     28  C   UNL     1       0.831  -2.030   1.135  0.00  0.00    +0.004 C 
ATOM     29  C   UNL     1       0.753  -0.503   1.188  0.00  0.00    -0.077 C 
ATOM     30  H   UNL     1       0.487  -0.331  -0.826  0.00  0.00    -0.082 HD
ENDBRANCH  21  27
ENDBRANCH   1  21
TORSDOF 3
