REMARK  Name = CHEMBL313821
REMARK  7 active torsions:
REMARK  status: ('A' for Active; 'I' for Inactive)
REMARK    1  A    between atoms: C_1  and  O_2
REMARK    2  A    between atoms: O_2  and  C_3
REMARK    3  A    between atoms: C_8  and  C_9
REMARK    4  A    between atoms: C_19  and  C_20
REMARK    5  A    between atoms: C_21  and  C_30
REMARK    6  A    between atoms: C_30  and  C_31
REMARK    7  A    between atoms: C_31  and  C_32
REMARK                            x       y       z     vdW  Elec       q    Type
REMARK                         _______ _______ _______ _____ _____    ______ ____
ROOT
ATOM      1  C   UNL     1      -0.118  -3.025  -0.130  0.00  0.00    -0.013 A 
ATOM      2  C   UNL     1       0.956  -2.578  -0.902  0.00  0.00    +0.009 A 
ATOM      3  C   UNL     1       2.140  -3.281  -0.908  0.00  0.00    +0.011 A 
ATOM      4  C   UNL     1       2.264  -4.437  -0.142  0.00  0.00    +0.008 A 
ATOM      5  C   UNL     1       1.191  -4.895   0.637  0.00  0.00    +0.042 A 
ATOM      6  C   UNL     1       0.003  -4.177   0.642  0.00  0.00    +0.032 A 
ATOM      7  N   UNL     1       1.571  -6.057   1.299  0.00  0.00    -0.281 N 
ATOM      8  C   UNL     1       2.836  -6.397   1.003  0.00  0.00    +0.249 C 
ATOM      9  O   UNL     1       3.437  -7.365   1.434  0.00  0.00    -0.270 OA
ATOM     10  C   UNL     1       3.370  -5.397   0.068  0.00  0.00    +0.048 C 
ATOM     11  C   UNL     1       4.632  -5.361  -0.494  0.00  0.00    +0.039 C 
ATOM     12  H   UNL     1       0.996  -6.558   1.898  0.00  0.00    +0.155 HD
ENDROOT
BRANCH  11  13
ATOM     13  C   UNL     1       5.621  -6.270  -0.065  0.00  0.00    +0.044 A 
ATOM     14  C   UNL     1       6.621  -6.827  -0.850  0.00  0.00    -0.019 A 
ATOM     15  C   UNL     1       7.367  -7.661  -0.026  0.00  0.00    -0.023 A 
ATOM     16  C   UNL     1       6.831  -7.610   1.225  0.00  0.00    +0.020 A 
ATOM     17  N   UNL     1       5.776  -6.763   1.215  0.00  0.00    -0.358 N 
ATOM     18  H   UNL     1       5.220  -6.543   1.978  0.00  0.00    +0.166 HD
ATOM     19  C   UNL     1       7.369  -8.389   2.402  0.00  0.00    +0.053 C 
ATOM     20  C   UNL     1       8.281  -9.501   1.871  0.00  0.00    +0.006 C 
ATOM     21  C   UNL     1       9.291  -8.908   0.885  0.00  0.00    +0.005 C 
ATOM     22  C   UNL     1       8.566  -8.495  -0.402  0.00  0.00    +0.037 C 
BRANCH  14  23
ATOM     23  C   UNL     1       6.853  -6.575  -2.318  0.00  0.00    +0.049 C 
BRANCH  23  24
ATOM     24  C   UNL     1       7.803  -5.388  -2.488  0.00  0.00    +0.130 C 
BRANCH  24  25
ATOM     25  C   UNL     1       8.035  -5.137  -3.956  0.00  0.00    +0.356 C 
ATOM     26  O   UNL     1       7.491  -5.842  -4.788  0.00  0.00    -0.246 OA
ATOM     27  O   UNL     1       8.767  -4.228  -4.310  0.00  0.00    -0.246 OA
ENDBRANCH  24  25
ENDBRANCH  23  24
ENDBRANCH  14  23
ENDBRANCH  11  13
BRANCH   1  33
ATOM     28  C   UNL     1      -1.384  -0.884   0.089  0.00  0.00    +0.128 A 
ATOM     29  C   UNL     1      -2.578  -0.181   0.085  0.00  0.00    +0.046 A 
ATOM     30  C   UNL     1      -3.772  -0.845  -0.127  0.00  0.00    +0.004 A 
ATOM     31  C   UNL     1      -3.782  -2.214  -0.335  0.00  0.00    +0.001 A 
ATOM     32  C   UNL     1      -2.601  -2.926  -0.334  0.00  0.00    +0.012 A 
ATOM     33  C   UNL     1      -1.391  -2.266  -0.127  0.00  0.00    +0.024 A 
BRANCH  28  35
ATOM     34  C   UNL     1      -0.281   1.179   0.510  0.00  0.00    +0.277 C 
ATOM     35  O   UNL     1      -0.210  -0.232   0.296  0.00  0.00    -0.495 OA
ENDBRANCH  28  35
ENDBRANCH   1  33
TORSDOF 6
