REMARK  Name = CHEMBL377346
REMARK  6 active torsions:
REMARK  status: ('A' for Active; 'I' for Inactive)
REMARK    1  A    between atoms: C_4  and  C_7
REMARK    2  A    between atoms: C_7  and  O_8
REMARK    3  A    between atoms: O_8  and  C_9
REMARK    4  A    between atoms: C_15  and  C_19
REMARK    5  A    between atoms: C_24  and  N_28
REMARK    6  A    between atoms: C_31  and  N_34
REMARK                            x       y       z     vdW  Elec       q    Type
REMARK                         _______ _______ _______ _____ _____    ______ ____
ROOT
ATOM      1  C   UNL     1       7.416  -2.770   5.479  0.00  0.00    +0.160 A 
ATOM      2  N   UNL     1       6.320  -2.186   5.899  0.00  0.00    -0.226 NA
ATOM      3  C   UNL     1       6.297  -2.182   7.255  0.00  0.00    +0.090 A 
ATOM      4  C   UNL     1       5.382  -1.699   8.197  0.00  0.00    +0.032 A 
ATOM      5  C   UNL     1       5.635  -1.842   9.531  0.00  0.00    +0.025 A 
ATOM      6  C   UNL     1       6.801  -2.469   9.968  0.00  0.00    +0.032 A 
ATOM      7  C   UNL     1       7.720  -2.954   9.052  0.00  0.00    +0.051 A 
ATOM      8  C   UNL     1       7.474  -2.815   7.693  0.00  0.00    +0.068 A 
ATOM      9  N   UNL     1       8.162  -3.183   6.553  0.00  0.00    -0.337 N 
ATOM     10  H   UNL     1       9.015  -3.644   6.519  0.00  0.00    +0.167 HD
ENDROOT
BRANCH   1  17
ATOM     11  C   UNL     1       5.319  -1.605   1.467  0.00  0.00    +0.122 A 
ATOM     12  C   UNL     1       6.056  -1.994   0.349  0.00  0.00    +0.048 A 
ATOM     13  C   UNL     1       7.250  -2.641   0.492  0.00  0.00    +0.031 A 
ATOM     14  C   UNL     1       7.746  -2.919   1.764  0.00  0.00    +0.067 A 
ATOM     15  C   UNL     1       7.009  -2.529   2.896  0.00  0.00    +0.034 A 
ATOM     16  C   UNL     1       5.792  -1.863   2.737  0.00  0.00    +0.058 A 
ATOM     17  C   UNL     1       7.788  -2.960   4.063  0.00  0.00    +0.135 A 
ATOM     18  N   UNL     1       8.876  -3.546   3.618  0.00  0.00    -0.170 NA
ATOM     19  N   UNL     1       8.883  -3.538   2.220  0.00  0.00    -0.276 N 
ATOM     20  H   UNL     1       9.582  -3.912   1.660  0.00  0.00    +0.189 HD
BRANCH  11  21
ATOM     21  O   UNL     1       4.132  -0.962   1.304  0.00  0.00    -0.487 OA
BRANCH  21  22
ATOM     22  C   UNL     1       3.701  -0.725  -0.038  0.00  0.00    +0.264 C 
BRANCH  22  26
ATOM     23  C   UNL     1      -0.056   1.308   0.009  0.00  0.00    +0.000 A 
ATOM     24  C   UNL     1       1.122   2.032   0.005  0.00  0.00    +0.000 A 
ATOM     25  C   UNL     1       2.338   1.374  -0.010  0.00  0.00    +0.007 A 
ATOM     26  C   UNL     1       2.376  -0.008  -0.020  0.00  0.00    -0.010 A 
ATOM     27  C   UNL     1       1.198  -0.732  -0.015  0.00  0.00    +0.007 A 
ATOM     28  C   UNL     1      -0.018  -0.074  -0.002  0.00  0.00    +0.000 A 
ENDBRANCH  22  26
ENDBRANCH  21  22
ENDBRANCH  11  21
ENDBRANCH   1  17
BRANCH   6  29
ATOM     29  N   UNL     1       7.045  -2.607  11.338  0.00  0.00    -0.330 N 
ATOM     30  C   UNL     1       8.206  -3.370  11.818  0.00  0.00    +0.103 C 
ATOM     31  C   UNL     1       9.013  -2.488  12.776  0.00  0.00    +0.004 C 
ATOM     32  C   UNL     1       8.094  -1.975  13.887  0.00  0.00    -0.066 C 
ATOM     33  C   UNL     1       6.975  -1.127  13.276  0.00  0.00    +0.004 C 
ATOM     34  C   UNL     1       6.149  -1.989  12.324  0.00  0.00    +0.103 C 
BRANCH  32  35
ATOM     35  N   UNL     1       8.871  -1.156  14.826  0.00  0.00    +0.382 N 
ATOM     36  C   UNL     1       9.948  -1.968  15.406  0.00  0.00    -0.078 C 
ATOM     37  C   UNL     1      10.810  -1.098  16.323  0.00  0.00    -0.019 C 
ATOM     38  C   UNL     1       9.938  -0.528  17.445  0.00  0.00    -0.004 C 
ATOM     39  C   UNL     1       8.776   0.255  16.828  0.00  0.00    -0.019 C 
ATOM     40  C   UNL     1       7.989  -0.665  15.892  0.00  0.00    -0.078 C 
ATOM     41  H   UNL     1       9.272  -0.371  14.335  0.00  0.00    -0.081 HD
ENDBRANCH  32  35
ENDBRANCH   6  29
TORSDOF 6
