REMARK  Name = CHEMBL495962
REMARK  8 active torsions:
REMARK  status: ('A' for Active; 'I' for Inactive)
REMARK    1  A    between atoms: C_1  and  N_2
REMARK    2  A    between atoms: N_2  and  C_3
REMARK    3  A    between atoms: N_2  and  C_4
REMARK    4  A    between atoms: C_4  and  C_5
REMARK    5  A    between atoms: N_7  and  C_8
REMARK    6  A    between atoms: N_7  and  C_9
REMARK    7  A    between atoms: C_16  and  C_19
REMARK    8  A    between atoms: C_20  and  N_31
REMARK                            x       y       z     vdW  Elec       q    Type
REMARK                         _______ _______ _______ _____ _____    ______ ____
ROOT
ATOM      1  C   UNL     1      -2.590  -4.088  -0.347  0.00  0.00    +0.038 A 
ATOM      2  C   UNL     1      -1.423  -4.840  -0.465  0.00  0.00    +0.025 A 
ATOM      3  C   UNL     1      -1.488  -6.206  -0.641  0.00  0.00    +0.029 A 
ATOM      4  C   UNL     1      -2.721  -6.839  -0.701  0.00  0.00    +0.067 A 
ATOM      5  C   UNL     1      -3.904  -6.089  -0.583  0.00  0.00    +0.091 A 
ATOM      6  C   UNL     1      -3.826  -4.705  -0.399  0.00  0.00    +0.053 A 
ATOM      7  N   UNL     1      -4.941  -6.957  -0.677  0.00  0.00    -0.227 NA
ATOM      8  C   UNL     1      -4.483  -8.176  -0.843  0.00  0.00    +0.146 A 
ATOM      9  N   UNL     1      -3.114  -8.157  -0.865  0.00  0.00    -0.338 N 
ATOM     10  H   UNL     1      -2.528  -8.922  -0.976  0.00  0.00    +0.167 HD
ENDROOT
BRANCH   8  11
ATOM     11  C   UNL     1      -5.316  -9.382  -0.985  0.00  0.00    +0.103 A 
ATOM     12  C   UNL     1      -6.705  -9.270  -1.078  0.00  0.00    +0.050 A 
ATOM     13  C   UNL     1      -7.491 -10.502  -1.218  0.00  0.00    +0.020 A 
ATOM     14  C   UNL     1      -8.884 -10.460  -1.317  0.00  0.00    +0.012 A 
ATOM     15  C   UNL     1      -9.590 -11.623  -1.447  0.00  0.00    +0.001 A 
ATOM     16  C   UNL     1      -8.934 -12.846  -1.482  0.00  0.00    +0.002 A 
ATOM     17  C   UNL     1      -7.561 -12.910  -1.386  0.00  0.00    +0.026 A 
ATOM     18  C   UNL     1      -6.822 -11.739  -1.253  0.00  0.00    +0.051 A 
ATOM     19  N   UNL     1      -5.445 -11.781  -1.157  0.00  0.00    -0.321 N 
ATOM     20  H   UNL     1      -4.995 -12.640  -1.182  0.00  0.00    +0.169 HD
ATOM     21  C   UNL     1      -4.713 -10.662  -1.034  0.00  0.00    +0.262 A 
ATOM     22  O   UNL     1      -3.500 -10.750  -0.957  0.00  0.00    -0.267 OA
BRANCH  12  23
ATOM     23  N   UNL     1      -7.318  -8.041  -1.039  0.00  0.00    -0.357 N 
ATOM     24  H   UNL     1      -6.795  -7.243  -0.865  0.00  0.00    +0.142 HD
ATOM     25  H   UNL     1      -8.274  -7.972  -1.186  0.00  0.00    +0.142 HD
ENDBRANCH  12  23
ENDBRANCH   8  11
BRANCH   1  28
ATOM     26  C   UNL     1      -2.023  -1.922  -1.155  0.00  0.00    +0.203 C 
ATOM     27  O   UNL     1      -1.568  -2.428  -2.159  0.00  0.00    -0.277 OA
ATOM     28  N   UNL     1      -2.510  -2.701  -0.169  0.00  0.00    -0.276 N 
ATOM     29  C   UNL     1      -2.957  -2.097   1.089  0.00  0.00    +0.138 C 
BRANCH  26  30
ATOM     30  C   UNL     1      -2.044  -0.422  -1.010  0.00  0.00    +0.018 C 
BRANCH  30  32
ATOM     31  C   UNL     1      -1.591   1.655  -2.122  0.00  0.00    -0.096 C 
ATOM     32  N   UNL     1      -1.462   0.194  -2.209  0.00  0.00    +0.382 N 
ATOM     33  C   UNL     1      -0.041  -0.167  -2.305  0.00  0.00    -0.096 C 
ATOM     34  H   UNL     1      -1.949  -0.138  -3.028  0.00  0.00    -0.082 HD
ENDBRANCH  30  32
ENDBRANCH  26  30
ENDBRANCH   1  28
TORSDOF 5
