REMARK  Name = CHEMBL209265
REMARK  4 active torsions:
REMARK  status: ('A' for Active; 'I' for Inactive)
REMARK    1  A    between atoms: C_1  and  N_2
REMARK    2  A    between atoms: N_5  and  C_8
REMARK    3  A    between atoms: C_8  and  C_9
REMARK    4  A    between atoms: C_16  and  C_19
REMARK                            x       y       z     vdW  Elec       q    Type
REMARK                         _______ _______ _______ _____ _____    ______ ____
ROOT
ATOM      1  C   UNL     1       0.027  -4.587   2.279  0.00  0.00    -0.062 A 
ATOM      2  C   UNL     1       1.399  -4.769   2.380  0.00  0.00    +0.004 A 
ATOM      3  C   UNL     1       1.956  -5.255   3.545  0.00  0.00    +0.028 A 
ATOM      4  C   UNL     1       1.137  -5.563   4.622  0.00  0.00    +0.067 A 
ATOM      5  C   UNL     1      -0.253  -5.378   4.520  0.00  0.00    +0.090 A 
ATOM      6  C   UNL     1      -0.794  -4.880   3.330  0.00  0.00    +0.031 A 
ATOM      7  N   UNL     1      -0.795  -5.754   5.704  0.00  0.00    -0.226 NA
ATOM      8  C   UNL     1       0.154  -6.152   6.517  0.00  0.00    +0.160 A 
ATOM      9  N   UNL     1       1.369  -6.053   5.893  0.00  0.00    -0.337 N 
ATOM     10  H   UNL     1       2.231  -6.284   6.273  0.00  0.00    +0.167 HD
ENDROOT
BRANCH   8  11
ATOM     11  C   UNL     1      -0.057  -6.634   7.896  0.00  0.00    +0.135 A 
ATOM     12  C   UNL     1      -1.346  -6.751   8.588  0.00  0.00    +0.030 A 
ATOM     13  C   UNL     1      -2.667  -6.479   8.226  0.00  0.00    +0.012 A 
ATOM     14  C   UNL     1      -3.675  -6.699   9.120  0.00  0.00    +0.001 A 
ATOM     15  C   UNL     1      -3.400  -7.192  10.389  0.00  0.00    +0.002 A 
ATOM     16  C   UNL     1      -2.106  -7.468  10.768  0.00  0.00    +0.028 A 
ATOM     17  C   UNL     1      -1.062  -7.250   9.872  0.00  0.00    +0.066 A 
ATOM     18  N   UNL     1       0.298  -7.420   9.943  0.00  0.00    -0.276 N 
ATOM     19  N   UNL     1       0.875  -7.043   8.726  0.00  0.00    -0.170 NA
ATOM     20  H   UNL     1       0.782  -7.753  10.714  0.00  0.00    +0.189 HD
ENDBRANCH   8  11
BRANCH   1  21
ATOM     21  C   UNL     1      -0.562  -4.056   0.998  0.00  0.00    -0.043 C 
BRANCH  21  26
ATOM     22  C   UNL     1      -0.018   1.465   0.010  0.00  0.00    +0.104 C 
ATOM     23  N   UNL     1       0.002  -0.004   0.002  0.00  0.00    -0.309 NA
ATOM     24  C   UNL     1      -1.361  -0.549  -0.076  0.00  0.00    +0.065 C 
ATOM     25  C   UNL     1      -1.293  -2.076  -0.143  0.00  0.00    -0.063 C 
ATOM     26  N   UNL     1      -0.611  -2.589   1.053  0.00  0.00    +0.384 N 
ATOM     27  C   UNL     1       0.757  -2.055   1.104  0.00  0.00    -0.063 C 
ATOM     28  C   UNL     1       0.707  -0.528   1.181  0.00  0.00    +0.065 C 
ATOM     29  H   UNL     1      -1.115  -2.300   1.878  0.00  0.00    -0.081 HD
ENDBRANCH  21  26
ENDBRANCH   1  21
TORSDOF 3
