REMARK  Name = CHEMBL339856
REMARK  14 active torsions:
REMARK  status: ('A' for Active; 'I' for Inactive)
REMARK    1  A    between atoms: C_1  and  C_2
REMARK    2  A    between atoms: C_2  and  C_3
REMARK    3  A    between atoms: C_2  and  C_4
REMARK    4  A    between atoms: C_2  and  N_5
REMARK    5  A    between atoms: C_10  and  C_29
REMARK    6  A    between atoms: C_15  and  N_19
REMARK    7  A    between atoms: N_19  and  C_20
REMARK    8  A    between atoms: C_20  and  C_21
REMARK    9  A    between atoms: C_21  and  C_22
REMARK   10  A    between atoms: C_22  and  N_23
REMARK   11  A    between atoms: C_31  and  O_37
REMARK   12  A    between atoms: C_33  and  O_35
REMARK   13  A    between atoms: O_35  and  C_36
REMARK   14  A    between atoms: O_37  and  C_38
REMARK                            x       y       z     vdW  Elec       q    Type
REMARK                         _______ _______ _______ _____ _____    ______ ____
ROOT
ATOM      1  N   UNL     1       0.688  -0.476  -1.203  0.00  0.00    -0.294 N 
ATOM      2  C   UNL     1       1.972  -0.132  -1.427  0.00  0.00    +0.305 C 
ATOM      3  O   UNL     1       2.560   0.570  -0.629  0.00  0.00    -0.252 OA
ATOM      4  N   UNL     1       2.602  -0.567  -2.536  0.00  0.00    -0.254 N 
ATOM      5  C   UNL     1       3.925  -0.212  -2.766  0.00  0.00    +0.135 A 
ATOM      6  C   UNL     1       4.569  -0.671  -3.936  0.00  0.00    +0.023 A 
ATOM      7  C   UNL     1       5.888  -0.321  -4.172  0.00  0.00    +0.023 A 
ATOM      8  C   UNL     1       6.537   0.488  -3.222  0.00  0.00    +0.019 A 
ATOM      9  C   UNL     1       7.871   0.889  -3.382  0.00  0.00    +0.123 A 
ATOM     10  N   UNL     1       8.445   1.646  -2.476  0.00  0.00    -0.240 NA
ATOM     11  C   UNL     1       7.809   2.062  -1.383  0.00  0.00    +0.121 A 
ATOM     12  C   UNL     1       6.494   1.718  -1.137  0.00  0.00    +0.071 A 
ATOM     13  C   UNL     1       5.823   0.911  -2.069  0.00  0.00    +0.078 A 
ATOM     14  N   UNL     1       4.549   0.549  -1.893  0.00  0.00    -0.231 NA
ATOM     15  H   UNL     1       0.218  -1.037  -1.840  0.00  0.00    +0.151 HD
ATOM     16  H   UNL     1       2.132  -1.127  -3.173  0.00  0.00    +0.158 HD
ENDROOT
BRANCH   6  17
ATOM     17  C   UNL     1       3.839  -1.523  -4.905  0.00  0.00    -0.008 A 
ATOM     18  C   UNL     1       3.140  -2.644  -4.461  0.00  0.00    +0.054 A 
ATOM     19  C   UNL     1       2.458  -3.438  -5.369  0.00  0.00    +0.124 A 
ATOM     20  C   UNL     1       2.471  -3.118  -6.719  0.00  0.00    +0.091 A 
ATOM     21  C   UNL     1       3.166  -2.003  -7.164  0.00  0.00    +0.124 A 
ATOM     22  C   UNL     1       3.845  -1.202  -6.260  0.00  0.00    +0.054 A 
BRANCH  21  23
ATOM     23  O   UNL     1       3.177  -1.694  -8.487  0.00  0.00    -0.495 OA
ATOM     24  C   UNL     1       2.451  -2.560  -9.362  0.00  0.00    +0.277 C 
ENDBRANCH  21  23
BRANCH  19  25
ATOM     25  O   UNL     1       1.776  -4.531  -4.937  0.00  0.00    -0.495 OA
ATOM     26  C   UNL     1       1.096  -5.305  -5.927  0.00  0.00    +0.277 C 
ENDBRANCH  19  25
ENDBRANCH   6  17
BRANCH   1  28
ATOM     27  C   UNL     1      -0.019   1.526   0.010  0.00  0.00    +0.031 C 
ATOM     28  C   UNL     1       0.002  -0.004   0.002  0.00  0.00    +0.028 C 
ATOM     29  C   UNL     1       0.742  -0.511   1.242  0.00  0.00    +0.031 C 
ATOM     30  C   UNL     1      -1.433  -0.534   0.013  0.00  0.00    +0.031 C 
ENDBRANCH   1  28
BRANCH  11  31
ATOM     31  N   UNL     1       8.484   2.861  -0.468  0.00  0.00    -0.329 N 
ATOM     32  H   UNL     1       9.408   3.109  -0.629  0.00  0.00    +0.147 HD
BRANCH  31  33
ATOM     33  C   UNL     1       7.800   3.328   0.740  0.00  0.00    +0.104 C 
BRANCH  33  34
ATOM     34  C   UNL     1       8.759   4.183   1.571  0.00  0.00    +0.034 C 
BRANCH  34  35
ATOM     35  C   UNL     1       8.045   4.671   2.833  0.00  0.00    +0.086 C 
BRANCH  35  36
ATOM     36  N   UNL     1       8.966   5.492   3.631  0.00  0.00    -0.298 NA
ATOM     37  C   UNL     1      10.074   4.680   4.156  0.00  0.00    +0.112 C 
ATOM     38  C   UNL     1      11.039   5.583   4.928  0.00  0.00    +0.175 C 
ATOM     39  O   UNL     1      10.324   6.259   5.966  0.00  0.00    -0.377 OA
ATOM     40  C   UNL     1       9.238   7.059   5.490  0.00  0.00    +0.175 C 
ATOM     41  C   UNL     1       8.255   6.171   4.723  0.00  0.00    +0.112 C 
ENDBRANCH  35  36
ENDBRANCH  34  35
ENDBRANCH  33  34
ENDBRANCH  31  33
ENDBRANCH  11  31
TORSDOF 9
