REMARK  Name = CHEMBL323775
REMARK  7 active torsions:
REMARK  status: ('A' for Active; 'I' for Inactive)
REMARK    1  A    between atoms: C_1  and  N_2
REMARK    2  A    between atoms: C_6  and  C_9
REMARK    3  A    between atoms: N_21  and  C_22
REMARK    4  A    between atoms: C_25  and  O_28
REMARK    5  A    between atoms: O_28  and  C_29
REMARK    6  A    between atoms: C_29  and  C_30
REMARK    7  A    between atoms: C_30  and  N_31
REMARK                            x       y       z     vdW  Elec       q    Type
REMARK                         _______ _______ _______ _____ _____    ______ ____
ROOT
ATOM      1  C   UNL     1       0.355   0.117  -0.043  0.00  0.00    +0.154 C 
ATOM      2  N   UNL     1       0.127  -1.097  -0.832  0.00  0.00    -0.295 N 
ATOM      3  C   UNL     1      -1.151  -1.567  -1.000  0.00  0.00    +0.148 A 
ATOM      4  C   UNL     1      -1.388  -2.734  -1.757  0.00  0.00    +0.037 A 
ATOM      5  C   UNL     1      -0.309  -3.430  -2.349  0.00  0.00    +0.027 A 
ATOM      6  C   UNL     1       0.963  -2.953  -2.175  0.00  0.00    +0.050 A 
ATOM      7  C   UNL     1       1.173  -1.736  -1.388  0.00  0.00    +0.260 A 
ATOM      8  O   UNL     1       2.301  -1.302  -1.233  0.00  0.00    -0.267 OA
ATOM      9  C   UNL     1      -2.710  -3.181  -1.906  0.00  0.00    +0.126 A 
ATOM     10  N   UNL     1      -3.678  -2.491  -1.332  0.00  0.00    -0.222 NA
ATOM     11  C   UNL     1      -3.417  -1.396  -0.626  0.00  0.00    +0.221 A 
ATOM     12  N   UNL     1      -2.187  -0.936  -0.458  0.00  0.00    -0.196 NA
ATOM     13  N   UNL     1      -4.468  -0.712  -0.047  0.00  0.00    -0.284 N 
ATOM     14  H   UNL     1      -4.309   0.133   0.401  0.00  0.00    +0.155 HD
ENDROOT
BRANCH   6  15
ATOM     15  C   UNL     1       2.115  -3.660  -2.782  0.00  0.00    +0.024 A 
ATOM     16  C   UNL     1       2.771  -4.668  -2.074  0.00  0.00    +0.050 A 
ATOM     17  C   UNL     1       3.844  -5.322  -2.646  0.00  0.00    +0.021 A 
ATOM     18  C   UNL     1       4.269  -4.981  -3.917  0.00  0.00    +0.003 A 
ATOM     19  C   UNL     1       3.624  -3.983  -4.624  0.00  0.00    +0.021 A 
ATOM     20  C   UNL     1       2.546  -3.324  -4.066  0.00  0.00    +0.050 A 
ATOM     21 CL   UNL     1       1.732  -2.076  -4.958  0.00  0.00    -0.083 Cl
ATOM     22 CL   UNL     1       2.240  -5.097  -0.478  0.00  0.00    -0.083 Cl
ENDBRANCH   6  15
BRANCH  13  23
ATOM     23  C   UNL     1      -5.764  -1.239  -0.108  0.00  0.00    +0.034 A 
ATOM     24  C   UNL     1      -5.964  -2.608   0.007  0.00  0.00    +0.027 A 
ATOM     25  C   UNL     1      -7.243  -3.127  -0.052  0.00  0.00    +0.047 A 
ATOM     26  C   UNL     1      -8.327  -2.280  -0.227  0.00  0.00    +0.121 A 
ATOM     27  C   UNL     1      -8.129  -0.912  -0.342  0.00  0.00    +0.047 A 
ATOM     28  C   UNL     1      -6.851  -0.391  -0.277  0.00  0.00    +0.027 A 
BRANCH  26  29
ATOM     29  O   UNL     1      -9.586  -2.791  -0.286  0.00  0.00    -0.494 OA
BRANCH  29  30
ATOM     30  C   UNL     1     -10.656  -1.862  -0.467  0.00  0.00    +0.210 C 
BRANCH  30  31
ATOM     31  C   UNL     1     -11.986  -2.617  -0.508  0.00  0.00    -0.037 C 
BRANCH  31  32
ATOM     32  N   UNL     1     -12.215  -3.276   0.784  0.00  0.00    +0.382 N 
ATOM     33  C   UNL     1     -13.412  -4.121   0.695  0.00  0.00    -0.079 C 
ATOM     34  C   UNL     1     -13.610  -4.873   2.013  0.00  0.00    -0.019 C 
ATOM     35  C   UNL     1     -13.779  -3.862   3.151  0.00  0.00    -0.004 C 
ATOM     36  C   UNL     1     -12.558  -2.939   3.187  0.00  0.00    -0.019 C 
ATOM     37  C   UNL     1     -12.400  -2.259   1.825  0.00  0.00    -0.079 C 
ATOM     38  H   UNL     1     -11.418  -3.850   1.014  0.00  0.00    -0.082 HD
ENDBRANCH  31  32
ENDBRANCH  30  31
ENDBRANCH  29  30
ENDBRANCH  26  29
ENDBRANCH  13  23
TORSDOF 6
