REMARK  Name = CHEMBL526658
REMARK  6 active torsions:
REMARK  status: ('A' for Active; 'I' for Inactive)
REMARK    1  A    between atoms: C_7  and  N_32
REMARK    2  A    between atoms: C_8  and  C_13
REMARK    3  A    between atoms: C_19  and  O_23
REMARK    4  A    between atoms: O_23  and  C_24
REMARK    5  A    between atoms: C_24  and  C_25
REMARK    6  A    between atoms: C_25  and  N_26
REMARK                            x       y       z     vdW  Elec       q    Type
REMARK                         _______ _______ _______ _____ _____    ______ ____
ROOT
ATOM      1  C   UNL     1       1.292  -3.797  -0.358  0.00  0.00    +0.146 A 
ATOM      2  N   UNL     1       2.431  -4.536  -0.172  0.00  0.00    -0.338 N 
ATOM      3  H   UNL     1       3.330  -4.190  -0.064  0.00  0.00    +0.167 HD
ATOM      4  C   UNL     1       2.057  -5.870  -0.165  0.00  0.00    +0.067 A 
ATOM      5  C   UNL     1       2.753  -7.061  -0.020  0.00  0.00    +0.031 A 
ATOM      6  C   UNL     1       2.077  -8.262  -0.061  0.00  0.00    +0.048 A 
ATOM      7  C   UNL     1       0.698  -8.288  -0.247  0.00  0.00    +0.123 A 
ATOM      8  C   UNL     1      -0.010  -7.112  -0.393  0.00  0.00    +0.075 A 
ATOM      9  C   UNL     1       0.664  -5.887  -0.354  0.00  0.00    +0.093 A 
ATOM     10  N   UNL     1       0.256  -4.598  -0.459  0.00  0.00    -0.227 NA
ENDROOT
BRANCH   1  18
ATOM     11  C   UNL     1      -1.166   1.875  -0.682  0.00  0.00    +0.001 A 
ATOM     12  C   UNL     1       0.044   2.555  -0.686  0.00  0.00    +0.002 A 
ATOM     13  C   UNL     1       1.237   1.868  -0.626  0.00  0.00    +0.026 A 
ATOM     14  C   UNL     1       1.232   0.478  -0.561  0.00  0.00    +0.051 A 
ATOM     15  C   UNL     1       0.003  -0.206  -0.557  0.00  0.00    +0.020 A 
ATOM     16  C   UNL     1      -1.195   0.511  -0.618  0.00  0.00    +0.012 A 
ATOM     17  C   UNL     1       0.005  -1.673  -0.488  0.00  0.00    +0.050 A 
ATOM     18  C   UNL     1       1.237  -2.328  -0.429  0.00  0.00    +0.103 A 
ATOM     19  C   UNL     1       2.432  -1.571  -0.437  0.00  0.00    +0.262 A 
ATOM     20  O   UNL     1       3.503  -2.150  -0.386  0.00  0.00    -0.267 OA
ATOM     21  N   UNL     1       2.416  -0.229  -0.500  0.00  0.00    -0.321 N 
ATOM     22  H   UNL     1       3.256   0.255  -0.503  0.00  0.00    +0.169 HD
BRANCH  17  23
ATOM     23  N   UNL     1      -1.172  -2.381  -0.482  0.00  0.00    -0.357 N 
ATOM     24  H   UNL     1      -2.020  -1.912  -0.440  0.00  0.00    +0.142 HD
ATOM     25  H   UNL     1      -1.155  -3.350  -0.518  0.00  0.00    +0.142 HD
ENDBRANCH  17  23
ENDBRANCH   1  18
BRANCH   7  26
ATOM     26  O   UNL     1       0.044  -9.480  -0.284  0.00  0.00    -0.494 OA
BRANCH  26  27
ATOM     27  C   UNL     1       0.835 -10.660  -0.127  0.00  0.00    +0.210 C 
BRANCH  27  28
ATOM     28  C   UNL     1      -0.068 -11.893  -0.197  0.00  0.00    -0.037 C 
BRANCH  28  29
ATOM     29  N   UNL     1      -0.681 -11.976  -1.529  0.00  0.00    +0.385 N 
ATOM     30  C   UNL     1      -1.658 -13.073  -1.552  0.00  0.00    -0.050 C 
ATOM     31  C   UNL     1      -2.295 -13.158  -2.941  0.00  0.00    +0.141 C 
ATOM     32  O   UNL     1      -1.268 -13.348  -3.919  0.00  0.00    -0.383 OA
ATOM     33  C   UNL     1      -0.278 -12.317  -3.920  0.00  0.00    +0.141 C 
ATOM     34  C   UNL     1       0.362 -12.230  -2.533  0.00  0.00    -0.050 C 
ATOM     35  H   UNL     1      -1.146 -11.106  -1.741  0.00  0.00    -0.081 HD
ENDBRANCH  28  29
ENDBRANCH  27  28
ENDBRANCH  26  27
ENDBRANCH   7  26
TORSDOF 6
