REMARK  Name = CHEMBL291759
REMARK  13 active torsions:
REMARK  status: ('A' for Active; 'I' for Inactive)
REMARK    1  A    between atoms: C_1  and  C_2
REMARK    2  A    between atoms: C_2  and  O_3
REMARK    3  A    between atoms: O_3  and  C_4
REMARK    4  A    between atoms: C_4  and  C_6
REMARK    5  A    between atoms: C_6  and  N_7
REMARK    6  A    between atoms: N_10  and  C_13
REMARK    7  A    between atoms: C_13  and  C_14
REMARK    8  A    between atoms: C_14  and  C_15
REMARK    9  A    between atoms: C_15  and  C_16
REMARK   10  A    between atoms: C_21  and  C_22
REMARK   11  A    between atoms: C_26  and  S_33
REMARK   12  A    between atoms: S_33  and  N_36
REMARK   13  A    between atoms: N_36  and  C_37
REMARK                            x       y       z     vdW  Elec       q    Type
REMARK                         _______ _______ _______ _____ _____    ______ ____
ROOT
ATOM      1  C   UNL     1       2.791 -10.519   5.756  0.00  0.00    -0.019 A 
ATOM      2  C   UNL     1       4.160 -10.615   5.980  0.00  0.00    -0.023 A 
ATOM      3  C   UNL     1       4.351 -11.050   7.256  0.00  0.00    +0.020 A 
ATOM      4  N   UNL     1       3.145 -11.228   7.843  0.00  0.00    -0.358 N 
ATOM      5  H   UNL     1       2.997 -11.532   8.752  0.00  0.00    +0.166 HD
ATOM      6  C   UNL     1       2.160 -10.900   6.933  0.00  0.00    +0.044 A 
ATOM      7  C   UNL     1       5.711 -11.282   7.871  0.00  0.00    +0.053 C 
ATOM      8  C   UNL     1       6.745 -11.359   6.742  0.00  0.00    +0.006 C 
ATOM      9  C   UNL     1       6.578 -10.156   5.811  0.00  0.00    +0.005 C 
ATOM     10  C   UNL     1       5.276 -10.304   5.014  0.00  0.00    +0.037 C 
ENDROOT
BRANCH   6  11
ATOM     11  C   UNL     1       0.769 -10.946   7.156  0.00  0.00    +0.039 C 
ATOM     12  C   UNL     1       0.234 -11.913   7.986  0.00  0.00    +0.048 C 
ATOM     13  C   UNL     1      -1.167 -12.029   8.447  0.00  0.00    +0.010 A 
ATOM     14  C   UNL     1      -2.312 -11.271   8.221  0.00  0.00    +0.039 A 
ATOM     15  C   UNL     1      -3.505 -11.642   8.806  0.00  0.00    +0.106 A 
ATOM     16  C   UNL     1      -3.562 -12.764   9.616  0.00  0.00    +0.030 A 
ATOM     17  C   UNL     1      -2.433 -13.523   9.847  0.00  0.00    +0.026 A 
ATOM     18  C   UNL     1      -1.221 -13.165   9.265  0.00  0.00    +0.042 A 
ATOM     19  N   UNL     1       0.042 -13.741   9.330  0.00  0.00    -0.281 N 
ATOM     20  C   UNL     1       0.932 -13.053   8.595  0.00  0.00    +0.249 C 
ATOM     21  O   UNL     1       2.112 -13.325   8.460  0.00  0.00    -0.270 OA
ATOM     22  H   UNL     1       0.253 -14.540   9.838  0.00  0.00    +0.155 HD
BRANCH  15  23
ATOM     23  S   UNL     1      -4.958 -10.686   8.524  0.00  0.00    +0.058 S 
ATOM     24  O   UNL     1      -5.825 -10.930   9.623  0.00  0.00    -0.153 OA
ATOM     25  O   UNL     1      -4.523  -9.379   8.173  0.00  0.00    -0.153 OA
BRANCH  23  26
ATOM     26  N   UNL     1      -5.703 -11.312   7.184  0.00  0.00    -0.193 NA
ATOM     27  C   UNL     1      -6.246 -12.672   7.217  0.00  0.00    +0.127 C 
ATOM     28  H   UNL     1      -5.780 -10.778   6.378  0.00  0.00    +0.148 HD
ENDBRANCH  23  26
ENDBRANCH  15  23
ENDBRANCH   6  11
BRANCH   1  29
ATOM     29  C   UNL     1       2.120 -10.078   4.481  0.00  0.00    +0.036 C 
BRANCH  29  30
ATOM     30  C   UNL     1       1.920  -8.561   4.508  0.00  0.00    -0.014 C 
BRANCH  30  31
ATOM     31  C   UNL     1       1.238  -8.114   3.213  0.00  0.00    -0.078 C 
BRANCH  31  35
ATOM     32  N   UNL     1       1.373  -4.051   2.117  0.00  0.00    -0.296 NA
ATOM     33  C   UNL     1       0.069  -4.729   2.088  0.00  0.00    +0.066 C 
ATOM     34  C   UNL     1       0.286  -6.243   2.052  0.00  0.00    -0.063 C 
ATOM     35  N   UNL     1       1.046  -6.658   3.239  0.00  0.00    +0.381 N 
ATOM     36  C   UNL     1       2.355  -5.992   3.241  0.00  0.00    -0.063 C 
ATOM     37  C   UNL     1       2.156  -4.475   3.287  0.00  0.00    +0.066 C 
ATOM     38  H   UNL     1       0.537  -6.401   4.071  0.00  0.00    -0.082 HD
BRANCH  32  39
ATOM     39  C   UNL     1       1.208  -2.591   2.095  0.00  0.00    +0.205 C 
BRANCH  39  40
ATOM     40  C   UNL     1       0.622  -2.172   0.772  0.00  0.00    +0.321 C 
ATOM     41  O   UNL     1       0.367  -3.004  -0.067  0.00  0.00    -0.249 OA
BRANCH  40  42
ATOM     42  O   UNL     1       0.382  -0.875   0.525  0.00  0.00    -0.464 OA
BRANCH  42  44
ATOM     43  C   UNL     1      -0.376   0.964  -0.848  0.00  0.00    +0.048 C 
ATOM     44  C   UNL     1      -0.174  -0.549  -0.751  0.00  0.00    +0.229 C 
ENDBRANCH  42  44
ENDBRANCH  40  42
ENDBRANCH  39  40
ENDBRANCH  32  39
ENDBRANCH  31  35
ENDBRANCH  30  31
ENDBRANCH  29  30
ENDBRANCH   1  29
TORSDOF 11
