REMARK  Name = CHEMBL204524
REMARK  3 active torsions:
REMARK  status: ('A' for Active; 'I' for Inactive)
REMARK    1  A    between atoms: C_1  and  N_2
REMARK    2  A    between atoms: C_15  and  C_17
REMARK    3  A    between atoms: C_18  and  N_28
REMARK                            x       y       z     vdW  Elec       q    Type
REMARK                         _______ _______ _______ _____ _____    ______ ____
ROOT
ATOM      1  C   UNL     1       0.990   0.491  -0.920  0.00  0.00    -0.096 C 
ATOM      2  N   UNL     1       0.870  -0.971  -0.836  0.00  0.00    +0.380 N 
ATOM      3  C   UNL     1      -0.550  -1.341  -0.785  0.00  0.00    -0.060 C 
ATOM      4  C   UNL     1      -0.680  -2.867  -0.814  0.00  0.00    +0.088 C 
ATOM      5  N   UNL     1       0.132  -3.425   0.278  0.00  0.00    -0.319 N 
ATOM      6  C   UNL     1       1.529  -2.980   0.400  0.00  0.00    +0.088 C 
ATOM      7  C   UNL     1       1.555  -1.448   0.371  0.00  0.00    -0.060 C 
ATOM      8  C   UNL     1      -0.405  -4.347   1.171  0.00  0.00    +0.124 A 
ATOM      9  C   UNL     1      -1.650  -4.914   0.901  0.00  0.00    +0.046 A 
ATOM     10  C   UNL     1      -2.184  -5.831   1.788  0.00  0.00    +0.035 A 
ATOM     11  C   UNL     1      -1.452  -6.154   2.924  0.00  0.00    +0.110 A 
ATOM     12  C   UNL     1      -0.203  -5.548   3.141  0.00  0.00    +0.182 A 
ATOM     13  N   UNL     1       0.275  -4.672   2.255  0.00  0.00    -0.211 NA
ATOM     14  N   UNL     1       0.280  -6.036   4.301  0.00  0.00    -0.206 NA
ATOM     15  C   UNL     1      -0.574  -6.894   4.815  0.00  0.00    +0.170 A 
ATOM     16  N   UNL     1      -1.666  -7.003   3.997  0.00  0.00    -0.224 NA
ATOM     17  H   UNL     1       1.295  -1.389  -1.650  0.00  0.00    -0.082 HD
ENDROOT
BRANCH  15  18
ATOM     18  C   UNL     1      -0.383  -7.627   6.077  0.00  0.00    +0.105 A 
ATOM     19  C   UNL     1       0.702  -7.331   6.905  0.00  0.00    +0.050 A 
ATOM     20  C   UNL     1       0.847  -8.090   8.154  0.00  0.00    +0.020 A 
ATOM     21  C   UNL     1       1.910  -7.843   9.027  0.00  0.00    +0.012 A 
ATOM     22  C   UNL     1       2.020  -8.565  10.182  0.00  0.00    +0.001 A 
ATOM     23  C   UNL     1       1.085  -9.542  10.495  0.00  0.00    +0.002 A 
ATOM     24  C   UNL     1       0.030  -9.802   9.647  0.00  0.00    +0.026 A 
ATOM     25  C   UNL     1      -0.102  -9.079   8.466  0.00  0.00    +0.051 A 
ATOM     26  N   UNL     1      -1.153  -9.324   7.604  0.00  0.00    -0.321 N 
ATOM     27  C   UNL     1      -1.302  -8.633   6.461  0.00  0.00    +0.262 A 
ATOM     28  O   UNL     1      -2.248  -8.883   5.735  0.00  0.00    -0.267 OA
ATOM     29  H   UNL     1      -1.801 -10.009   7.831  0.00  0.00    +0.169 HD
BRANCH  19  30
ATOM     30  N   UNL     1       1.607  -6.356   6.562  0.00  0.00    -0.357 N 
ATOM     31  H   UNL     1       1.389  -5.716   5.867  0.00  0.00    +0.142 HD
ATOM     32  H   UNL     1       2.463  -6.309   7.014  0.00  0.00    +0.142 HD
ENDBRANCH  19  30
ENDBRANCH  15  18
TORSDOF 2
