REMARK  Name = CHEMBL190866
REMARK  16 active torsions:
REMARK  status: ('A' for Active; 'I' for Inactive)
REMARK    1  A    between atoms: C_1  and  C_2
REMARK    2  A    between atoms: N_4  and  C_5
REMARK    3  A    between atoms: C_5  and  C_6
REMARK    4  A    between atoms: C_6  and  C_7
REMARK    5  A    between atoms: C_7  and  O_8
REMARK    6  A    between atoms: O_8  and  C_9
REMARK    7  A    between atoms: C_9  and  C_10
REMARK    8  A    between atoms: C_21  and  C_32
REMARK    9  A    between atoms: N_27  and  C_28
REMARK   10  A    between atoms: C_28  and  C_29
REMARK   11  A    between atoms: C_28  and  C_30
REMARK   12  A    between atoms: C_28  and  C_31
REMARK   13  A    between atoms: C_34  and  O_40
REMARK   14  A    between atoms: C_36  and  O_38
REMARK   15  A    between atoms: O_38  and  C_39
REMARK   16  A    between atoms: O_40  and  C_41
REMARK                            x       y       z     vdW  Elec       q    Type
REMARK                         _______ _______ _______ _____ _____    ______ ____
ROOT
ATOM      1  C   UNL     1      -2.464  -0.467  -1.098  0.00  0.00    +0.110 C 
ATOM      2  C   UNL     1      -1.152  -0.933  -0.521  0.00  0.00    +0.218 C 
ATOM      3  O   UNL     1      -1.124  -1.462   0.570  0.00  0.00    -0.276 OA
ATOM      4  N   UNL     1      -0.011  -0.761  -1.216  0.00  0.00    -0.256 N 
ATOM      5  C   UNL     1      -0.027  -0.058  -2.420  0.00  0.00    +0.130 A 
ATOM      6  C   UNL     1       0.274   1.289  -2.417  0.00  0.00    +0.072 A 
ATOM      7  C   UNL     1       0.254   1.987  -3.636  0.00  0.00    +0.078 A 
ATOM      8  C   UNL     1      -0.077   1.264  -4.813  0.00  0.00    +0.019 A 
ATOM      9  C   UNL     1      -0.104   1.938  -6.046  0.00  0.00    +0.023 A 
ATOM     10  C   UNL     1       0.196   3.289  -6.056  0.00  0.00    +0.023 A 
ATOM     11  C   UNL     1       0.516   3.941  -4.845  0.00  0.00    +0.135 A 
ATOM     12  N   UNL     1       0.536   3.291  -3.700  0.00  0.00    -0.231 NA
ATOM     13  N   UNL     1       0.815   5.296  -4.861  0.00  0.00    -0.254 N 
ATOM     14  C   UNL     1       1.123   5.933  -3.713  0.00  0.00    +0.305 C 
ATOM     15  O   UNL     1       1.137   5.319  -2.663  0.00  0.00    -0.252 OA
ATOM     16  N   UNL     1       1.414   7.248  -3.729  0.00  0.00    -0.294 N 
ATOM     17  C   UNL     1      -0.368  -0.104  -4.712  0.00  0.00    +0.123 A 
ATOM     18  N   UNL     1      -0.327  -0.703  -3.544  0.00  0.00    -0.239 NA
ATOM     19  H   UNL     1       0.804   5.786  -5.699  0.00  0.00    +0.158 HD
ATOM     20  H   UNL     1       1.402   7.738  -4.567  0.00  0.00    +0.151 HD
ENDROOT
BRANCH  10  21
ATOM     21  C   UNL     1       0.181   4.048  -7.330  0.00  0.00    -0.008 A 
ATOM     22  C   UNL     1      -0.515   5.252  -7.418  0.00  0.00    +0.054 A 
ATOM     23  C   UNL     1      -0.525   5.958  -8.609  0.00  0.00    +0.124 A 
ATOM     24  C   UNL     1       0.156   5.469  -9.714  0.00  0.00    +0.091 A 
ATOM     25  C   UNL     1       0.849   4.270  -9.630  0.00  0.00    +0.124 A 
ATOM     26  C   UNL     1       0.869   3.562  -8.440  0.00  0.00    +0.054 A 
BRANCH  25  27
ATOM     27  O   UNL     1       1.515   3.793 -10.715  0.00  0.00    -0.495 OA
ATOM     28  C   UNL     1       1.457   4.578 -11.908  0.00  0.00    +0.277 C 
ENDBRANCH  25  27
BRANCH  23  29
ATOM     29  O   UNL     1      -1.204   7.133  -8.696  0.00  0.00    -0.495 OA
ATOM     30  C   UNL     1      -1.173   7.808  -9.955  0.00  0.00    +0.277 C 
ENDBRANCH  23  29
ENDBRANCH  10  21
BRANCH  16  31
ATOM     31  C   UNL     1       1.748   7.940  -2.482  0.00  0.00    +0.028 C 
ATOM     32  C   UNL     1       2.987   7.295  -1.857  0.00  0.00    +0.031 C 
ATOM     33  C   UNL     1       2.034   9.414  -2.776  0.00  0.00    +0.031 C 
ATOM     34  C   UNL     1       0.572   7.833  -1.509  0.00  0.00    +0.031 C 
ENDBRANCH  16  31
BRANCH   4  35
ATOM     35  C   UNL     1       1.247  -1.313  -0.708  0.00  0.00    +0.117 C 
BRANCH  35  36
ATOM     36  C   UNL     1       1.435  -2.733  -1.244  0.00  0.00    +0.047 C 
BRANCH  36  37
ATOM     37  C   UNL     1       2.749  -3.310  -0.713  0.00  0.00    +0.162 C 
BRANCH  37  38
ATOM     38  O   UNL     1       2.924  -4.637  -1.214  0.00  0.00    -0.375 OA
BRANCH  38  39
ATOM     39  C   UNL     1       4.128  -5.270  -0.776  0.00  0.00    +0.195 C 
BRANCH  39  40
ATOM     40  C   UNL     1       4.209  -6.656  -1.361  0.00  0.00    -0.022 A 
ATOM     41  C   UNL     1       3.664  -7.727  -0.679  0.00  0.00    +0.006 A 
ATOM     42  C   UNL     1       3.738  -8.999  -1.216  0.00  0.00    +0.000 A 
ATOM     43  C   UNL     1       4.357  -9.199  -2.436  0.00  0.00    +0.000 A 
ATOM     44  C   UNL     1       4.901  -8.127  -3.119  0.00  0.00    +0.000 A 
ATOM     45  C   UNL     1       4.823  -6.855  -2.583  0.00  0.00    +0.006 A 
ENDBRANCH  39  40
ENDBRANCH  38  39
ENDBRANCH  37  38
ENDBRANCH  36  37
ENDBRANCH  35  36
ENDBRANCH   4  35
TORSDOF 10
