REMARK  Name = CHEMBL1421
REMARK  8 active torsions:
REMARK  status: ('A' for Active; 'I' for Inactive)
REMARK    1  A    between atoms: C_1  and  C_2
REMARK    2  A    between atoms: C_7  and  N_8
REMARK    3  A    between atoms: C_9  and  C_11
REMARK    4  A    between atoms: C_19  and  N_24
REMARK    5  A    between atoms: C_21  and  C_23
REMARK    6  A    between atoms: N_27  and  C_30
REMARK    7  A    between atoms: C_30  and  C_31
REMARK    8  A    between atoms: C_31  and  O_32
REMARK                            x       y       z     vdW  Elec       q    Type
REMARK                         _______ _______ _______ _____ _____    ______ ____
ROOT
ATOM      1  C   UNL     1       1.122   6.222   6.067  0.00  0.00    +0.095 A 
ATOM      2  C   UNL     1       1.063   6.216   7.454  0.00  0.00    +0.133 A 
ATOM      3  N   UNL     1       0.845   5.057   8.022  0.00  0.00    -0.232 NA
ATOM      4  C   UNL     1       0.690   3.957   7.308  0.00  0.00    +0.164 A 
ATOM      5  S   UNL     1       0.839   4.494   5.719  0.00  0.00    -0.047 S 
ATOM      6  N   UNL     1       0.456   2.672   7.757  0.00  0.00    -0.279 N 
ATOM      7  C   UNL     1       0.248   2.437   9.109  0.00  0.00    +0.130 A 
ATOM      8  C   UNL     1      -0.098   1.167   9.560  0.00  0.00    +0.087 A 
ATOM      9  C   UNL     1      -0.295   0.983  10.925  0.00  0.00    +0.127 A 
ATOM     10  N   UNL     1      -0.146   2.021  11.745  0.00  0.00    -0.218 NA
ATOM     11  C   UNL     1       0.184   3.208  11.280  0.00  0.00    +0.130 A 
ATOM     12  N   UNL     1       0.384   3.422   9.995  0.00  0.00    -0.217 NA
ATOM     13  C   UNL     1       0.342   4.355  12.245  0.00  0.00    +0.088 C 
ATOM     14  H   UNL     1       0.436   1.934   7.127  0.00  0.00    +0.155 HD
ENDROOT
BRANCH   9  15
ATOM     15  N   UNL     1      -0.642  -0.263  11.424  0.00  0.00    -0.313 N 
ATOM     16  C   UNL     1      -1.059  -0.426  12.825  0.00  0.00    +0.122 C 
ATOM     17  C   UNL     1      -2.385  -1.194  12.852  0.00  0.00    +0.103 C 
ATOM     18  N   UNL     1      -2.239  -2.446  12.098  0.00  0.00    -0.297 NA
ATOM     19  C   UNL     1      -1.948  -2.184  10.682  0.00  0.00    +0.103 C 
ATOM     20  C   UNL     1      -0.610  -1.456  10.564  0.00  0.00    +0.122 C 
BRANCH  18  21
ATOM     21  C   UNL     1      -3.432  -3.291  12.243  0.00  0.00    +0.112 C 
BRANCH  21  22
ATOM     22  C   UNL     1      -3.149  -4.676  11.659  0.00  0.00    +0.171 C 
BRANCH  22  23
ATOM     23  O   UNL     1      -2.134  -5.321  12.432  0.00  0.00    -0.394 OA
ATOM     24  H   UNL     1      -1.903  -6.206  12.118  0.00  0.00    +0.209 HD
ENDBRANCH  22  23
ENDBRANCH  21  22
ENDBRANCH  18  21
ENDBRANCH   9  15
BRANCH   1  26
ATOM     25  N   UNL     1       1.360   7.118   3.817  0.00  0.00    -0.280 N 
ATOM     26  C   UNL     1       1.347   7.336   5.147  0.00  0.00    +0.256 C 
ATOM     27  O   UNL     1       1.522   8.459   5.582  0.00  0.00    -0.269 OA
ATOM     28  H   UNL     1       1.140   6.241   3.467  0.00  0.00    +0.155 HD
BRANCH  25  35
ATOM     29  C   UNL     1       3.396   6.654   1.885  0.00  0.00    +0.046 C 
ATOM     30  C   UNL     1       2.676   7.975   1.983  0.00  0.00    -0.028 A 
ATOM     31  C   UNL     1       2.995   9.002   1.115  0.00  0.00    +0.005 A 
ATOM     32  C   UNL     1       2.336  10.214   1.204  0.00  0.00    +0.002 A 
ATOM     33  C   UNL     1       1.356  10.403   2.161  0.00  0.00    +0.022 A 
ATOM     34  C   UNL     1       1.032   9.380   3.032  0.00  0.00    +0.062 A 
ATOM     35  C   UNL     1       1.689   8.159   2.941  0.00  0.00    +0.055 A 
ATOM     36 CL   UNL     1      -0.198   9.618   4.234  0.00  0.00    -0.082 Cl
ENDBRANCH  25  35
ENDBRANCH   1  26
TORSDOF 6
