REMARK  Name = CHEMBL379108
REMARK  6 active torsions:
REMARK  status: ('A' for Active; 'I' for Inactive)
REMARK    1  A    between atoms: C_6  and  N_7
REMARK    2  A    between atoms: N_7  and  C_8
REMARK    3  A    between atoms: C_8  and  C_9
REMARK    4  A    between atoms: C_15  and  C_19
REMARK    5  A    between atoms: C_25  and  N_29
REMARK    6  A    between atoms: C_32  and  N_35
REMARK                            x       y       z     vdW  Elec       q    Type
REMARK                         _______ _______ _______ _____ _____    ______ ____
ROOT
ATOM      1  C   UNL     1       4.327  -1.683  -0.071  0.00  0.00    +0.158 A 
ATOM      2  N   UNL     1       5.669  -1.970  -0.061  0.00  0.00    -0.337 N 
ATOM      3  H   UNL     1       6.395  -1.327  -0.051  0.00  0.00    +0.167 HD
ATOM      4  C   UNL     1       5.791  -3.349  -0.066  0.00  0.00    +0.067 A 
ATOM      5  C   UNL     1       6.875  -4.216  -0.061  0.00  0.00    +0.029 A 
ATOM      6  C   UNL     1       6.667  -5.578  -0.070  0.00  0.00    +0.025 A 
ATOM      7  C   UNL     1       5.372  -6.094  -0.084  0.00  0.00    +0.032 A 
ATOM      8  C   UNL     1       4.282  -5.245  -0.090  0.00  0.00    +0.053 A 
ATOM      9  C   UNL     1       4.481  -3.860  -0.080  0.00  0.00    +0.091 A 
ATOM     10  N   UNL     1       3.636  -2.802  -0.077  0.00  0.00    -0.226 NA
ENDROOT
BRANCH   1  17
ATOM     11  C   UNL     1      -0.017   1.398  -0.081  0.00  0.00    +0.025 A 
ATOM     12  C   UNL     1       1.126   2.128  -0.073  0.00  0.00    +0.032 A 
ATOM     13  C   UNL     1       2.374   1.470  -0.070  0.00  0.00    +0.093 A 
ATOM     14  C   UNL     1       2.392  -0.001  -0.075  0.00  0.00    +0.032 A 
ATOM     15  C   UNL     1       1.178  -0.700  -0.083  0.00  0.00    +0.035 A 
ATOM     16  C   UNL     1       0.002  -0.004  -0.085  0.00  0.00    +0.028 A 
ATOM     17  C   UNL     1       3.752  -0.334  -0.070  0.00  0.00    +0.109 A 
ATOM     18  N   UNL     1       4.433   0.844  -0.063  0.00  0.00    -0.273 N 
ATOM     19  N   UNL     1       3.638   1.853  -0.063  0.00  0.00    -0.173 NA
ATOM     20  H   UNL     1       5.400   0.914  -0.059  0.00  0.00    +0.189 HD
BRANCH  16  21
ATOM     21  N   UNL     1      -1.207  -0.703  -0.093  0.00  0.00    -0.344 N 
ATOM     22  H   UNL     1      -1.206  -1.673  -0.096  0.00  0.00    +0.146 HD
BRANCH  21  23
ATOM     23  C   UNL     1      -2.476   0.028  -0.095  0.00  0.00    +0.105 C 
BRANCH  23  24
ATOM     24  C   UNL     1      -3.638  -0.968  -0.103  0.00  0.00    +0.006 C 
ATOM     25  C   UNL     1      -3.623  -1.758  -1.413  0.00  0.00    +0.005 C 
ATOM     26  C   UNL     1      -4.785  -2.754  -1.421  0.00  0.00    +0.000 C 
ATOM     27  C   UNL     1      -6.108  -1.995  -1.299  0.00  0.00    +0.000 C 
ATOM     28  C   UNL     1      -6.123  -1.204   0.011  0.00  0.00    +0.000 C 
ATOM     29  C   UNL     1      -4.961  -0.209   0.019  0.00  0.00    +0.005 C 
ENDBRANCH  23  24
ENDBRANCH  21  23
ENDBRANCH  16  21
ENDBRANCH   1  17
BRANCH   7  30
ATOM     30  N   UNL     1       5.175  -7.479  -0.093  0.00  0.00    -0.330 N 
ATOM     31  C   UNL     1       3.823  -8.044   0.013  0.00  0.00    +0.103 C 
ATOM     32  C   UNL     1       3.596  -9.006  -1.157  0.00  0.00    +0.004 C 
ATOM     33  C   UNL     1       4.714 -10.051  -1.178  0.00  0.00    -0.066 C 
ATOM     34  C   UNL     1       6.062  -9.355  -1.379  0.00  0.00    +0.004 C 
ATOM     35  C   UNL     1       6.316  -8.397  -0.216  0.00  0.00    +0.103 C 
BRANCH  33  36
ATOM     36  N   UNL     1       4.482 -10.995  -2.279  0.00  0.00    +0.382 N 
ATOM     37  C   UNL     1       3.186 -11.656  -2.089  0.00  0.00    -0.078 C 
ATOM     38  C   UNL     1       2.902 -12.581  -3.275  0.00  0.00    -0.019 C 
ATOM     39  C   UNL     1       4.007 -13.636  -3.369  0.00  0.00    -0.004 C 
ATOM     40  C   UNL     1       5.362 -12.934  -3.492  0.00  0.00    -0.019 C 
ATOM     41  C   UNL     1       5.554 -11.996  -2.298  0.00  0.00    -0.078 C 
ATOM     42  H   UNL     1       4.476 -10.493  -3.155  0.00  0.00    -0.081 HD
ENDBRANCH  33  36
ENDBRANCH   7  30
TORSDOF 6
