REMARK  Name = CHEMBL523071
REMARK  4 active torsions:
REMARK  status: ('A' for Active; 'I' for Inactive)
REMARK    1  A    between atoms: C_1  and  N_2
REMARK    2  A    between atoms: N_6  and  C_9
REMARK    3  A    between atoms: C_16  and  C_19
REMARK    4  A    between atoms: C_20  and  N_31
REMARK                            x       y       z     vdW  Elec       q    Type
REMARK                         _______ _______ _______ _____ _____    ______ ____
ROOT
ATOM      1  C   UNL     1      -0.258  -3.731   2.234  0.00  0.00    +0.032 A 
ATOM      2  C   UNL     1      -1.500  -4.333   2.427  0.00  0.00    +0.025 A 
ATOM      3  C   UNL     1      -1.911  -4.694   3.692  0.00  0.00    +0.029 A 
ATOM      4  C   UNL     1      -1.086  -4.459   4.782  0.00  0.00    +0.067 A 
ATOM      5  C   UNL     1       0.169  -3.853   4.598  0.00  0.00    +0.091 A 
ATOM      6  C   UNL     1       0.579  -3.495   3.309  0.00  0.00    +0.053 A 
ATOM      7  N   UNL     1       0.749  -3.749   5.819  0.00  0.00    -0.227 NA
ATOM      8  C   UNL     1      -0.054  -4.244   6.733  0.00  0.00    +0.146 A 
ATOM      9  N   UNL     1      -1.204  -4.697   6.142  0.00  0.00    -0.338 N 
ATOM     10  H   UNL     1      -1.959  -5.107   6.592  0.00  0.00    +0.167 HD
ENDROOT
BRANCH   8  11
ATOM     11  C   UNL     1       0.238  -4.304   8.175  0.00  0.00    +0.103 A 
ATOM     12  C   UNL     1       1.364  -3.658   8.691  0.00  0.00    +0.050 A 
ATOM     13  C   UNL     1       1.611  -3.747  10.136  0.00  0.00    +0.020 A 
ATOM     14  C   UNL     1       2.719  -3.123  10.717  0.00  0.00    +0.012 A 
ATOM     15  C   UNL     1       2.924  -3.222  12.064  0.00  0.00    +0.001 A 
ATOM     16  C   UNL     1       2.041  -3.938  12.861  0.00  0.00    +0.002 A 
ATOM     17  C   UNL     1       0.942  -4.561  12.308  0.00  0.00    +0.026 A 
ATOM     18  C   UNL     1       0.713  -4.473  10.939  0.00  0.00    +0.051 A 
ATOM     19  N   UNL     1      -0.382  -5.089  10.366  0.00  0.00    -0.321 N 
ATOM     20  H   UNL     1      -0.994  -5.587  10.931  0.00  0.00    +0.169 HD
ATOM     21  C   UNL     1      -0.623  -5.011   9.047  0.00  0.00    +0.262 A 
ATOM     22  O   UNL     1      -1.606  -5.568   8.589  0.00  0.00    -0.267 OA
BRANCH  12  23
ATOM     23  N   UNL     1       2.216  -2.960   7.870  0.00  0.00    -0.357 N 
ATOM     24  H   UNL     1       1.964  -2.780   6.951  0.00  0.00    +0.142 HD
ATOM     25  H   UNL     1       3.069  -2.647   8.210  0.00  0.00    +0.142 HD
ENDBRANCH  12  23
ENDBRANCH   8  11
BRANCH   1  31
ATOM     26  C   UNL     1       1.083   0.720  -0.201  0.00  0.00    +0.104 C 
ATOM     27  N   UNL     1       0.845  -0.729  -0.178  0.00  0.00    -0.304 NA
ATOM     28  C   UNL     1      -0.580  -1.028  -0.311  0.00  0.00    +0.085 C 
ATOM     29  C   UNL     1      -0.746  -2.298  -1.116  0.00  0.00    +0.034 C 
ATOM     30  C   UNL     1      -0.814  -3.506  -0.166  0.00  0.00    +0.106 C 
ATOM     31  N   UNL     1       0.148  -3.370   0.945  0.00  0.00    -0.329 N 
ATOM     32  C   UNL     1       1.496  -2.876   0.751  0.00  0.00    +0.120 C 
ATOM     33  C   UNL     1       1.514  -1.336   0.910  0.00  0.00    +0.103 C 
ENDBRANCH   1  31
TORSDOF 3
