REMARK  Name = CHEMBL104414
REMARK  6 active torsions:
REMARK  status: ('A' for Active; 'I' for Inactive)
REMARK    1  A    between atoms: C_1  and  N_2
REMARK    2  A    between atoms: C_5  and  N_21
REMARK    3  A    between atoms: C_10  and  C_13
REMARK    4  A    between atoms: N_21  and  C_22
REMARK    5  A    between atoms: C_25  and  N_28
REMARK    6  A    between atoms: N_31  and  C_34
REMARK                            x       y       z     vdW  Elec       q    Type
REMARK                         _______ _______ _______ _____ _____    ______ ____
ROOT
ATOM      1  C   UNL     1      -3.453  -4.999  -0.077  0.00  0.00    +0.152 C 
ATOM      2  N   UNL     1      -2.228  -4.198  -0.001  0.00  0.00    -0.311 N 
ATOM      3  C   UNL     1      -2.312  -2.825   0.039  0.00  0.00    +0.056 A 
ATOM      4  C   UNL     1      -3.544  -2.181   0.010  0.00  0.00    +0.070 A 
ATOM      5  C   UNL     1      -3.576  -0.794   0.053  0.00  0.00    +0.125 A 
ATOM      6  N   UNL     1      -2.457  -0.080   0.122  0.00  0.00    -0.239 NA
ATOM      7  C   UNL     1      -1.268  -0.641   0.152  0.00  0.00    +0.122 A 
ATOM      8  C   UNL     1      -1.144  -2.035   0.112  0.00  0.00    +0.018 A 
ATOM      9  C   UNL     1       0.127  -2.656   0.144  0.00  0.00    +0.025 A 
ATOM     10  C   UNL     1       0.202  -4.022   0.102  0.00  0.00    +0.050 A 
ATOM     11  C   UNL     1      -1.029  -4.812   0.033  0.00  0.00    +0.259 A 
ATOM     12  O   UNL     1      -0.969  -6.028   0.002  0.00  0.00    -0.267 OA
ENDROOT
BRANCH  10  13
ATOM     13  C   UNL     1       1.521  -4.697   0.134  0.00  0.00    +0.024 A 
ATOM     14  C   UNL     1       2.196  -4.972  -1.056  0.00  0.00    +0.050 A 
ATOM     15  C   UNL     1       3.424  -5.602  -1.020  0.00  0.00    +0.021 A 
ATOM     16  C   UNL     1       3.986  -5.960   0.193  0.00  0.00    +0.003 A 
ATOM     17  C   UNL     1       3.322  -5.690   1.376  0.00  0.00    +0.021 A 
ATOM     18  C   UNL     1       2.095  -5.056   1.354  0.00  0.00    +0.050 A 
ATOM     19 CL   UNL     1       1.267  -4.712   2.840  0.00  0.00    -0.083 Cl
ATOM     20 CL   UNL     1       1.492  -4.524  -2.579  0.00  0.00    -0.083 Cl
ENDBRANCH  10  13
BRANCH   5  21
ATOM     21  N   UNL     1      -4.799  -0.141   0.024  0.00  0.00    -0.299 N 
ATOM     22  H   UNL     1      -5.619  -0.650  -0.076  0.00  0.00    +0.154 HD
BRANCH  21  23
ATOM     23  C   UNL     1      -4.851   1.254   0.139  0.00  0.00    +0.032 A 
ATOM     24  C   UNL     1      -5.896   1.856   0.827  0.00  0.00    +0.025 A 
ATOM     25  C   UNL     1      -5.947   3.231   0.941  0.00  0.00    +0.025 A 
ATOM     26  C   UNL     1      -4.953   4.012   0.366  0.00  0.00    +0.030 A 
ATOM     27  C   UNL     1      -3.908   3.410  -0.323  0.00  0.00    +0.025 A 
ATOM     28  C   UNL     1      -3.855   2.035  -0.432  0.00  0.00    +0.025 A 
BRANCH  26  29
ATOM     29  N   UNL     1      -5.005   5.406   0.480  0.00  0.00    -0.327 N 
ATOM     30  C   UNL     1      -4.045   6.258  -0.238  0.00  0.00    +0.120 C 
ATOM     31  C   UNL     1      -4.826   7.328  -1.008  0.00  0.00    +0.103 C 
ATOM     32  N   UNL     1      -5.719   8.040  -0.084  0.00  0.00    -0.302 NA
ATOM     33  C   UNL     1      -6.724   7.135   0.489  0.00  0.00    +0.103 C 
ATOM     34  C   UNL     1      -6.025   6.057   1.316  0.00  0.00    +0.120 C 
ATOM     35  C   UNL     1      -6.358   9.185  -0.746  0.00  0.00    +0.105 C 
ENDBRANCH  26  29
ENDBRANCH  21  23
ENDBRANCH   5  21
TORSDOF 4
