REMARK  Name = CHEMBL606964
REMARK  6 active torsions:
REMARK  status: ('A' for Active; 'I' for Inactive)
REMARK    1  A    between atoms: C_1  and  O_2
REMARK    2  A    between atoms: O_2  and  C_3
REMARK    3  A    between atoms: C_6  and  N_9
REMARK    4  A    between atoms: N_17  and  C_20
REMARK    5  A    between atoms: C_24  and  O_27
REMARK    6  A    between atoms: N_28  and  C_29
REMARK                            x       y       z     vdW  Elec       q    Type
REMARK                         _______ _______ _______ _____ _____    ______ ____
ROOT
ATOM      1  N   UNL     1       3.511  -2.580  -3.914  0.00  0.00    -0.251 N 
ATOM      2  C   UNL     1       3.402  -4.040  -4.087  0.00  0.00    +0.155 C 
ATOM      3  C   UNL     1       3.564  -4.570  -5.490  0.00  0.00    +0.029 A 
ATOM      4  C   UNL     1       3.483  -5.910  -5.781  0.00  0.00    +0.123 A 
ATOM      5  N   UNL     1       3.636  -6.298  -7.042  0.00  0.00    -0.222 NA
ATOM      6  C   UNL     1       3.863  -5.412  -8.001  0.00  0.00    +0.221 A 
ATOM      7  N   UNL     1       3.947  -4.112  -7.755  0.00  0.00    -0.199 NA
ATOM      8  C   UNL     1       3.803  -3.655  -6.517  0.00  0.00    +0.139 A 
ATOM      9  N   UNL     1       3.884  -2.304  -6.231  0.00  0.00    -0.236 N 
ATOM     10  C   UNL     1       3.739  -1.810  -4.994  0.00  0.00    +0.315 C 
ATOM     11  O   UNL     1       3.822  -0.607  -4.838  0.00  0.00    -0.252 OA
ATOM     12  N   UNL     1       4.017  -5.859  -9.303  0.00  0.00    -0.284 N 
ATOM     13  H   UNL     1       4.260  -5.234 -10.005  0.00  0.00    +0.155 HD
ENDROOT
BRANCH  12  14
ATOM     14  C   UNL     1       3.821  -7.211  -9.607  0.00  0.00    +0.034 A 
ATOM     15  C   UNL     1       2.850  -7.941  -8.935  0.00  0.00    +0.026 A 
ATOM     16  C   UNL     1       2.659  -9.275  -9.237  0.00  0.00    +0.040 A 
ATOM     17  C   UNL     1       3.436  -9.885 -10.208  0.00  0.00    +0.124 A 
ATOM     18  C   UNL     1       4.405  -9.159 -10.879  0.00  0.00    +0.040 A 
ATOM     19  C   UNL     1       4.595  -7.822 -10.585  0.00  0.00    +0.026 A 
ATOM     20  F   UNL     1       3.248 -11.190 -10.501  0.00  0.00    -0.205 F 
ENDBRANCH  12  14
BRANCH   1  24
ATOM     21  C   UNL     1       3.101  -0.861  -0.138  0.00  0.00    +0.120 A 
ATOM     22  C   UNL     1       2.013  -1.474  -0.742  0.00  0.00    +0.047 A 
ATOM     23  C   UNL     1       2.148  -2.043  -1.993  0.00  0.00    +0.027 A 
ATOM     24  C   UNL     1       3.373  -2.002  -2.645  0.00  0.00    +0.038 A 
ATOM     25  C   UNL     1       4.461  -1.389  -2.040  0.00  0.00    +0.027 A 
ATOM     26  C   UNL     1       4.323  -0.815  -0.791  0.00  0.00    +0.047 A 
BRANCH  21  28
ATOM     27  C   UNL     1       1.680  -0.385   1.709  0.00  0.00    +0.277 C 
ATOM     28  O   UNL     1       2.967  -0.301   1.094  0.00  0.00    -0.495 OA
ENDBRANCH  21  28
ENDBRANCH   1  24
BRANCH   9  29
ATOM     29  C   UNL     1       4.137  -1.370  -7.331  0.00  0.00    +0.087 C 
ATOM     30  C   UNL     1       2.899  -0.479  -7.563  0.00  0.00    +0.025 C 
ATOM     31  C   UNL     1       3.202   0.809  -6.759  0.00  0.00    +0.033 C 
ATOM     32  C   UNL     1       4.721   1.006  -6.988  0.00  0.00    +0.116 C 
ATOM     33  C   UNL     1       5.296  -0.427  -6.966  0.00  0.00    +0.054 C 
BRANCH  32  34
ATOM     34  O   UNL     1       5.288   1.791  -5.938  0.00  0.00    -0.392 OA
ATOM     35  H   UNL     1       4.920   2.683  -5.871  0.00  0.00    +0.210 HD
ENDBRANCH  32  34
ENDBRANCH   9  29
TORSDOF 5
