REMARK  Name = CHEMBL190281
REMARK  3 active torsions:
REMARK  status: ('A' for Active; 'I' for Inactive)
REMARK    1  A    between atoms: C_3  and  N_25
REMARK    2  A    between atoms: C_6  and  N_7
REMARK    3  A    between atoms: N_16  and  C_19
REMARK                            x       y       z     vdW  Elec       q    Type
REMARK                         _______ _______ _______ _____ _____    ______ ____
ROOT
ATOM      1  N   UNL     1      -1.201  -0.721   0.010  0.00  0.00    -0.284 N 
ATOM      2  C   UNL     1      -1.031  -2.088   0.110  0.00  0.00    +0.221 A 
ATOM      3  N   UNL     1       0.196  -2.568   0.281  0.00  0.00    -0.222 NA
ATOM      4  C   UNL     1       0.414  -3.867   0.383  0.00  0.00    +0.126 A 
ATOM      5  C   UNL     1      -0.681  -4.735   0.305  0.00  0.00    +0.037 A 
ATOM      6  C   UNL     1      -0.529  -6.183   0.408  0.00  0.00    +0.033 A 
ATOM      7  C   UNL     1      -1.645  -6.955   0.323  0.00  0.00    +0.083 A 
ATOM      8  C   UNL     1      -2.909  -6.357   0.139  0.00  0.00    +0.267 A 
ATOM      9  O   UNL     1      -3.896  -7.068   0.065  0.00  0.00    -0.266 OA
ATOM     10  N   UNL     1      -3.055  -5.024   0.044  0.00  0.00    -0.289 N 
ATOM     11  C   UNL     1      -1.970  -4.188   0.122  0.00  0.00    +0.149 A 
ATOM     12  N   UNL     1      -2.097  -2.870   0.035  0.00  0.00    -0.196 NA
ATOM     13 BR   UNL     1      -1.501  -8.837   0.450  0.00  0.00    -0.045 Br
ATOM     14  H   UNL     1      -2.095  -0.345  -0.029  0.00  0.00    +0.155 HD
ENDROOT
BRANCH   1  20
ATOM     15  C   UNL     1       1.075  -0.294  -0.676  0.00  0.00    +0.025 A 
ATOM     16  C   UNL     1       2.177   0.538  -0.721  0.00  0.00    +0.025 A 
ATOM     17  C   UNL     1       2.125   1.791  -0.124  0.00  0.00    +0.030 A 
ATOM     18  C   UNL     1       0.966   2.208   0.517  0.00  0.00    +0.025 A 
ATOM     19  C   UNL     1      -0.136   1.376   0.561  0.00  0.00    +0.025 A 
ATOM     20  C   UNL     1      -0.084   0.123  -0.035  0.00  0.00    +0.034 A 
BRANCH  17  21
ATOM     21  N   UNL     1       3.241   2.633  -0.169  0.00  0.00    -0.333 N 
ATOM     22  C   UNL     1       3.174   4.006   0.356  0.00  0.00    +0.086 C 
ATOM     23  C   UNL     1       4.357   4.222   1.305  0.00  0.00    -0.063 C 
ATOM     24  N   UNL     1       5.609   3.900   0.607  0.00  0.00    +0.381 N 
ATOM     25  C   UNL     1       5.635   2.474   0.261  0.00  0.00    -0.063 C 
ATOM     26  C   UNL     1       4.517   2.169  -0.736  0.00  0.00    +0.086 C 
ATOM     27  H   UNL     1       5.674   4.451  -0.236  0.00  0.00    -0.086 HD
ATOM     28  H   UNL     1       6.391   4.114   1.207  0.00  0.00    -0.086 HD
ENDBRANCH  17  21
ENDBRANCH   1  20
BRANCH  10  29
ATOM     29  C   UNL     1      -4.391  -4.455  -0.147  0.00  0.00    +0.092 C 
ATOM     30  C   UNL     1      -5.324  -4.903   0.998  0.00  0.00    +0.025 C 
ATOM     31  C   UNL     1      -6.694  -5.120   0.309  0.00  0.00    +0.002 C 
ATOM     32  C   UNL     1      -6.296  -5.741  -1.054  0.00  0.00    +0.002 C 
ATOM     33  C   UNL     1      -5.010  -4.988  -1.451  0.00  0.00    +0.025 C 
ENDBRANCH  10  29
TORSDOF 3
