REMARK  Name = CHEMBL211708
REMARK  2 active torsions:
REMARK  status: ('A' for Active; 'I' for Inactive)
REMARK    1  A    between atoms: C_7  and  C_11
REMARK    2  A    between atoms: C_18  and  N_21
REMARK                            x       y       z     vdW  Elec       q    Type
REMARK                         _______ _______ _______ _____ _____    ______ ____
ROOT
ATOM      1  C   UNL     1      -4.336   3.138   0.061  0.00  0.00    +0.160 A 
ATOM      2  N   UNL     1      -5.662   3.485   0.081  0.00  0.00    -0.337 N 
ATOM      3  H   UNL     1      -6.417   2.875   0.089  0.00  0.00    +0.167 HD
ATOM      4  C   UNL     1      -5.723   4.865   0.087  0.00  0.00    +0.068 A 
ATOM      5  C   UNL     1      -6.768   5.781   0.105  0.00  0.00    +0.028 A 
ATOM      6  C   UNL     1      -6.498   7.133   0.108  0.00  0.00    +0.004 A 
ATOM      7  C   UNL     1      -5.189   7.591   0.091  0.00  0.00    +0.025 A 
ATOM      8  C   UNL     1      -4.134   6.697   0.073  0.00  0.00    +0.058 A 
ATOM      9  C   UNL     1      -4.394   5.317   0.071  0.00  0.00    +0.110 A 
ATOM     10  N   UNL     1      -3.597   4.221   0.061  0.00  0.00    -0.224 NA
ENDROOT
BRANCH   1  17
ATOM     11  C   UNL     1      -0.017   1.385   0.010  0.00  0.00    +0.001 A 
ATOM     12  C   UNL     1       0.002  -0.004   0.002  0.00  0.00    +0.002 A 
ATOM     13  C   UNL     1      -1.173  -0.721   0.009  0.00  0.00    +0.028 A 
ATOM     14  C   UNL     1      -2.392  -0.049   0.025  0.00  0.00    +0.066 A 
ATOM     15  C   UNL     1      -2.406   1.357   0.033  0.00  0.00    +0.030 A 
ATOM     16  C   UNL     1      -1.202   2.063   0.030  0.00  0.00    +0.012 A 
ATOM     17  C   UNL     1      -3.819   1.755   0.049  0.00  0.00    +0.135 A 
ATOM     18  N   UNL     1      -4.539   0.657   0.049  0.00  0.00    -0.170 NA
ATOM     19  H   UNL     1      -3.998  -1.385   0.032  0.00  0.00    +0.189 HD
ATOM     20  N   UNL     1      -3.701  -0.462   0.035  0.00  0.00    -0.276 N 
ENDBRANCH   1  17
BRANCH   8  21
ATOM     21  N   UNL     1      -2.819   7.164   0.057  0.00  0.00    -0.324 N 
ATOM     22  C   UNL     1      -2.124   7.429  -1.213  0.00  0.00    +0.133 C 
ATOM     23  C   UNL     1      -1.517   8.836  -1.148  0.00  0.00    +0.178 C 
ATOM     24  O   UNL     1      -0.734   8.956   0.042  0.00  0.00    -0.377 OA
ATOM     25  C   UNL     1      -1.481   8.814   1.252  0.00  0.00    +0.178 C 
ATOM     26  C   UNL     1      -2.088   7.412   1.310  0.00  0.00    +0.133 C 
ENDBRANCH   8  21
TORSDOF 2
