REMARK  Name = CHEMBL495961
REMARK  5 active torsions:
REMARK  status: ('A' for Active; 'I' for Inactive)
REMARK    1  A    between atoms: C_1  and  N_2
REMARK    2  A    between atoms: N_5  and  C_8
REMARK    3  A    between atoms: C_8  and  C_9
REMARK    4  A    between atoms: C_16  and  C_19
REMARK    5  A    between atoms: C_20  and  N_31
REMARK                            x       y       z     vdW  Elec       q    Type
REMARK                         _______ _______ _______ _____ _____    ______ ____
ROOT
ATOM      1  C   UNL     1      -0.085  -4.447   2.534  0.00  0.00    -0.031 A 
ATOM      2  C   UNL     1       1.279  -4.644   2.693  0.00  0.00    +0.007 A 
ATOM      3  C   UNL     1       1.788  -5.065   3.904  0.00  0.00    +0.028 A 
ATOM      4  C   UNL     1       0.931  -5.294   4.971  0.00  0.00    +0.066 A 
ATOM      5  C   UNL     1      -0.452  -5.096   4.815  0.00  0.00    +0.090 A 
ATOM      6  C   UNL     1      -0.950  -4.663   3.582  0.00  0.00    +0.034 A 
ATOM      7  N   UNL     1      -1.037  -5.391   6.002  0.00  0.00    -0.227 NA
ATOM      8  C   UNL     1      -0.118  -5.753   6.869  0.00  0.00    +0.146 A 
ATOM      9  N   UNL     1       1.117  -5.710   6.277  0.00  0.00    -0.338 N 
ATOM     10  H   UNL     1       1.964  -5.929   6.697  0.00  0.00    +0.167 HD
ENDROOT
BRANCH   8  11
ATOM     11  C   UNL     1      -0.377  -6.146   8.264  0.00  0.00    +0.103 A 
ATOM     12  C   UNL     1      -1.662  -6.032   8.799  0.00  0.00    +0.050 A 
ATOM     13  C   UNL     1      -1.869  -6.437  10.195  0.00  0.00    +0.020 A 
ATOM     14  C   UNL     1      -3.130  -6.349  10.791  0.00  0.00    +0.012 A 
ATOM     15  C   UNL     1      -3.293  -6.734  12.092  0.00  0.00    +0.001 A 
ATOM     16  C   UNL     1      -2.216  -7.211  12.827  0.00  0.00    +0.002 A 
ATOM     17  C   UNL     1      -0.964  -7.305  12.258  0.00  0.00    +0.026 A 
ATOM     18  C   UNL     1      -0.775  -6.920  10.935  0.00  0.00    +0.051 A 
ATOM     19  N   UNL     1       0.471  -7.008  10.346  0.00  0.00    -0.321 N 
ATOM     20  H   UNL     1       1.218  -7.343  10.867  0.00  0.00    +0.169 HD
ATOM     21  C   UNL     1       0.674  -6.646   9.069  0.00  0.00    +0.262 A 
ATOM     22  O   UNL     1       1.791  -6.747   8.593  0.00  0.00    -0.267 OA
BRANCH  12  23
ATOM     23  N   UNL     1      -2.703  -5.554   8.040  0.00  0.00    -0.357 N 
ATOM     24  H   UNL     1      -2.570  -5.365   7.098  0.00  0.00    +0.142 HD
ATOM     25  H   UNL     1      -3.571  -5.406   8.447  0.00  0.00    +0.142 HD
ENDBRANCH  12  23
ENDBRANCH   8  11
BRANCH   1  26
ATOM     26  C   UNL     1      -0.623  -3.986   1.203  0.00  0.00    +0.119 C 
BRANCH  26  31
ATOM     27  C   UNL     1      -0.121   1.504   0.037  0.00  0.00    -0.096 C 
ATOM     28  N   UNL     1      -0.069   0.036   0.025  0.00  0.00    +0.379 N 
ATOM     29  C   UNL     1      -1.435  -0.503   0.021  0.00  0.00    -0.064 C 
ATOM     30  C   UNL     1      -1.381  -2.032  -0.010  0.00  0.00    +0.066 C 
ATOM     31  N   UNL     1      -0.648  -2.517   1.167  0.00  0.00    -0.302 NA
ATOM     32  C   UNL     1       0.715  -1.967   1.198  0.00  0.00    +0.066 C 
ATOM     33  C   UNL     1       0.643  -0.438   1.219  0.00  0.00    -0.064 C 
ATOM     34  H   UNL     1       0.417  -0.277  -0.802  0.00  0.00    -0.082 HD
ENDBRANCH  26  31
ENDBRANCH   1  26
TORSDOF 4
