REMARK  Name = CHEMBL574738
REMARK  11 active torsions:
REMARK  status: ('A' for Active; 'I' for Inactive)
REMARK    1  A    between atoms: C_1  and  C_2
REMARK    2  A    between atoms: C_2  and  N_3
REMARK    3  A    between atoms: N_6  and  C_9
REMARK    4  A    between atoms: C_9  and  C_10
REMARK    5  A    between atoms: C_13  and  N_20
REMARK    6  A    between atoms: C_15  and  C_16
REMARK    7  A    between atoms: N_23  and  C_24
REMARK    8  A    between atoms: C_27  and  O_30
REMARK    9  A    between atoms: O_30  and  C_31
REMARK   10  A    between atoms: C_33  and  N_37
REMARK   11  A    between atoms: N_37  and  C_38
REMARK                            x       y       z     vdW  Elec       q    Type
REMARK                         _______ _______ _______ _____ _____    ______ ____
ROOT
ATOM      1  N   UNL     1      -4.798  -8.331   1.452  0.00  0.00    -0.269 N 
ATOM      2  C   UNL     1      -4.488  -9.065   0.365  0.00  0.00    +0.308 C 
ATOM      3  O   UNL     1      -4.318  -8.520  -0.708  0.00  0.00    -0.252 OA
ATOM      4  N   UNL     1      -4.368 -10.403   0.468  0.00  0.00    -0.269 N 
ATOM      5  H   UNL     1      -4.859  -8.755   2.322  0.00  0.00    +0.156 HD
ATOM      6  H   UNL     1      -4.576 -10.846   1.305  0.00  0.00    +0.156 HD
ENDROOT
BRANCH   1  10
ATOM      7  C   UNL     1      -5.492  -4.240   1.075  0.00  0.00    -0.022 A 
ATOM      8  C   UNL     1      -5.843  -5.097   0.048  0.00  0.00    +0.007 A 
ATOM      9  C   UNL     1      -5.614  -6.454   0.170  0.00  0.00    +0.024 A 
ATOM     10  C   UNL     1      -5.031  -6.957   1.325  0.00  0.00    +0.035 A 
ATOM     11  C   UNL     1      -4.680  -6.094   2.354  0.00  0.00    +0.036 A 
ATOM     12  C   UNL     1      -4.906  -4.737   2.224  0.00  0.00    +0.061 A 
BRANCH  12  13
ATOM     13  C   UNL     1      -4.520  -3.799   3.338  0.00  0.00    +0.418 C 
ATOM     14  F   UNL     1      -3.950  -4.530   4.387  0.00  0.00    -0.166 F 
ATOM     15  F   UNL     1      -3.592  -2.866   2.862  0.00  0.00    -0.166 F 
ATOM     16  F   UNL     1      -5.658  -3.130   3.801  0.00  0.00    -0.166 F 
ENDBRANCH  12  13
BRANCH   7  17
ATOM     17  C   UNL     1      -5.743  -2.761   0.938  0.00  0.00    +0.120 C 
BRANCH  17  21
ATOM     18  N   UNL     1      -2.908  -0.355  -1.073  0.00  0.00    +0.381 N 
ATOM     19  C   UNL     1      -3.305   0.035   0.286  0.00  0.00    -0.063 C 
ATOM     20  C   UNL     1      -4.639  -0.626   0.638  0.00  0.00    +0.066 C 
ATOM     21  N   UNL     1      -4.497  -2.086   0.551  0.00  0.00    -0.302 NA
ATOM     22  C   UNL     1      -4.076  -2.490  -0.798  0.00  0.00    +0.066 C 
ATOM     23  C   UNL     1      -2.746  -1.813  -1.138  0.00  0.00    -0.063 C 
ATOM     24  H   UNL     1      -3.621  -0.067  -1.727  0.00  0.00    -0.082 HD
BRANCH  18  26
ATOM     25  C   UNL     1      -1.836   1.810  -1.472  0.00  0.00    -0.017 C 
ATOM     26  C   UNL     1      -1.637   0.294  -1.418  0.00  0.00    -0.082 C 
ENDBRANCH  18  26
ENDBRANCH  17  21
ENDBRANCH   7  17
ENDBRANCH   1  10
BRANCH   4  27
ATOM     27  C   UNL     1      -3.942 -11.155  -0.635  0.00  0.00    +0.035 A 
ATOM     28  C   UNL     1      -3.032 -10.615  -1.534  0.00  0.00    +0.027 A 
ATOM     29  C   UNL     1      -2.612 -11.356  -2.621  0.00  0.00    +0.048 A 
ATOM     30  C   UNL     1      -3.100 -12.641  -2.815  0.00  0.00    +0.130 A 
ATOM     31  C   UNL     1      -4.009 -13.181  -1.917  0.00  0.00    +0.048 A 
ATOM     32  C   UNL     1      -4.424 -12.443  -0.826  0.00  0.00    +0.027 A 
BRANCH  30  33
ATOM     33  O   UNL     1      -2.687 -13.370  -3.885  0.00  0.00    -0.438 OA
BRANCH  33  34
ATOM     34  C   UNL     1      -1.448 -13.917  -3.842  0.00  0.00    +0.225 A 
ATOM     35  C   UNL     1      -0.933 -14.584  -4.948  0.00  0.00    +0.111 A 
ATOM     36  C   UNL     1       0.345 -15.129  -4.854  0.00  0.00    +0.125 A 
ATOM     37  N   UNL     1       1.023 -14.991  -3.716  0.00  0.00    -0.221 NA
ATOM     38  C   UNL     1       0.500 -14.351  -2.691  0.00  0.00    +0.227 A 
ATOM     39  N   UNL     1      -0.704 -13.818  -2.744  0.00  0.00    -0.201 NA
BRANCH  36  40
ATOM     40  N   UNL     1       0.902 -15.804  -5.928  0.00  0.00    -0.332 N 
ATOM     41  C   UNL     1       0.146 -15.949  -7.174  0.00  0.00    +0.127 C 
ATOM     42  H   UNL     1       1.793 -16.180  -5.855  0.00  0.00    +0.147 HD
ENDBRANCH  36  40
ENDBRANCH  33  34
ENDBRANCH  30  33
ENDBRANCH   4  27
TORSDOF 9
