REMARK  Name = CHEMBL204985
REMARK  2 active torsions:
REMARK  status: ('A' for Active; 'I' for Inactive)
REMARK    1  A    between atoms: C_5  and  C_11
REMARK    2  A    between atoms: C_12  and  N_22
REMARK                            x       y       z     vdW  Elec       q    Type
REMARK                         _______ _______ _______ _____ _____    ______ ____
ROOT
ATOM      1  C   UNL     1      -5.902   0.430   0.042  0.00  0.00    +0.103 A 
ATOM      2  C   UNL     1      -6.652   1.603   0.142  0.00  0.00    +0.050 A 
ATOM      3  C   UNL     1      -8.115   1.486   0.135  0.00  0.00    +0.023 A 
ATOM      4  C   UNL     1      -8.948   2.605   0.230  0.00  0.00    +0.031 A 
ATOM      5  C   UNL     1     -10.313   2.412   0.215  0.00  0.00    +0.111 A 
ATOM      6  N   UNL     1     -10.832   1.201   0.115  0.00  0.00    -0.261 NA
ATOM      7  C   UNL     1     -10.091   0.117   0.022  0.00  0.00    +0.137 A 
ATOM      8  C   UNL     1      -8.703   0.212   0.028  0.00  0.00    +0.069 A 
ATOM      9  N   UNL     1      -7.905  -0.909  -0.068  0.00  0.00    -0.320 N 
ATOM     10  C   UNL     1      -6.564  -0.818  -0.068  0.00  0.00    +0.262 A 
ATOM     11  O   UNL     1      -5.900  -1.835  -0.160  0.00  0.00    -0.267 OA
ATOM     12  H   UNL     1      -8.321  -1.782  -0.140  0.00  0.00    +0.169 HD
ENDROOT
BRANCH   1  17
ATOM     13  C   UNL     1      -0.016   1.377   0.039  0.00  0.00    +0.022 A 
ATOM     14  C   UNL     1      -1.227   2.043   0.021  0.00  0.00    +0.033 A 
ATOM     15  C   UNL     1      -2.400   1.281   0.034  0.00  0.00    +0.108 A 
ATOM     16  N   UNL     1      -3.718   1.593   0.023  0.00  0.00    -0.226 NA
ATOM     17  C   UNL     1      -4.430   0.490   0.045  0.00  0.00    +0.147 A 
ATOM     18  N   UNL     1      -3.596  -0.598   0.071  0.00  0.00    -0.323 N 
ATOM     19  C   UNL     1      -2.300  -0.123   0.065  0.00  0.00    +0.158 A 
ATOM     20  N   UNL     1      -1.114  -0.709   0.082  0.00  0.00    -0.236 NA
ATOM     21  H   UNL     1      -3.867  -1.530   0.091  0.00  0.00    +0.169 HD
ATOM     22  C   UNL     1       0.002  -0.008   0.069  0.00  0.00    +0.113 A 
ENDBRANCH   1  17
BRANCH   2  23
ATOM     23  N   UNL     1      -6.040   2.828   0.245  0.00  0.00    -0.357 N 
ATOM     24  H   UNL     1      -5.076   2.897   0.170  0.00  0.00    +0.142 HD
ATOM     25  H   UNL     1      -6.573   3.625   0.393  0.00  0.00    +0.142 HD
ENDBRANCH   2  23
TORSDOF 2
