REMARK  Name = CHEMBL190980
REMARK  9 active torsions:
REMARK  status: ('A' for Active; 'I' for Inactive)
REMARK    1  A    between atoms: C_1  and  C_2
REMARK    2  A    between atoms: C_2  and  C_3
REMARK    3  A    between atoms: C_2  and  C_4
REMARK    4  A    between atoms: C_5  and  C_27
REMARK    5  A    between atoms: N_13  and  C_14
REMARK    6  A    between atoms: C_16  and  C_22
REMARK    7  A    between atoms: N_24  and  O_25
REMARK    8  A    between atoms: O_25  and  C_26
REMARK    9  A    between atoms: C_30  and  C_32
REMARK                            x       y       z     vdW  Elec       q    Type
REMARK                         _______ _______ _______ _____ _____    ______ ____
ROOT
ATOM      1  C   UNL     1      -1.472  -0.560  -0.000  0.00  0.00    -0.002 A 
ATOM      2  C   UNL     1      -2.371  -0.542   1.083  0.00  0.00    +0.062 A 
ATOM      3  C   UNL     1      -3.351  -1.483   0.819  0.00  0.00    +0.126 A 
ATOM      4  N   UNL     1      -3.086  -2.064  -0.363  0.00  0.00    -0.234 N 
ATOM      5  C   UNL     1      -1.935  -1.506  -0.889  0.00  0.00    +0.109 A 
ATOM      6  C   UNL     1      -1.472  -1.972  -2.144  0.00  0.00    +0.151 A 
ATOM      7  N   UNL     1      -2.152  -2.916  -2.773  0.00  0.00    -0.217 NA
ATOM      8  C   UNL     1      -3.261  -3.441  -2.255  0.00  0.00    +0.245 A 
ATOM      9  N   UNL     1      -3.737  -3.064  -1.100  0.00  0.00    -0.155 NA
ATOM     10  N   UNL     1      -0.326  -1.445  -2.704  0.00  0.00    -0.295 N 
ATOM     11  H   UNL     1       0.218  -0.820  -2.200  0.00  0.00    +0.154 HD
ENDROOT
BRANCH  10  12
ATOM     12  C   UNL     1       0.052  -1.812  -4.002  0.00  0.00    +0.069 A 
ATOM     13  C   UNL     1      -0.888  -2.336  -4.873  0.00  0.00    +0.042 A 
ATOM     14  C   UNL     1      -0.508  -2.701  -6.167  0.00  0.00    +0.076 A 
ATOM     15  C   UNL     1       0.820  -2.535  -6.574  0.00  0.00    +0.138 A 
ATOM     16  C   UNL     1       1.751  -2.011  -5.696  0.00  0.00    +0.079 A 
ATOM     17  C   UNL     1       1.371  -1.645  -4.417  0.00  0.00    +0.147 A 
ATOM     18  F   UNL     1       2.284  -1.129  -3.565  0.00  0.00    -0.203 F 
ATOM     19  F   UNL     1       1.193  -2.887  -7.824  0.00  0.00    -0.205 F 
BRANCH  14  20
ATOM     20  C   UNL     1      -1.504  -3.260  -7.101  0.00  0.00    +0.270 C 
ATOM     21  O   UNL     1      -1.171  -3.577  -8.227  0.00  0.00    -0.268 OA
ATOM     22  N   UNL     1      -2.783  -3.419  -6.707  0.00  0.00    -0.191 N 
ATOM     23  H   UNL     1      -3.048  -3.166  -5.809  0.00  0.00    +0.183 HD
BRANCH  22  24
ATOM     24  O   UNL     1      -3.739  -3.956  -7.603  0.00  0.00    -0.283 OA
ATOM     25  C   UNL     1      -5.053  -4.069  -7.052  0.00  0.00    +0.226 C 
ENDBRANCH  22  24
ENDBRANCH  14  20
ENDBRANCH  10  12
BRANCH   2  26
ATOM     26  C   UNL     1      -2.285   0.321   2.279  0.00  0.00    +0.250 A 
ATOM     27  N   UNL     1      -1.359   1.218   2.527  0.00  0.00    -0.107 NA
ATOM     28  N   UNL     1      -1.603   1.778   3.659  0.00  0.00    -0.112 NA
ATOM     29  C   UNL     1      -2.685   1.267   4.175  0.00  0.00    +0.221 A 
ATOM     30  O   UNL     1      -3.146   0.339   3.316  0.00  0.00    -0.420 OA
BRANCH  29  31
ATOM     31  C   UNL     1      -3.310   1.649   5.492  0.00  0.00    +0.077 C 
ATOM     32  C   UNL     1      -2.741   2.871   6.215  0.00  0.00    +0.013 C 
ATOM     33  C   UNL     1      -2.464   1.466   6.754  0.00  0.00    +0.013 C 
ENDBRANCH  29  31
ENDBRANCH   2  26
BRANCH   1  35
ATOM     34  C   UNL     1      -0.642   1.772  -0.152  0.00  0.00    +0.012 C 
ATOM     35  C   UNL     1      -0.241   0.295  -0.160  0.00  0.00    +0.016 C 
ATOM     36  C   UNL     1       0.723   0.022   0.996  0.00  0.00    +0.012 C 
ENDBRANCH   1  35
TORSDOF 6
