REMARK  Name = CHEMBL204985
REMARK  2 active torsions:
REMARK  status: ('A' for Active; 'I' for Inactive)
REMARK    1  A    between atoms: C_5  and  C_10
REMARK    2  A    between atoms: C_11  and  N_21
REMARK                            x       y       z     vdW  Elec       q    Type
REMARK                         _______ _______ _______ _____ _____    ______ ____
ROOT
ATOM      1  C   UNL     1      -5.888   0.268   0.021  0.00  0.00    +0.105 A 
ATOM      2  C   UNL     1      -6.474  -0.997  -0.070  0.00  0.00    +0.050 A 
ATOM      3  C   UNL     1      -7.940  -1.079  -0.045  0.00  0.00    +0.023 A 
ATOM      4  C   UNL     1      -8.614  -2.300  -0.130  0.00  0.00    +0.031 A 
ATOM      5  C   UNL     1      -9.993  -2.294  -0.099  0.00  0.00    +0.111 A 
ATOM      6  N   UNL     1     -10.670  -1.164   0.008  0.00  0.00    -0.261 NA
ATOM      7  C   UNL     1     -10.081   0.010   0.092  0.00  0.00    +0.137 A 
ATOM      8  C   UNL     1      -8.693   0.104   0.069  0.00  0.00    +0.069 A 
ATOM      9  N   UNL     1      -8.053   1.323   0.155  0.00  0.00    -0.320 N 
ATOM     10  C   UNL     1      -6.712   1.414   0.140  0.00  0.00    +0.262 A 
ATOM     11  O   UNL     1      -6.191   2.513   0.224  0.00  0.00    -0.267 OA
ATOM     12  H   UNL     1      -8.582   2.132   0.233  0.00  0.00    +0.169 HD
ENDROOT
BRANCH   1  17
ATOM     13  C   UNL     1      -0.018   1.386  -0.069  0.00  0.00    +0.022 A 
ATOM     14  C   UNL     1      -1.235   2.050  -0.069  0.00  0.00    +0.033 A 
ATOM     15  C   UNL     1      -2.396   1.292  -0.041  0.00  0.00    +0.110 A 
ATOM     16  N   UNL     1      -3.745   1.597  -0.031  0.00  0.00    -0.224 NA
ATOM     17  C   UNL     1      -4.423   0.407   0.001  0.00  0.00    +0.170 A 
ATOM     18  N   UNL     1      -3.567  -0.590   0.012  0.00  0.00    -0.206 NA
ATOM     19  C   UNL     1      -2.306  -0.112  -0.013  0.00  0.00    +0.180 A 
ATOM     20  N   UNL     1      -1.111  -0.700  -0.014  0.00  0.00    -0.234 NA
ATOM     21  C   UNL     1       0.002   0.002  -0.041  0.00  0.00    +0.113 A 
ENDBRANCH   1  17
BRANCH   2  22
ATOM     22  N   UNL     1      -5.704  -2.128  -0.180  0.00  0.00    -0.357 N 
ATOM     23  H   UNL     1      -4.739  -2.065  -0.115  0.00  0.00    +0.142 HD
ATOM     24  H   UNL     1      -6.126  -2.990  -0.324  0.00  0.00    +0.142 HD
ENDBRANCH   2  22
TORSDOF 2
