REMARK  Name = CHEMBL193306
REMARK  9 active torsions:
REMARK  status: ('A' for Active; 'I' for Inactive)
REMARK    1  A    between atoms: C_1  and  C_2
REMARK    2  A    between atoms: C_5  and  C_7
REMARK    3  A    between atoms: C_11  and  C_12
REMARK    4  A    between atoms: C_12  and  C_13
REMARK    5  A    between atoms: C_12  and  C_14
REMARK    6  A    between atoms: N_19  and  C_20
REMARK    7  A    between atoms: C_22  and  C_28
REMARK    8  A    between atoms: N_30  and  O_31
REMARK    9  A    between atoms: O_31  and  C_32
REMARK                            x       y       z     vdW  Elec       q    Type
REMARK                         _______ _______ _______ _____ _____    ______ ____
ROOT
ATOM      1  C   UNL     1       1.405  -3.131  -0.099  0.00  0.00    +0.061 A 
ATOM      2  C   UNL     1       2.720  -2.960  -0.495  0.00  0.00    +0.126 A 
ATOM      3  N   UNL     1       3.261  -4.167  -0.729  0.00  0.00    -0.234 N 
ATOM      4  C   UNL     1       2.309  -5.140  -0.488  0.00  0.00    +0.109 A 
ATOM      5  C   UNL     1       1.148  -4.515  -0.089  0.00  0.00    -0.002 A 
ATOM      6  C   UNL     1       2.670  -6.497  -0.672  0.00  0.00    +0.151 A 
ATOM      7  N   UNL     1       3.897  -6.791  -1.067  0.00  0.00    -0.217 NA
ATOM      8  C   UNL     1       4.803  -5.842  -1.295  0.00  0.00    +0.245 A 
ATOM      9  N   UNL     1       4.538  -4.574  -1.144  0.00  0.00    -0.155 NA
ATOM     10  N   UNL     1       1.751  -7.501  -0.443  0.00  0.00    -0.295 N 
ATOM     11  H   UNL     1       0.828  -7.278  -0.243  0.00  0.00    +0.154 HD
ENDROOT
BRANCH  10  12
ATOM     12  C   UNL     1       2.150  -8.842  -0.498  0.00  0.00    +0.069 A 
ATOM     13  C   UNL     1       3.487  -9.172  -0.354  0.00  0.00    +0.042 A 
ATOM     14  C   UNL     1       3.882 -10.511  -0.410  0.00  0.00    +0.076 A 
ATOM     15  C   UNL     1       2.924 -11.510  -0.611  0.00  0.00    +0.138 A 
ATOM     16  C   UNL     1       1.591 -11.170  -0.753  0.00  0.00    +0.079 A 
ATOM     17  C   UNL     1       1.202  -9.844  -0.692  0.00  0.00    +0.147 A 
ATOM     18  F   UNL     1      -0.103  -9.519  -0.827  0.00  0.00    -0.203 F 
ATOM     19  F   UNL     1       3.300 -12.807  -0.666  0.00  0.00    -0.205 F 
BRANCH  14  20
ATOM     20  C   UNL     1       5.305 -10.870  -0.258  0.00  0.00    +0.270 C 
ATOM     21  O   UNL     1       5.647 -12.036  -0.306  0.00  0.00    -0.268 OA
ATOM     22  N   UNL     1       6.226  -9.905  -0.064  0.00  0.00    -0.191 N 
ATOM     23  H   UNL     1       5.954  -8.975  -0.025  0.00  0.00    +0.183 HD
BRANCH  22  24
ATOM     24  O   UNL     1       7.592 -10.249   0.082  0.00  0.00    -0.283 OA
ATOM     25  C   UNL     1       8.456  -9.128   0.280  0.00  0.00    +0.226 C 
ENDBRANCH  22  24
ENDBRANCH  14  20
ENDBRANCH  10  12
BRANCH   1  30
ATOM     26  C   UNL     1      -0.588   1.393   0.754  0.00  0.00    +0.088 C 
ATOM     27  C   UNL     1      -0.412  -0.098   0.624  0.00  0.00    +0.123 A 
ATOM     28  C   UNL     1      -1.345  -1.034   0.869  0.00  0.00    +0.156 A 
ATOM     29  N   UNL     1      -0.793  -2.236   0.635  0.00  0.00    -0.217 NA
ATOM     30  C   UNL     1       0.450  -2.059   0.254  0.00  0.00    +0.229 A 
ATOM     31  O   UNL     1       0.708  -0.740   0.235  0.00  0.00    -0.440 OA
ENDBRANCH   1  30
BRANCH   5  32
ATOM     32  C   UNL     1      -0.150  -5.184   0.283  0.00  0.00    +0.016 C 
ATOM     33  C   UNL     1      -0.520  -4.816   1.721  0.00  0.00    +0.012 C 
ATOM     34  C   UNL     1      -1.256  -4.715  -0.664  0.00  0.00    +0.012 C 
ENDBRANCH   5  32
TORSDOF 5
