REMARK  Name = CHEMBL377346
REMARK  6 active torsions:
REMARK  status: ('A' for Active; 'I' for Inactive)
REMARK    1  A    between atoms: C_4  and  C_7
REMARK    2  A    between atoms: C_7  and  O_8
REMARK    3  A    between atoms: O_8  and  C_9
REMARK    4  A    between atoms: C_15  and  C_19
REMARK    5  A    between atoms: C_25  and  N_29
REMARK    6  A    between atoms: C_32  and  N_35
REMARK                            x       y       z     vdW  Elec       q    Type
REMARK                         _______ _______ _______ _____ _____    ______ ____
ROOT
ATOM      1  C   UNL     1       7.395  -2.810   5.479  0.00  0.00    +0.160 A 
ATOM      2  N   UNL     1       8.148  -3.207   6.551  0.00  0.00    -0.337 N 
ATOM      3  H   UNL     1       9.000  -3.669   6.517  0.00  0.00    +0.167 HD
ATOM      4  C   UNL     1       7.464  -2.828   7.694  0.00  0.00    +0.067 A 
ATOM      5  C   UNL     1       7.720  -2.954   9.052  0.00  0.00    +0.029 A 
ATOM      6  C   UNL     1       6.820  -2.459   9.970  0.00  0.00    +0.025 A 
ATOM      7  C   UNL     1       5.651  -1.831   9.545  0.00  0.00    +0.032 A 
ATOM      8  C   UNL     1       5.381  -1.697   8.196  0.00  0.00    +0.053 A 
ATOM      9  C   UNL     1       6.288  -2.195   7.255  0.00  0.00    +0.091 A 
ATOM     10  N   UNL     1       6.306  -2.211   5.899  0.00  0.00    -0.226 NA
ENDROOT
BRANCH   1  17
ATOM     11  C   UNL     1       5.277  -1.683   1.467  0.00  0.00    +0.122 A 
ATOM     12  C   UNL     1       6.004  -2.088   0.349  0.00  0.00    +0.048 A 
ATOM     13  C   UNL     1       7.197  -2.738   0.492  0.00  0.00    +0.031 A 
ATOM     14  C   UNL     1       7.700  -3.003   1.763  0.00  0.00    +0.067 A 
ATOM     15  C   UNL     1       6.972  -2.598   2.896  0.00  0.00    +0.034 A 
ATOM     16  C   UNL     1       5.756  -1.929   2.737  0.00  0.00    +0.058 A 
ATOM     17  C   UNL     1       7.757  -3.018   4.063  0.00  0.00    +0.135 A 
ATOM     18  N   UNL     1       8.840  -3.613   3.618  0.00  0.00    -0.170 NA
ATOM     19  N   UNL     1       8.838  -3.622   2.220  0.00  0.00    -0.276 N 
ATOM     20  H   UNL     1       9.531  -4.005   1.660  0.00  0.00    +0.189 HD
BRANCH  11  21
ATOM     21  O   UNL     1       4.091  -1.036   1.304  0.00  0.00    -0.487 OA
BRANCH  21  22
ATOM     22  C   UNL     1       3.653  -0.814  -0.037  0.00  0.00    +0.264 C 
BRANCH  22  26
ATOM     23  C   UNL     1      -0.095   1.236   0.010  0.00  0.00    +0.000 A 
ATOM     24  C   UNL     1       1.086   1.955  -0.011  0.00  0.00    +0.000 A 
ATOM     25  C   UNL     1       2.299   1.292  -0.025  0.00  0.00    +0.007 A 
ATOM     26  C   UNL     1       2.331  -0.090  -0.020  0.00  0.00    -0.010 A 
ATOM     27  C   UNL     1       1.150  -0.809   0.001  0.00  0.00    +0.007 A 
ATOM     28  C   UNL     1      -0.063  -0.146   0.015  0.00  0.00    +0.000 A 
ENDBRANCH  22  26
ENDBRANCH  21  22
ENDBRANCH  11  21
ENDBRANCH   1  17
BRANCH   7  29
ATOM     29  N   UNL     1       4.745  -1.334  10.488  0.00  0.00    -0.330 N 
ATOM     30  C   UNL     1       3.569  -0.563  10.062  0.00  0.00    +0.103 C 
ATOM     31  C   UNL     1       2.315  -1.203  10.667  0.00  0.00    +0.004 C 
ATOM     32  C   UNL     1       2.482  -1.309  12.184  0.00  0.00    -0.066 C 
ATOM     33  C   UNL     1       3.682  -2.201  12.506  0.00  0.00    +0.004 C 
ATOM     34  C   UNL     1       4.949  -1.578  11.922  0.00  0.00    +0.103 C 
BRANCH  32  35
ATOM     35  N   UNL     1       1.267  -1.891  12.771  0.00  0.00    +0.382 N 
ATOM     36  C   UNL     1       0.115  -1.038  12.455  0.00  0.00    -0.078 C 
ATOM     37  C   UNL     1      -1.164  -1.682  12.994  0.00  0.00    -0.019 C 
ATOM     38  C   UNL     1      -1.047  -1.844  14.512  0.00  0.00    -0.004 C 
ATOM     39  C   UNL     1       0.200  -2.673  14.833  0.00  0.00    -0.019 C 
ATOM     40  C   UNL     1       1.429  -1.992  14.226  0.00  0.00    -0.078 C 
ATOM     41  H   UNL     1       1.117  -2.812  12.385  0.00  0.00    -0.081 HD
ENDBRANCH  32  35
ENDBRANCH   7  29
TORSDOF 6
