REMARK  Name = CHEMBL526507
REMARK  7 active torsions:
REMARK  status: ('A' for Active; 'I' for Inactive)
REMARK    1  A    between atoms: C_1  and  N_2
REMARK    2  A    between atoms: N_5  and  C_8
REMARK    3  A    between atoms: C_15  and  C_18
REMARK    4  A    between atoms: C_19  and  N_40
REMARK    5  A    between atoms: C_22  and  C_30
REMARK    6  A    between atoms: N_32  and  C_33
REMARK    7  A    between atoms: C_33  and  C_34
REMARK                            x       y       z     vdW  Elec       q    Type
REMARK                         _______ _______ _______ _____ _____    ______ ____
ROOT
ATOM      1  C   UNL     1      -0.611  -8.002   5.731  0.00  0.00    +0.103 A 
ATOM      2  C   UNL     1       0.581  -7.968   6.457  0.00  0.00    +0.050 A 
ATOM      3  C   UNL     1       0.780  -8.977   7.507  0.00  0.00    +0.021 A 
ATOM      4  C   UNL     1       1.948  -8.998   8.268  0.00  0.00    +0.024 A 
ATOM      5  C   UNL     1       2.103  -9.967   9.255  0.00  0.00    +0.037 A 
ATOM      6  C   UNL     1       1.090 -10.910   9.477  0.00  0.00    +0.015 A 
ATOM      7  C   UNL     1      -0.054 -10.891   8.733  0.00  0.00    +0.027 A 
ATOM      8  C   UNL     1      -0.230  -9.930   7.740  0.00  0.00    +0.051 A 
ATOM      9  N   UNL     1      -1.384  -9.906   6.987  0.00  0.00    -0.321 N 
ATOM     10  H   UNL     1      -2.072 -10.568   7.157  0.00  0.00    +0.169 HD
ATOM     11  C   UNL     1      -1.582  -8.988   6.028  0.00  0.00    +0.262 A 
ATOM     12  O   UNL     1      -2.622  -9.007   5.393  0.00  0.00    -0.267 OA
ENDROOT
BRANCH   1  20
ATOM     13  C   UNL     1      -0.898  -3.746   1.527  0.00  0.00    +0.032 A 
ATOM     14  C   UNL     1      -2.198  -4.216   1.348  0.00  0.00    +0.025 A 
ATOM     15  C   UNL     1      -2.675  -5.258   2.114  0.00  0.00    +0.029 A 
ATOM     16  C   UNL     1      -1.858  -5.845   3.070  0.00  0.00    +0.067 A 
ATOM     17  C   UNL     1      -0.546  -5.379   3.257  0.00  0.00    +0.091 A 
ATOM     18  C   UNL     1      -0.070  -4.324   2.470  0.00  0.00    +0.053 A 
ATOM     19  N   UNL     1       0.011  -6.128   4.241  0.00  0.00    -0.227 NA
ATOM     20  C   UNL     1      -0.860  -7.014   4.668  0.00  0.00    +0.146 A 
ATOM     21  N   UNL     1      -2.033  -6.880   3.974  0.00  0.00    -0.338 N 
ATOM     22  H   UNL     1      -2.837  -7.411   4.094  0.00  0.00    +0.167 HD
BRANCH  13  27
ATOM     23  C   UNL     1       1.636  -1.156  -2.576  0.00  0.00    +0.105 C 
ATOM     24  N   UNL     1       0.862  -1.367  -1.345  0.00  0.00    -0.302 NA
ATOM     25  C   UNL     1       1.670  -2.053  -0.328  0.00  0.00    +0.103 C 
ATOM     26  C   UNL     1       0.894  -2.092   0.993  0.00  0.00    +0.120 C 
ATOM     27  N   UNL     1      -0.427  -2.688   0.742  0.00  0.00    -0.327 N 
ATOM     28  C   UNL     1      -1.239  -2.141  -0.355  0.00  0.00    +0.120 C 
ATOM     29  C   UNL     1      -0.380  -2.100  -1.623  0.00  0.00    +0.103 C 
ENDBRANCH  13  27
ENDBRANCH   1  20
BRANCH   5  30
ATOM     30  C   UNL     1       3.334 -10.002  10.069  0.00  0.00    +0.244 C 
ATOM     31  O   UNL     1       4.213  -9.184   9.876  0.00  0.00    -0.270 OA
ATOM     32  N   UNL     1       3.485 -10.940  11.024  0.00  0.00    -0.307 N 
ATOM     33  H   UNL     1       2.783 -11.593  11.178  0.00  0.00    +0.149 HD
BRANCH  32  34
ATOM     34  C   UNL     1       4.707 -10.975  11.831  0.00  0.00    +0.139 C 
BRANCH  34  35
ATOM     35  C   UNL     1       4.624 -12.110  12.820  0.00  0.00    -0.030 A 
ATOM     36  C   UNL     1       4.074 -11.898  14.070  0.00  0.00    +0.005 A 
ATOM     37  C   UNL     1       3.998 -12.939  14.977  0.00  0.00    +0.000 A 
ATOM     38  C   UNL     1       4.472 -14.191  14.633  0.00  0.00    +0.000 A 
ATOM     39  C   UNL     1       5.021 -14.403  13.382  0.00  0.00    +0.000 A 
ATOM     40  C   UNL     1       5.093 -13.363  12.474  0.00  0.00    +0.005 A 
ENDBRANCH  34  35
ENDBRANCH  32  34
ENDBRANCH   5  30
BRANCH   2  41
ATOM     41  N   UNL     1       1.541  -7.021   6.196  0.00  0.00    -0.357 N 
ATOM     42  H   UNL     1       1.363  -6.313   5.557  0.00  0.00    +0.142 HD
ATOM     43  H   UNL     1       2.396  -7.059   6.651  0.00  0.00    +0.142 HD
ENDBRANCH   2  41
TORSDOF 6
