REMARK  Name = CHEMBL502835
REMARK  11 active torsions:
REMARK  status: ('A' for Active; 'I' for Inactive)
REMARK    1  A    between atoms: C_1  and  N_2
REMARK    2  A    between atoms: N_5  and  C_8
REMARK    3  A    between atoms: C_8  and  C_9
REMARK    4  A    between atoms: N_11  and  C_12
REMARK    5  A    between atoms: N_11  and  C_13
REMARK    6  A    between atoms: C_16  and  N_19
REMARK    7  A    between atoms: N_19  and  C_20
REMARK    8  A    between atoms: C_20  and  C_35
REMARK    9  A    between atoms: C_25  and  C_31
REMARK   10  A    between atoms: C_31  and  O_33
REMARK   11  A    between atoms: O_33  and  C_34
REMARK                            x       y       z     vdW  Elec       q    Type
REMARK                         _______ _______ _______ _____ _____    ______ ____
ROOT
ATOM      1  C   UNL     1       2.338  -9.225   7.610  0.00  0.00    +0.051 C 
ATOM      2  C   UNL     1       1.976  -9.938   8.749  0.00  0.00    +0.068 C 
ATOM      3  C   UNL     1       1.143  -9.462   9.870  0.00  0.00    +0.010 A 
ATOM      4  C   UNL     1       0.501  -8.256  10.143  0.00  0.00    +0.011 A 
ATOM      5  C   UNL     1      -0.216  -8.109  11.295  0.00  0.00    +0.016 A 
ATOM      6  C   UNL     1      -0.309  -9.169  12.206  0.00  0.00    +0.061 A 
ATOM      7  C   UNL     1       0.331 -10.382  11.941  0.00  0.00    +0.039 A 
ATOM      8  C   UNL     1       1.059 -10.535  10.774  0.00  0.00    +0.042 A 
ATOM      9  N   UNL     1       1.786 -11.600  10.255  0.00  0.00    -0.281 N 
ATOM     10  C   UNL     1       2.326 -11.277   9.068  0.00  0.00    +0.251 C 
ATOM     11  O   UNL     1       3.009 -12.014   8.378  0.00  0.00    -0.270 OA
ATOM     12  H   UNL     1       1.885 -12.461  10.689  0.00  0.00    +0.155 HD
ENDROOT
BRANCH   1  13
ATOM     13  C   UNL     1       3.059  -9.900   6.515  0.00  0.00    -0.003 A 
ATOM     14  C   UNL     1       4.218  -9.329   5.980  0.00  0.00    +0.010 A 
ATOM     15  C   UNL     1       4.886  -9.966   4.956  0.00  0.00    +0.001 A 
ATOM     16  C   UNL     1       4.413 -11.168   4.458  0.00  0.00    +0.000 A 
ATOM     17  C   UNL     1       3.267 -11.739   4.983  0.00  0.00    +0.001 A 
ATOM     18  C   UNL     1       2.591 -11.116   6.011  0.00  0.00    +0.010 A 
ENDBRANCH   1  13
BRANCH   1  19
ATOM     19  N   UNL     1       2.026  -7.895   7.507  0.00  0.00    -0.313 N 
ATOM     20  H   UNL     1       2.345  -7.269   8.175  0.00  0.00    +0.152 HD
BRANCH  19  24
ATOM     21  C   UNL     1      -0.297  -6.542   4.322  0.00  0.00    +0.036 A 
ATOM     22  C   UNL     1       0.294  -5.630   5.187  0.00  0.00    +0.025 A 
ATOM     23  C   UNL     1       1.063  -6.078   6.242  0.00  0.00    +0.025 A 
ATOM     24  C   UNL     1       1.246  -7.441   6.439  0.00  0.00    +0.031 A 
ATOM     25  C   UNL     1       0.654  -8.353   5.574  0.00  0.00    +0.025 A 
ATOM     26  C   UNL     1      -0.119  -7.905   4.522  0.00  0.00    +0.025 A 
BRANCH  21  29
ATOM     27  C   UNL     1      -0.502  -5.411   2.238  0.00  0.00    +0.234 C 
ATOM     28  O   UNL     1       0.673  -5.115   2.296  0.00  0.00    -0.274 OA
ATOM     29  N   UNL     1      -1.077  -6.087   3.252  0.00  0.00    -0.273 N 
ATOM     30  C   UNL     1      -2.519  -6.347   3.234  0.00  0.00    +0.138 C 
BRANCH  27  31
ATOM     31  C   UNL     1      -1.318  -5.022   1.032  0.00  0.00    +0.180 C 
BRANCH  31  36
ATOM     32  C   UNL     1       1.523  -3.050  -3.416  0.00  0.00    -0.096 C 
ATOM     33  N   UNL     1       0.657  -3.806  -2.502  0.00  0.00    +0.379 N 
ATOM     34  C   UNL     1      -0.358  -2.908  -1.934  0.00  0.00    -0.064 C 
ATOM     35  C   UNL     1      -1.272  -3.700  -0.996  0.00  0.00    +0.066 C 
ATOM     36  N   UNL     1      -0.467  -4.300   0.077  0.00  0.00    -0.298 NA
ATOM     37  C   UNL     1       0.569  -5.182  -0.478  0.00  0.00    +0.066 C 
ATOM     38  C   UNL     1       1.468  -4.378  -1.420  0.00  0.00    -0.064 C 
ATOM     39  H   UNL     1       0.201  -4.550  -3.010  0.00  0.00    -0.082 HD
ENDBRANCH  31  36
ENDBRANCH  27  31
ENDBRANCH  21  29
ENDBRANCH  19  24
ENDBRANCH   1  19
BRANCH   6  40
ATOM     40  C   UNL     1      -1.085  -9.003  13.448  0.00  0.00    +0.339 C 
ATOM     41  O   UNL     1      -1.167  -9.921  14.240  0.00  0.00    -0.245 OA
BRANCH  40  42
ATOM     42  O   UNL     1      -1.703  -7.834  13.706  0.00  0.00    -0.464 OA
ATOM     43  C   UNL     1      -2.437  -7.744  14.929  0.00  0.00    +0.280 C 
ENDBRANCH  40  42
ENDBRANCH   6  40
TORSDOF 8
