REMARK  Name = CHEMBL107676
REMARK  11 active torsions:
REMARK  status: ('A' for Active; 'I' for Inactive)
REMARK    1  A    between atoms: C_1  and  C_2
REMARK    2  A    between atoms: C_2  and  N_3
REMARK    3  A    between atoms: N_3  and  C_4
REMARK    4  A    between atoms: N_3  and  C_6
REMARK    5  A    between atoms: C_4  and  C_5
REMARK    6  A    between atoms: C_6  and  C_7
REMARK    7  A    between atoms: C_7  and  C_8
REMARK    8  A    between atoms: C_8  and  C_9
REMARK    9  A    between atoms: C_9  and  N_10
REMARK   10  A    between atoms: C_16  and  C_21
REMARK   11  A    between atoms: N_19  and  C_20
REMARK                            x       y       z     vdW  Elec       q    Type
REMARK                         _______ _______ _______ _____ _____    ______ ____
ROOT
ATOM      1  N   UNL     1       3.531  -5.252  -1.722  0.00  0.00    -0.329 N 
ATOM      2  C   UNL     1       4.298  -5.703  -2.786  0.00  0.00    +0.121 A 
ATOM      3  C   UNL     1       4.749  -4.795  -3.733  0.00  0.00    +0.070 A 
ATOM      4  C   UNL     1       5.518  -5.257  -4.794  0.00  0.00    +0.056 A 
ATOM      5  C   UNL     1       5.806  -6.638  -4.861  0.00  0.00    +0.018 A 
ATOM      6  C   UNL     1       6.585  -7.146  -5.927  0.00  0.00    +0.025 A 
ATOM      7  C   UNL     1       7.049  -6.284  -6.883  0.00  0.00    +0.050 A 
ATOM      8  C   UNL     1       6.732  -4.857  -6.784  0.00  0.00    +0.259 A 
ATOM      9  O   UNL     1       7.142  -4.085  -7.631  0.00  0.00    -0.267 OA
ATOM     10  N   UNL     1       5.988  -4.396  -5.759  0.00  0.00    -0.311 N 
ATOM     11  C   UNL     1       5.677  -2.967  -5.672  0.00  0.00    +0.152 C 
ATOM     12  C   UNL     1       5.311  -7.485  -3.862  0.00  0.00    +0.122 A 
ATOM     13  N   UNL     1       4.591  -6.996  -2.875  0.00  0.00    -0.240 NA
ATOM     14  H   UNL     1       3.214  -5.878  -1.052  0.00  0.00    +0.147 HD
ENDROOT
BRANCH   7  15
ATOM     15  C   UNL     1       7.867  -6.789  -8.009  0.00  0.00    +0.024 A 
ATOM     16  C   UNL     1       9.256  -6.855  -7.892  0.00  0.00    +0.050 A 
ATOM     17  C   UNL     1      10.013  -7.328  -8.947  0.00  0.00    +0.021 A 
ATOM     18  C   UNL     1       9.398  -7.735 -10.116  0.00  0.00    +0.003 A 
ATOM     19  C   UNL     1       8.021  -7.672 -10.239  0.00  0.00    +0.021 A 
ATOM     20  C   UNL     1       7.252  -7.207  -9.190  0.00  0.00    +0.050 A 
ATOM     21 CL   UNL     1       5.524  -7.135  -9.344  0.00  0.00    -0.083 Cl
ATOM     22 CL   UNL     1      10.031  -6.344  -6.425  0.00  0.00    -0.083 Cl
ENDBRANCH   7  15
BRANCH   1  23
ATOM     23  C   UNL     1       3.199  -3.829  -1.609  0.00  0.00    +0.103 C 
BRANCH  23  24
ATOM     24  C   UNL     1       2.351  -3.601  -0.357  0.00  0.00    +0.017 C 
BRANCH  24  25
ATOM     25  C   UNL     1       2.004  -2.115  -0.240  0.00  0.00    -0.017 C 
BRANCH  25  26
ATOM     26  C   UNL     1       1.156  -1.887   1.013  0.00  0.00    -0.079 C 
BRANCH  26  27
ATOM     27  N   UNL     1       0.823  -0.461   1.126  0.00  0.00    +0.379 N 
ATOM     28  H   UNL     1       1.671   0.085   1.109  0.00  0.00    -0.082 HD
BRANCH  27  30
ATOM     29  C   UNL     1      -0.264   1.445   0.037  0.00  0.00    -0.017 C 
ATOM     30  C   UNL     1      -0.034  -0.067  -0.001  0.00  0.00    -0.082 C 
ENDBRANCH  27  30
BRANCH  27  31
ATOM     31  C   UNL     1       0.111  -0.222   2.389  0.00  0.00    -0.082 C 
ATOM     32  C   UNL     1       1.053  -0.495   3.563  0.00  0.00    -0.017 C 
ENDBRANCH  27  31
ENDBRANCH  26  27
ENDBRANCH  25  26
ENDBRANCH  24  25
ENDBRANCH  23  24
ENDBRANCH   1  23
TORSDOF 8
