REMARK  Name = CHEMBL209704
REMARK  6 active torsions:
REMARK  status: ('A' for Active; 'I' for Inactive)
REMARK    1  A    between atoms: C_4  and  C_7
REMARK    2  A    between atoms: C_7  and  O_8
REMARK    3  A    between atoms: O_8  and  C_9
REMARK    4  A    between atoms: C_18  and  C_19
REMARK    5  A    between atoms: C_24  and  N_28
REMARK    6  A    between atoms: C_31  and  N_34
REMARK                            x       y       z     vdW  Elec       q    Type
REMARK                         _______ _______ _______ _____ _____    ______ ____
ROOT
ATOM      1  C   UNL     1       9.985  -4.239   1.452  0.00  0.00    +0.160 A 
ATOM      2  N   UNL     1      10.027  -4.229   0.141  0.00  0.00    -0.226 NA
ATOM      3  C   UNL     1      11.153  -4.855  -0.284  0.00  0.00    +0.090 A 
ATOM      4  C   UNL     1      11.681  -5.121  -1.552  0.00  0.00    +0.032 A 
ATOM      5  C   UNL     1      12.866  -5.788  -1.671  0.00  0.00    +0.025 A 
ATOM      6  C   UNL     1      13.560  -6.209  -0.538  0.00  0.00    +0.032 A 
ATOM      7  C   UNL     1      13.054  -5.956   0.726  0.00  0.00    +0.051 A 
ATOM      8  C   UNL     1      11.851  -5.279   0.861  0.00  0.00    +0.068 A 
ATOM      9  N   UNL     1      11.096  -4.873   1.945  0.00  0.00    -0.337 N 
ATOM     10  H   UNL     1      11.311  -5.013   2.881  0.00  0.00    +0.167 HD
ENDROOT
BRANCH   1  20
ATOM     11  C   UNL     1       5.311  -1.618   1.466  0.00  0.00    +0.123 A 
ATOM     12  C   UNL     1       6.046  -2.007   0.347  0.00  0.00    +0.046 A 
ATOM     13  C   UNL     1       7.229  -2.672   0.492  0.00  0.00    +0.016 A 
ATOM     14  C   UNL     1       7.709  -2.968   1.770  0.00  0.00    +0.031 A 
ATOM     15  C   UNL     1       6.973  -2.579   2.903  0.00  0.00    +0.070 A 
ATOM     16  C   UNL     1       5.771  -1.895   2.738  0.00  0.00    +0.073 A 
ATOM     17  N   UNL     1       7.679  -2.998   4.002  0.00  0.00    -0.276 N 
ATOM     18  N   UNL     1       8.847  -3.644   3.583  0.00  0.00    -0.170 NA
ATOM     19  H   UNL     1       7.411  -2.867   4.925  0.00  0.00    +0.189 HD
ATOM     20  C   UNL     1       8.908  -3.651   2.272  0.00  0.00    +0.135 A 
BRANCH  11  21
ATOM     21  O   UNL     1       4.136  -0.956   1.304  0.00  0.00    -0.487 OA
BRANCH  21  22
ATOM     22  C   UNL     1       3.716  -0.699  -0.038  0.00  0.00    +0.264 C 
BRANCH  22  26
ATOM     23  C   UNL     1      -0.010   1.391   0.009  0.00  0.00    +0.000 A 
ATOM     24  C   UNL     1       1.179   2.096   0.018  0.00  0.00    +0.000 A 
ATOM     25  C   UNL     1       2.385   1.420   0.003  0.00  0.00    +0.007 A 
ATOM     26  C   UNL     1       2.401   0.038  -0.021  0.00  0.00    -0.010 A 
ATOM     27  C   UNL     1       1.213  -0.668  -0.029  0.00  0.00    +0.007 A 
ATOM     28  C   UNL     1       0.007   0.009  -0.015  0.00  0.00    +0.000 A 
ENDBRANCH  22  26
ENDBRANCH  21  22
ENDBRANCH  11  21
ENDBRANCH   1  20
BRANCH   6  29
ATOM     29  N   UNL     1      14.773  -6.891  -0.678  0.00  0.00    -0.330 N 
ATOM     30  C   UNL     1      15.578  -7.236   0.501  0.00  0.00    +0.103 C 
ATOM     31  C   UNL     1      15.873  -8.739   0.474  0.00  0.00    +0.004 C 
ATOM     32  C   UNL     1      16.526  -9.102  -0.862  0.00  0.00    -0.066 C 
ATOM     33  C   UNL     1      15.564  -8.778  -2.007  0.00  0.00    +0.004 C 
ATOM     34  C   UNL     1      15.263  -7.281  -2.007  0.00  0.00    +0.103 C 
BRANCH  32  35
ATOM     35  N   UNL     1      16.841 -10.537  -0.878  0.00  0.00    +0.382 N 
ATOM     36  C   UNL     1      17.758 -10.848   0.225  0.00  0.00    -0.078 C 
ATOM     37  C   UNL     1      18.025 -12.354   0.262  0.00  0.00    -0.019 C 
ATOM     38  C   UNL     1      18.655 -12.788  -1.065  0.00  0.00    -0.004 C 
ATOM     39  C   UNL     1      17.724 -12.392  -2.215  0.00  0.00    -0.019 C 
ATOM     40  C   UNL     1      17.467 -10.885  -2.160  0.00  0.00    -0.078 C 
ATOM     41  H   UNL     1      15.991 -11.069  -0.766  0.00  0.00    -0.081 HD
ENDBRANCH  32  35
ENDBRANCH   6  29
TORSDOF 6
