REMARK  Name = CHEMBL320382
REMARK  8 active torsions:
REMARK  status: ('A' for Active; 'I' for Inactive)
REMARK    1  A    between atoms: C_1  and  N_2
REMARK    2  A    between atoms: C_5  and  N_21
REMARK    3  A    between atoms: C_10  and  C_13
REMARK    4  A    between atoms: N_21  and  C_22
REMARK    5  A    between atoms: C_22  and  C_23
REMARK    6  A    between atoms: C_23  and  C_24
REMARK    7  A    between atoms: C_24  and  C_25
REMARK    8  A    between atoms: C_25  and  N_26
REMARK                            x       y       z     vdW  Elec       q    Type
REMARK                         _______ _______ _______ _____ _____    ______ ____
ROOT
ATOM      1  C   UNL     1      -0.018   1.461   0.010  0.00  0.00    +0.152 C 
ATOM      2  N   UNL     1       0.002  -0.004   0.002  0.00  0.00    -0.311 N 
ATOM      3  C   UNL     1      -1.183  -0.703   0.004  0.00  0.00    +0.056 A 
ATOM      4  C   UNL     1      -2.406  -0.041   0.013  0.00  0.00    +0.070 A 
ATOM      5  C   UNL     1      -3.573  -0.791   0.014  0.00  0.00    +0.121 A 
ATOM      6  N   UNL     1      -3.541  -2.119   0.006  0.00  0.00    -0.240 NA
ATOM      7  C   UNL     1      -2.411  -2.792  -0.003  0.00  0.00    +0.122 A 
ATOM      8  C   UNL     1      -1.185  -2.115  -0.004  0.00  0.00    +0.018 A 
ATOM      9  C   UNL     1       0.040  -2.823  -0.013  0.00  0.00    +0.025 A 
ATOM     10  C   UNL     1       1.214  -2.121  -0.014  0.00  0.00    +0.050 A 
ATOM     11  C   UNL     1       1.181  -0.656  -0.013  0.00  0.00    +0.259 A 
ATOM     12  O   UNL     1       2.223  -0.026  -0.019  0.00  0.00    -0.267 OA
ENDROOT
BRANCH  10  13
ATOM     13  C   UNL     1       2.511  -2.837  -0.024  0.00  0.00    +0.024 A 
ATOM     14  C   UNL     1       3.127  -3.188   1.178  0.00  0.00    +0.050 A 
ATOM     15  C   UNL     1       4.335  -3.856   1.162  0.00  0.00    +0.021 A 
ATOM     16  C   UNL     1       4.936  -4.176  -0.042  0.00  0.00    +0.003 A 
ATOM     17  C   UNL     1       4.331  -3.832  -1.237  0.00  0.00    +0.021 A 
ATOM     18  C   UNL     1       3.119  -3.169  -1.235  0.00  0.00    +0.050 A 
ATOM     19 CL   UNL     1       2.358  -2.744  -2.736  0.00  0.00    -0.083 Cl
ATOM     20 CL   UNL     1       2.375  -2.785   2.690  0.00  0.00    -0.083 Cl
ENDBRANCH  10  13
BRANCH   5  21
ATOM     21  N   UNL     1      -4.799  -0.141   0.024  0.00  0.00    -0.329 N 
ATOM     22  H   UNL     1      -5.621  -0.656   0.025  0.00  0.00    +0.147 HD
BRANCH  21  23
ATOM     23  C   UNL     1      -4.851   1.323   0.033  0.00  0.00    +0.103 C 
BRANCH  23  24
ATOM     24  C   UNL     1      -6.311   1.781   0.043  0.00  0.00    +0.020 C 
BRANCH  24  25
ATOM     25  C   UNL     1      -6.366   3.310   0.052  0.00  0.00    +0.017 C 
BRANCH  25  26
ATOM     26  C   UNL     1      -7.826   3.768   0.062  0.00  0.00    +0.084 C 
BRANCH  26  27
ATOM     27  N   UNL     1      -7.878   5.236   0.071  0.00  0.00    -0.298 NA
ATOM     28  C   UNL     1      -7.341   5.775   1.329  0.00  0.00    +0.112 C 
ATOM     29  C   UNL     1      -7.360   7.305   1.272  0.00  0.00    +0.175 C 
ATOM     30  O   UNL     1      -8.694   7.751   1.018  0.00  0.00    -0.377 OA
ATOM     31  C   UNL     1      -9.248   7.246  -0.200  0.00  0.00    +0.175 C 
ATOM     32  C   UNL     1      -9.249   5.716  -0.158  0.00  0.00    +0.112 C 
ENDBRANCH  26  27
ENDBRANCH  25  26
ENDBRANCH  24  25
ENDBRANCH  23  24
ENDBRANCH  21  23
ENDBRANCH   5  21
TORSDOF 7
