REMARK  Name = CHEMBL204524
REMARK  3 active torsions:
REMARK  status: ('A' for Active; 'I' for Inactive)
REMARK    1  A    between atoms: C_1  and  N_2
REMARK    2  A    between atoms: C_15  and  C_18
REMARK    3  A    between atoms: C_19  and  N_29
REMARK                            x       y       z     vdW  Elec       q    Type
REMARK                         _______ _______ _______ _____ _____    ______ ____
ROOT
ATOM      1  C   UNL     1       1.006   0.473  -0.937  0.00  0.00    -0.096 C 
ATOM      2  N   UNL     1       0.885  -0.988  -0.851  0.00  0.00    +0.380 N 
ATOM      3  C   UNL     1      -0.535  -1.358  -0.801  0.00  0.00    -0.060 C 
ATOM      4  C   UNL     1      -0.666  -2.884  -0.826  0.00  0.00    +0.088 C 
ATOM      5  N   UNL     1       0.144  -3.440   0.268  0.00  0.00    -0.319 N 
ATOM      6  C   UNL     1       1.541  -2.995   0.391  0.00  0.00    +0.088 C 
ATOM      7  C   UNL     1       1.568  -1.464   0.359  0.00  0.00    -0.060 C 
ATOM      8  C   UNL     1      -0.395  -4.360   1.162  0.00  0.00    +0.124 A 
ATOM      9  C   UNL     1      -1.639  -4.927   0.892  0.00  0.00    +0.046 A 
ATOM     10  C   UNL     1      -2.175  -5.842   1.780  0.00  0.00    +0.033 A 
ATOM     11  C   UNL     1      -1.445  -6.163   2.918  0.00  0.00    +0.086 A 
ATOM     12  C   UNL     1      -0.196  -5.557   3.135  0.00  0.00    +0.180 A 
ATOM     13  N   UNL     1       0.284  -4.683   2.248  0.00  0.00    -0.211 NA
ATOM     14  N   UNL     1       0.285  -6.043   4.297  0.00  0.00    -0.208 NA
ATOM     15  C   UNL     1      -0.569  -6.900   4.811  0.00  0.00    +0.148 A 
ATOM     16  N   UNL     1      -1.661  -7.009   3.992  0.00  0.00    -0.336 N 
ATOM     17  H   UNL     1      -2.437  -7.572   4.137  0.00  0.00    +0.167 HD
ATOM     18  H   UNL     1       1.311  -1.409  -1.663  0.00  0.00    -0.082 HD
ENDROOT
BRANCH  15  19
ATOM     19  C   UNL     1      -0.381  -7.630   6.075  0.00  0.00    +0.103 A 
ATOM     20  C   UNL     1       0.702  -7.331   6.905  0.00  0.00    +0.050 A 
ATOM     21  C   UNL     1       0.845  -8.088   8.155  0.00  0.00    +0.020 A 
ATOM     22  C   UNL     1       1.906  -7.838   9.031  0.00  0.00    +0.012 A 
ATOM     23  C   UNL     1       2.014  -8.557  10.188  0.00  0.00    +0.001 A 
ATOM     24  C   UNL     1       1.079  -9.534  10.500  0.00  0.00    +0.002 A 
ATOM     25  C   UNL     1       0.026  -9.797   9.650  0.00  0.00    +0.026 A 
ATOM     26  C   UNL     1      -0.104  -9.077   8.467  0.00  0.00    +0.051 A 
ATOM     27  N   UNL     1      -1.153  -9.324   7.604  0.00  0.00    -0.321 N 
ATOM     28  C   UNL     1      -1.300  -8.636   6.460  0.00  0.00    +0.262 A 
ATOM     29  O   UNL     1      -2.245  -8.887   5.732  0.00  0.00    -0.267 OA
ATOM     30  H   UNL     1      -1.801 -10.009   7.831  0.00  0.00    +0.169 HD
BRANCH  20  31
ATOM     31  N   UNL     1       1.607  -6.356   6.562  0.00  0.00    -0.357 N 
ATOM     32  H   UNL     1       1.389  -5.716   5.867  0.00  0.00    +0.142 HD
ATOM     33  H   UNL     1       2.463  -6.309   7.014  0.00  0.00    +0.142 HD
ENDBRANCH  20  31
ENDBRANCH  15  19
TORSDOF 2
