REMARK  Name = CHEMBL377230
REMARK  4 active torsions:
REMARK  status: ('A' for Active; 'I' for Inactive)
REMARK    1  A    between atoms: C_6  and  C_7
REMARK    2  A    between atoms: C_14  and  C_15
REMARK    3  A    between atoms: C_20  and  N_24
REMARK    4  A    between atoms: C_27  and  N_30
REMARK                            x       y       z     vdW  Elec       q    Type
REMARK                         _______ _______ _______ _____ _____    ______ ____
ROOT
ATOM      1  C   UNL     1      -4.336   3.138   0.062  0.00  0.00    +0.160 A 
ATOM      2  N   UNL     1      -3.596   4.221   0.040  0.00  0.00    -0.226 NA
ATOM      3  C   UNL     1      -4.393   5.318   0.047  0.00  0.00    +0.090 A 
ATOM      4  C   UNL     1      -4.133   6.692   0.032  0.00  0.00    +0.032 A 
ATOM      5  C   UNL     1      -5.167   7.583   0.045  0.00  0.00    +0.025 A 
ATOM      6  C   UNL     1      -6.487   7.137   0.073  0.00  0.00    +0.032 A 
ATOM      7  C   UNL     1      -6.767   5.780   0.089  0.00  0.00    +0.051 A 
ATOM      8  C   UNL     1      -5.724   4.864   0.076  0.00  0.00    +0.068 A 
ATOM      9  N   UNL     1      -5.662   3.484   0.080  0.00  0.00    -0.337 N 
ATOM     10  H   UNL     1      -6.417   2.874   0.094  0.00  0.00    +0.167 HD
ENDROOT
BRANCH   1  20
ATOM     11  C   UNL     1      -0.017   1.385   0.010  0.00  0.00    +0.013 A 
ATOM     12  C   UNL     1      -1.202   2.064   0.023  0.00  0.00    +0.013 A 
ATOM     13  C   UNL     1      -2.406   1.357   0.044  0.00  0.00    +0.030 A 
ATOM     14  C   UNL     1      -2.392  -0.049   0.051  0.00  0.00    +0.067 A 
ATOM     15  C   UNL     1      -1.172  -0.721   0.037  0.00  0.00    +0.040 A 
ATOM     16  C   UNL     1       0.002  -0.004   0.017  0.00  0.00    +0.057 A 
ATOM     17  N   UNL     1      -3.700  -0.462   0.072  0.00  0.00    -0.276 N 
ATOM     18  N   UNL     1      -4.538   0.657   0.078  0.00  0.00    -0.170 NA
ATOM     19  H   UNL     1      -3.997  -1.385   0.081  0.00  0.00    +0.189 HD
ATOM     20  C   UNL     1      -3.819   1.756   0.062  0.00  0.00    +0.135 A 
BRANCH  16  21
ATOM     21  C   UNL     1       1.321  -0.732  -0.004  0.00  0.00    +0.417 C 
ATOM     22  F   UNL     1       2.367   0.197  -0.028  0.00  0.00    -0.166 F 
ATOM     23  F   UNL     1       1.432  -1.529   1.141  0.00  0.00    -0.166 F 
ATOM     24  F   UNL     1       1.390  -1.541  -1.143  0.00  0.00    -0.166 F 
ENDBRANCH  16  21
ENDBRANCH   1  20
BRANCH   6  25
ATOM     25  N   UNL     1      -7.535   8.063   0.086  0.00  0.00    -0.330 N 
ATOM     26  C   UNL     1      -8.931   7.615  -0.006  0.00  0.00    +0.103 C 
ATOM     27  C   UNL     1      -9.717   8.207   1.168  0.00  0.00    +0.004 C 
ATOM     28  C   UNL     1      -9.544   9.728   1.178  0.00  0.00    -0.066 C 
ATOM     29  C   UNL     1      -8.065  10.073   1.364  0.00  0.00    +0.004 C 
ATOM     30  C   UNL     1      -7.260   9.502   0.199  0.00  0.00    +0.103 C 
BRANCH  28  31
ATOM     31  N   UNL     1     -10.323  10.302   2.283  0.00  0.00    +0.382 N 
ATOM     32  C   UNL     1     -11.741   9.964   2.107  0.00  0.00    -0.078 C 
ATOM     33  C   UNL     1     -12.546  10.490   3.298  0.00  0.00    -0.019 C 
ATOM     34  C   UNL     1     -12.389  12.011   3.381  0.00  0.00    -0.004 C 
ATOM     35  C   UNL     1     -10.900  12.355   3.489  0.00  0.00    -0.019 C 
ATOM     36  C   UNL     1     -10.156  11.760   2.292  0.00  0.00    -0.078 C 
ATOM     37  H   UNL     1      -9.995   9.921   3.158  0.00  0.00    -0.081 HD
ENDBRANCH  28  31
ENDBRANCH   6  25
TORSDOF 4
