REMARK  Name = CHEMBL7572
REMARK  5 active torsions:
REMARK  status: ('A' for Active; 'I' for Inactive)
REMARK    1  A    between atoms: C_1  and  C_2
REMARK    2  A    between atoms: C_2  and  O_4
REMARK    3  A    between atoms: O_4  and  C_5
REMARK    4  A    between atoms: C_12  and  C_15
REMARK    5  A    between atoms: C_15  and  C_17
REMARK                            x       y       z     vdW  Elec       q    Type
REMARK                         _______ _______ _______ _____ _____    ______ ____
ROOT
ATOM      1  C   UNL     1       1.081  -2.345  -0.705  0.00  0.00    +0.132 A 
ATOM      2  C   UNL     1       0.826  -3.169   0.389  0.00  0.00    +0.048 A 
ATOM      3  C   UNL     1       0.582  -4.512   0.213  0.00  0.00    +0.030 A 
ATOM      4  C   UNL     1       0.588  -5.059  -1.067  0.00  0.00    +0.047 A 
ATOM      5  C   UNL     1       0.845  -4.230  -2.177  0.00  0.00    +0.004 A 
ATOM      6  C   UNL     1       1.087  -2.864  -1.982  0.00  0.00    +0.056 A 
ATOM      7  C   UNL     1       0.788  -5.051  -3.328  0.00  0.00    +0.039 A 
ATOM      8  C   UNL     1       0.507  -6.319  -2.920  0.00  0.00    +0.090 A 
ATOM      9  N   UNL     1       0.384  -6.334  -1.545  0.00  0.00    -0.352 N 
ATOM     10  H   UNL     1       0.186  -7.115  -1.004  0.00  0.00    +0.166 HD
ENDROOT
BRANCH   8  11
ATOM     11  C   UNL     1       0.358  -7.485  -3.802  0.00  0.00    +0.225 C 
ATOM     12  O   UNL     1       0.822  -7.460  -4.928  0.00  0.00    -0.284 OA
BRANCH  11  13
ATOM     13  C   UNL     1      -0.350  -8.681  -3.325  0.00  0.00    +0.090 A 
ATOM     14  C   UNL     1      -1.031  -8.780  -2.152  0.00  0.00    +0.039 A 
ATOM     15  C   UNL     1      -1.564 -10.088  -2.072  0.00  0.00    +0.000 A 
ATOM     16  C   UNL     1      -2.339 -10.754  -1.113  0.00  0.00    +0.010 A 
ATOM     17  C   UNL     1      -2.709 -12.051  -1.321  0.00  0.00    +0.001 A 
ATOM     18  C   UNL     1      -2.325 -12.720  -2.477  0.00  0.00    +0.002 A 
ATOM     19  C   UNL     1      -1.563 -12.087  -3.433  0.00  0.00    +0.026 A 
ATOM     20  C   UNL     1      -1.173 -10.764  -3.244  0.00  0.00    +0.047 A 
ATOM     21  N   UNL     1      -0.435  -9.883  -4.000  0.00  0.00    -0.352 N 
ATOM     22  H   UNL     1      -0.038 -10.075  -4.864  0.00  0.00    +0.166 HD
ENDBRANCH  11  13
ENDBRANCH   8  11
BRANCH   1  23
ATOM     23  O   UNL     1       1.321  -1.020  -0.512  0.00  0.00    -0.426 OA
BRANCH  23  25
ATOM     24  C   UNL     1       2.889   0.804   0.046  0.00  0.00    +0.136 C 
ATOM     25  C   UNL     1       2.536  -0.657  -0.072  0.00  0.00    +0.309 C 
ATOM     26  O   UNL     1       3.346  -1.500   0.229  0.00  0.00    -0.251 OA
ENDBRANCH  23  25
ENDBRANCH   1  23
TORSDOF 4
