REMARK  Name = CHEMBL496150
REMARK  6 active torsions:
REMARK  status: ('A' for Active; 'I' for Inactive)
REMARK    1  A    between atoms: C_1  and  N_2
REMARK    2  A    between atoms: N_2  and  C_3
REMARK    3  A    between atoms: N_2  and  C_4
REMARK    4  A    between atoms: N_8  and  C_10
REMARK    5  A    between atoms: C_17  and  C_20
REMARK    6  A    between atoms: C_21  and  N_32
REMARK                            x       y       z     vdW  Elec       q    Type
REMARK                         _______ _______ _______ _____ _____    ______ ____
ROOT
ATOM      1  C   UNL     1       2.594  -3.675  -1.921  0.00  0.00    +0.032 A 
ATOM      2  C   UNL     1       1.794  -4.767  -1.591  0.00  0.00    +0.025 A 
ATOM      3  C   UNL     1       2.271  -6.052  -1.742  0.00  0.00    +0.029 A 
ATOM      4  C   UNL     1       3.554  -6.262  -2.227  0.00  0.00    +0.067 A 
ATOM      5  C   UNL     1       4.368  -5.166  -2.563  0.00  0.00    +0.091 A 
ATOM      6  C   UNL     1       3.872  -3.867  -2.410  0.00  0.00    +0.053 A 
ATOM      7  N   UNL     1       5.550  -5.663  -3.002  0.00  0.00    -0.227 NA
ATOM      8  C   UNL     1       5.521  -6.976  -2.961  0.00  0.00    +0.146 A 
ATOM      9  N   UNL     1       4.306  -7.396  -2.487  0.00  0.00    -0.338 N 
ATOM     10  H   UNL     1       4.024  -8.316  -2.358  0.00  0.00    +0.167 HD
ENDROOT
BRANCH   8  11
ATOM     11  C   UNL     1       6.626  -7.862  -3.362  0.00  0.00    +0.103 A 
ATOM     12  C   UNL     1       7.775  -7.329  -3.950  0.00  0.00    +0.050 A 
ATOM     13  C   UNL     1       8.850  -8.254  -4.332  0.00  0.00    +0.020 A 
ATOM     14  C   UNL     1      10.026  -7.786  -4.924  0.00  0.00    +0.012 A 
ATOM     15  C   UNL     1      11.010  -8.670  -5.269  0.00  0.00    +0.001 A 
ATOM     16  C   UNL     1      10.850 -10.028  -5.037  0.00  0.00    +0.002 A 
ATOM     17  C   UNL     1       9.697 -10.511  -4.454  0.00  0.00    +0.026 A 
ATOM     18  C   UNL     1       8.683  -9.630  -4.094  0.00  0.00    +0.051 A 
ATOM     19  N   UNL     1       7.521 -10.093  -3.509  0.00  0.00    -0.321 N 
ATOM     20  H   UNL     1       7.418 -11.044  -3.350  0.00  0.00    +0.169 HD
ATOM     21  C   UNL     1       6.533  -9.258  -3.149  0.00  0.00    +0.262 A 
ATOM     22  O   UNL     1       5.528  -9.714  -2.631  0.00  0.00    -0.267 OA
BRANCH  12  23
ATOM     23  N   UNL     1       7.897  -5.977  -4.165  0.00  0.00    -0.357 N 
ATOM     24  H   UNL     1       7.215  -5.371  -3.836  0.00  0.00    +0.142 HD
ATOM     25  H   UNL     1       8.664  -5.630  -4.645  0.00  0.00    +0.142 HD
ENDBRANCH  12  23
ENDBRANCH   8  11
BRANCH   1  29
ATOM     26  C   UNL     1       0.673  -0.484  -1.231  0.00  0.00    -0.050 C 
ATOM     27  C   UNL     1       2.162  -0.050  -1.190  0.00  0.00    +0.005 C 
ATOM     28  C   UNL     1       2.827  -1.134  -2.076  0.00  0.00    +0.103 C 
ATOM     29  N   UNL     1       2.098  -2.376  -1.762  0.00  0.00    -0.331 N 
ATOM     30  C   UNL     1       0.759  -2.025  -1.258  0.00  0.00    +0.090 C 
BRANCH  26  32
ATOM     31  C   UNL     1      -0.050   1.445  -0.003  0.00  0.00    -0.096 C 
ATOM     32  N   UNL     1      -0.035  -0.024  -0.030  0.00  0.00    +0.379 N 
ATOM     33  C   UNL     1      -1.415  -0.527  -0.052  0.00  0.00    -0.096 C 
ATOM     34  H   UNL     1       0.436  -0.371   0.792  0.00  0.00    -0.082 HD
ENDBRANCH  26  32
ENDBRANCH   1  29
TORSDOF 4
