REMARK  Name = CHEMBL495727
REMARK  5 active torsions:
REMARK  status: ('A' for Active; 'I' for Inactive)
REMARK    1  A    between atoms: C_6  and  C_7
REMARK    2  A    between atoms: C_7  and  N_8
REMARK    3  A    between atoms: C_15  and  C_18
REMARK    4  A    between atoms: C_19  and  N_24
REMARK    5  A    between atoms: N_27  and  C_28
REMARK                            x       y       z     vdW  Elec       q    Type
REMARK                         _______ _______ _______ _____ _____    ______ ____
ROOT
ATOM      1  C   UNL     1      -0.017   1.383   0.010  0.00  0.00    +0.007 A 
ATOM      2  C   UNL     1       1.163   2.099   0.002  0.00  0.00    +0.028 A 
ATOM      3  C   UNL     1       2.377   1.429  -0.013  0.00  0.00    +0.067 A 
ATOM      4  C   UNL     1       2.402   0.022  -0.021  0.00  0.00    +0.090 A 
ATOM      5  C   UNL     1       1.197  -0.687  -0.013  0.00  0.00    +0.034 A 
ATOM      6  C   UNL     1       0.002  -0.004   0.002  0.00  0.00    -0.031 A 
ATOM      7  N   UNL     1       3.704  -0.356  -0.035  0.00  0.00    -0.226 NA
ATOM      8  C   UNL     1       4.473   0.709  -0.037  0.00  0.00    +0.159 A 
ATOM      9  N   UNL     1       3.697   1.839  -0.023  0.00  0.00    -0.337 N 
ATOM     10  H   UNL     1       4.015   2.756  -0.022  0.00  0.00    +0.167 HD
ENDROOT
BRANCH   8  11
ATOM     11  C   UNL     1       5.943   0.691  -0.051  0.00  0.00    +0.122 A 
ATOM     12  C   UNL     1       6.754  -0.432  -0.064  0.00  0.00    +0.083 A 
ATOM     13  C   UNL     1       8.082   0.008  -0.075  0.00  0.00    +0.158 A 
ATOM     14  N   UNL     1       8.092   1.316  -0.068  0.00  0.00    -0.180 NA
ATOM     15  H   UNL     1       6.493   2.711  -0.055  0.00  0.00    +0.189 HD
ATOM     16  N   UNL     1       6.772   1.782  -0.058  0.00  0.00    -0.272 N 
BRANCH  12  17
ATOM     17  N   UNL     1       6.323  -1.765  -0.067  0.00  0.00    -0.266 N 
ATOM     18  C   UNL     1       7.226  -2.765  -0.081  0.00  0.00    +0.304 C 
ATOM     19  O   UNL     1       8.415  -2.511  -0.091  0.00  0.00    -0.252 OA
ATOM     20  N   UNL     1       6.811  -4.048  -0.084  0.00  0.00    -0.296 N 
ATOM     21  H   UNL     1       5.374  -1.968  -0.059  0.00  0.00    +0.156 HD
ATOM     22  H   UNL     1       5.863  -4.251  -0.075  0.00  0.00    +0.151 HD
BRANCH  20  23
ATOM     23  C   UNL     1       7.793  -5.135  -0.099  0.00  0.00    +0.075 C 
ATOM     24  C   UNL     1       7.528  -6.313  -1.039  0.00  0.00    +0.024 C 
ATOM     25  C   UNL     1       7.359  -6.487   0.472  0.00  0.00    +0.024 C 
ENDBRANCH  20  23
ENDBRANCH  12  17
ENDBRANCH   8  11
BRANCH   6  26
ATOM     26  C   UNL     1      -1.296  -0.769   0.011  0.00  0.00    +0.119 C 
BRANCH  26  27
ATOM     27  N   UNL     1      -1.732  -1.010  -1.371  0.00  0.00    -0.294 NA
ATOM     28  C   UNL     1      -2.081   0.251  -2.041  0.00  0.00    +0.113 C 
ATOM     29  C   UNL     1      -2.471  -0.040  -3.493  0.00  0.00    +0.175 C 
ATOM     30  O   UNL     1      -3.549  -0.980  -3.513  0.00  0.00    -0.377 OA
ATOM     31  C   UNL     1      -3.242  -2.220  -2.869  0.00  0.00    +0.175 C 
ATOM     32  C   UNL     1      -2.860  -1.952  -1.411  0.00  0.00    +0.113 C 
ENDBRANCH  26  27
ENDBRANCH   6  26
TORSDOF 5
