REMARK  Name = CHEMBL134066
REMARK  8 active torsions:
REMARK  status: ('A' for Active; 'I' for Inactive)
REMARK    1  A    between atoms: C_1  and  O_2
REMARK    2  A    between atoms: O_2  and  C_3
REMARK    3  A    between atoms: C_5  and  C_11
REMARK    4  A    between atoms: C_7  and  O_9
REMARK    5  A    between atoms: O_9  and  C_10
REMARK    6  A    between atoms: C_16  and  N_31
REMARK    7  A    between atoms: C_20  and  N_21
REMARK    8  A    between atoms: N_24  and  C_25
REMARK                            x       y       z     vdW  Elec       q    Type
REMARK                         _______ _______ _______ _____ _____    ______ ____
ROOT
ATOM      1  C   UNL     1       1.394  -4.111   2.205  0.00  0.00    +0.023 A 
ATOM      2  C   UNL     1       0.246  -4.867   2.030  0.00  0.00    +0.023 A 
ATOM      3  C   UNL     1       0.360  -6.266   2.104  0.00  0.00    +0.019 A 
ATOM      4  C   UNL     1      -0.750  -7.106   1.939  0.00  0.00    +0.123 A 
ATOM      5  N   UNL     1      -0.608  -8.409   2.014  0.00  0.00    -0.240 NA
ATOM      6  C   UNL     1       0.568  -8.988   2.244  0.00  0.00    +0.118 A 
ATOM      7  C   UNL     1       1.718  -8.245   2.421  0.00  0.00    +0.071 A 
ATOM      8  C   UNL     1       1.633  -6.845   2.352  0.00  0.00    +0.078 A 
ATOM      9  N   UNL     1       2.709  -6.070   2.513  0.00  0.00    -0.231 NA
ATOM     10  C   UNL     1       2.626  -4.758   2.442  0.00  0.00    +0.135 A 
ENDROOT
BRANCH   1  13
ATOM     11  C   UNL     1       0.635  -0.625   1.003  0.00  0.00    +0.124 A 
ATOM     12  C   UNL     1       0.694  -2.008   1.064  0.00  0.00    +0.054 A 
ATOM     13  C   UNL     1       1.330  -2.631   2.136  0.00  0.00    -0.008 A 
ATOM     14  C   UNL     1       1.906  -1.860   3.144  0.00  0.00    +0.054 A 
ATOM     15  C   UNL     1       1.844  -0.477   3.077  0.00  0.00    +0.124 A 
ATOM     16  C   UNL     1       1.214   0.139   2.006  0.00  0.00    +0.091 A 
BRANCH  11  18
ATOM     17  C   UNL     1      -0.002   1.411  -0.044  0.00  0.00    +0.277 C 
ATOM     18  O   UNL     1       0.015  -0.018  -0.042  0.00  0.00    -0.495 OA
ENDBRANCH  11  18
BRANCH  15  19
ATOM     19  O   UNL     1       2.405   0.276   4.060  0.00  0.00    -0.495 OA
ATOM     20  C   UNL     1       2.304   1.695   3.927  0.00  0.00    +0.277 C 
ENDBRANCH  15  19
ENDBRANCH   1  13
BRANCH  10  21
ATOM     21  N   UNL     1       3.773  -3.994   2.611  0.00  0.00    -0.253 N 
ATOM     22  C   UNL     1       4.956  -4.598   2.838  0.00  0.00    +0.309 C 
ATOM     23  O   UNL     1       5.019  -5.810   2.896  0.00  0.00    -0.252 OA
ATOM     24  N   UNL     1       6.070  -3.856   3.002  0.00  0.00    -0.269 N 
ATOM     25  H   UNL     1       3.723  -3.027   2.564  0.00  0.00    +0.158 HD
ATOM     26  H   UNL     1       6.033  -2.894   2.889  0.00  0.00    +0.156 HD
BRANCH  24  27
ATOM     27  C   UNL     1       7.280  -4.476   3.334  0.00  0.00    +0.035 A 
ATOM     28  C   UNL     1       8.180  -3.838   4.178  0.00  0.00    +0.023 A 
ATOM     29  C   UNL     1       9.373  -4.452   4.503  0.00  0.00    +0.002 A 
ATOM     30  C   UNL     1       9.673  -5.700   3.990  0.00  0.00    +0.000 A 
ATOM     31  C   UNL     1       8.779  -6.338   3.150  0.00  0.00    +0.002 A 
ATOM     32  C   UNL     1       7.582  -5.732   2.825  0.00  0.00    +0.023 A 
ENDBRANCH  24  27
ENDBRANCH  10  21
BRANCH   6  33
ATOM     33  N   UNL     1       0.640 -10.375   2.310  0.00  0.00    -0.343 N 
ATOM     34  H   UNL     1      -0.161 -10.909   2.188  0.00  0.00    +0.144 HD
ATOM     35  H   UNL     1       1.491 -10.809   2.478  0.00  0.00    +0.144 HD
ENDBRANCH   6  33
TORSDOF 6
