REMARK  Name = CHEMBL150187
REMARK  7 active torsions:
REMARK  status: ('A' for Active; 'I' for Inactive)
REMARK    1  A    between atoms: C_1  and  O_2
REMARK    2  A    between atoms: O_2  and  C_3
REMARK    3  A    between atoms: C_8  and  O_9
REMARK    4  A    between atoms: O_9  and  C_10
REMARK    5  A    between atoms: C_10  and  C_11
REMARK    6  A    between atoms: C_11  and  N_12
REMARK    7  A    between atoms: N_21  and  C_22
REMARK                            x       y       z     vdW  Elec       q    Type
REMARK                         _______ _______ _______ _____ _____    ______ ____
ROOT
ATOM      1  C   UNL     1       0.963  -0.804   1.007  0.00  0.00    +0.162 A 
ATOM      2  C   UNL     1       1.459  -0.012   2.003  0.00  0.00    +0.062 A 
ATOM      3  C   UNL     1       0.779   0.073   3.224  0.00  0.00    +0.044 A 
ATOM      4  C   UNL     1      -0.418  -0.660   3.419  0.00  0.00    +0.080 A 
ATOM      5  C   UNL     1      -0.908  -1.465   2.384  0.00  0.00    +0.078 A 
ATOM      6  C   UNL     1      -0.224  -1.528   1.190  0.00  0.00    +0.164 A 
ATOM      7  N   UNL     1      -1.051  -0.560   4.599  0.00  0.00    -0.235 NA
ATOM      8  C   UNL     1      -0.567   0.203   5.550  0.00  0.00    +0.223 A 
ATOM      9  N   UNL     1       0.546   0.906   5.413  0.00  0.00    -0.220 NA
ATOM     10  C   UNL     1       1.249   0.879   4.288  0.00  0.00    +0.134 A 
ATOM     11  N   UNL     1       2.408   1.616   4.160  0.00  0.00    -0.294 N 
ATOM     12  H   UNL     1       2.872   1.646   3.308  0.00  0.00    +0.154 HD
ENDROOT
BRANCH  11  13
ATOM     13  C   UNL     1       2.915   2.322   5.259  0.00  0.00    +0.104 A 
ATOM     14  C   UNL     1       3.804   1.706   6.132  0.00  0.00    +0.148 A 
ATOM     15  C   UNL     1       4.303   2.406   7.216  0.00  0.00    +0.055 A 
ATOM     16  C   UNL     1       3.917   3.717   7.432  0.00  0.00    +0.023 A 
ATOM     17  C   UNL     1       3.033   4.333   6.565  0.00  0.00    +0.055 A 
ATOM     18  C   UNL     1       2.535   3.641   5.475  0.00  0.00    +0.148 A 
ATOM     19  F   UNL     1       1.676   4.246   4.626  0.00  0.00    -0.203 F 
ATOM     20 BR   UNL     1       4.600   4.669   8.916  0.00  0.00    -0.050 Br
ATOM     21  F   UNL     1       4.180   0.425   5.923  0.00  0.00    -0.203 F 
ENDBRANCH  11  13
BRANCH   1  23
ATOM     22  C   UNL     1       2.827  -0.126  -0.305  0.00  0.00    +0.277 C 
ATOM     23  O   UNL     1       1.624  -0.887  -0.179  0.00  0.00    -0.491 OA
ENDBRANCH   1  23
BRANCH   6  24
ATOM     24  O   UNL     1      -0.700  -2.305   0.182  0.00  0.00    -0.486 OA
BRANCH  24  25
ATOM     25  C   UNL     1      -1.913  -3.018   0.431  0.00  0.00    +0.252 C 
BRANCH  25  26
ATOM     26  C   UNL     1      -2.289  -3.831  -0.809  0.00  0.00    +0.186 C 
BRANCH  26  27
ATOM     27  N   UNL     1      -3.533  -4.562  -0.555  0.00  0.00    -0.248 N 
ATOM     28  C   UNL     1      -4.653  -4.509  -1.312  0.00  0.00    +0.130 A 
ATOM     29  C   UNL     1      -5.549  -5.332  -0.718  0.00  0.00    +0.156 A 
ATOM     30  N   UNL     1      -4.941  -5.841   0.359  0.00  0.00    -0.138 NA
ATOM     31  N   UNL     1      -3.746  -5.370   0.424  0.00  0.00    -0.066 NA
ENDBRANCH  26  27
ENDBRANCH  25  26
ENDBRANCH  24  25
ENDBRANCH   6  24
TORSDOF 6
