REMARK  Name = CHEMBL495762
REMARK  4 active torsions:
REMARK  status: ('A' for Active; 'I' for Inactive)
REMARK    1  A    between atoms: C_1  and  N_2
REMARK    2  A    between atoms: N_5  and  C_8
REMARK    3  A    between atoms: C_15  and  C_17
REMARK    4  A    between atoms: C_18  and  N_30
REMARK                            x       y       z     vdW  Elec       q    Type
REMARK                         _______ _______ _______ _____ _____    ______ ____
ROOT
ATOM      1  C   UNL     1      -0.201  -5.553   0.429  0.00  0.00    +0.032 A 
ATOM      2  C   UNL     1      -1.579  -5.763   0.424  0.00  0.00    +0.025 A 
ATOM      3  C   UNL     1      -2.195  -6.357   1.488  0.00  0.00    +0.032 A 
ATOM      4  C   UNL     1      -1.442  -6.760   2.596  0.00  0.00    +0.090 A 
ATOM      5  C   UNL     1      -0.052  -6.551   2.603  0.00  0.00    +0.068 A 
ATOM      6  C   UNL     1       0.563  -5.951   1.514  0.00  0.00    +0.051 A 
ATOM      7  N   UNL     1       0.408  -7.046   3.810  0.00  0.00    -0.338 N 
ATOM      8  C   UNL     1      -0.680  -7.531   4.490  0.00  0.00    +0.146 A 
ATOM      9  N   UNL     1      -1.764  -7.360   3.770  0.00  0.00    -0.227 NA
ATOM     10  H   UNL     1       1.328  -7.049   4.118  0.00  0.00    +0.167 HD
ENDROOT
BRANCH   8  11
ATOM     11  C   UNL     1      -0.637  -8.151   5.825  0.00  0.00    +0.103 A 
ATOM     12  C   UNL     1      -1.790  -8.720   6.372  0.00  0.00    +0.051 A 
ATOM     13  C   UNL     1      -1.696  -9.326   7.706  0.00  0.00    +0.038 A 
ATOM     14  C   UNL     1      -0.460  -9.312   8.377  0.00  0.00    +0.052 A 
ATOM     15  C   UNL     1      -0.363  -9.884   9.641  0.00  0.00    +0.026 A 
ATOM     16  C   UNL     1      -1.473 -10.459  10.224  0.00  0.00    +0.003 A 
ATOM     17  C   UNL     1      -2.692 -10.475   9.563  0.00  0.00    +0.021 A 
ATOM     18  C   UNL     1      -2.813  -9.913   8.310  0.00  0.00    +0.052 A 
ATOM     19 CL   UNL     1      -4.341  -9.934   7.487  0.00  0.00    -0.083 Cl
ATOM     20  N   UNL     1       0.642  -8.732   7.781  0.00  0.00    -0.321 N 
ATOM     21  H   UNL     1       1.489  -8.729   8.254  0.00  0.00    +0.169 HD
ATOM     22  C   UNL     1       0.572  -8.179   6.559  0.00  0.00    +0.262 A 
ATOM     23  O   UNL     1       1.574  -7.684   6.072  0.00  0.00    -0.267 OA
BRANCH  12  24
ATOM     24  N   UNL     1      -2.978  -8.713   5.681  0.00  0.00    -0.357 N 
ATOM     25  H   UNL     1      -2.990  -8.929   4.736  0.00  0.00    +0.142 HD
ATOM     26  H   UNL     1      -3.804  -8.491   6.139  0.00  0.00    +0.142 HD
ENDBRANCH  12  24
ENDBRANCH   8  11
BRANCH   1  31
ATOM     27  C   UNL     1       1.606  -1.568  -2.835  0.00  0.00    -0.096 C 
ATOM     28  N   UNL     1       1.359  -2.941  -2.374  0.00  0.00    +0.380 N 
ATOM     29  C   UNL     1      -0.088  -3.161  -2.254  0.00  0.00    -0.060 C 
ATOM     30  C   UNL     1      -0.352  -4.625  -1.885  0.00  0.00    +0.086 C 
ATOM     31  N   UNL     1       0.414  -4.944  -0.670  0.00  0.00    -0.333 N 
ATOM     32  C   UNL     1       1.845  -4.604  -0.643  0.00  0.00    +0.086 C 
ATOM     33  C   UNL     1       2.005  -3.142  -1.071  0.00  0.00    -0.060 C 
ATOM     34  H   UNL     1       1.742  -3.593  -3.042  0.00  0.00    -0.082 HD
ENDBRANCH   1  31
TORSDOF 3
