REMARK  Name = CHEMBL368189
REMARK  9 active torsions:
REMARK  status: ('A' for Active; 'I' for Inactive)
REMARK    1  A    between atoms: C_1  and  N_2
REMARK    2  A    between atoms: N_5  and  C_8
REMARK    3  A    between atoms: C_8  and  C_9
REMARK    4  A    between atoms: C_9  and  C_10
REMARK    5  A    between atoms: C_10  and  N_11
REMARK    6  A    between atoms: C_17  and  C_32
REMARK    7  A    between atoms: C_18  and  N_22
REMARK    8  A    between atoms: N_22  and  S_23
REMARK    9  A    between atoms: S_23  and  C_26
REMARK                            x       y       z     vdW  Elec       q    Type
REMARK                         _______ _______ _______ _____ _____    ______ ____
ROOT
ATOM      1  N   UNL     1       0.430  -6.471   3.876  0.00  0.00    -0.313 N 
ATOM      2  C   UNL     1       0.519  -7.823   4.146  0.00  0.00    +0.217 A 
ATOM      3  N   UNL     1       0.128  -8.688   3.213  0.00  0.00    -0.222 NA
ATOM      4  C   UNL     1       0.189  -9.989   3.413  0.00  0.00    +0.126 A 
ATOM      5  C   UNL     1       0.681 -10.455   4.644  0.00  0.00    +0.038 A 
ATOM      6  C   UNL     1       0.779 -11.827   4.933  0.00  0.00    +0.025 A 
ATOM      7  C   UNL     1       1.276 -12.196   6.172  0.00  0.00    +0.029 A 
ATOM      8  C   UNL     1       1.664 -11.195   7.091  0.00  0.00    +0.173 A 
ATOM      9  N   UNL     1       1.563  -9.915   6.796  0.00  0.00    -0.209 NA
ATOM     10  C   UNL     1       1.090  -9.506   5.617  0.00  0.00    +0.167 A 
ATOM     11  N   UNL     1       0.994  -8.204   5.317  0.00  0.00    -0.195 NA
ATOM     12  H   UNL     1       0.713  -5.824   4.540  0.00  0.00    +0.149 HD
ENDROOT
BRANCH   7  13
ATOM     13  C   UNL     1       1.400 -13.629   6.531  0.00  0.00    +0.022 A 
ATOM     14  C   UNL     1       0.339 -14.290   7.149  0.00  0.00    +0.050 A 
ATOM     15  C   UNL     1       0.461 -15.626   7.480  0.00  0.00    +0.021 A 
ATOM     16  C   UNL     1       1.632 -16.307   7.201  0.00  0.00    +0.003 A 
ATOM     17  C   UNL     1       2.688 -15.656   6.588  0.00  0.00    +0.021 A 
ATOM     18  C   UNL     1       2.576 -14.323   6.247  0.00  0.00    +0.050 A 
ATOM     19 CL   UNL     1       3.900 -13.510   5.471  0.00  0.00    -0.083 Cl
ATOM     20 CL   UNL     1      -1.131 -13.437   7.501  0.00  0.00    -0.083 Cl
ENDBRANCH   7  13
BRANCH   1  21
ATOM     21  C   UNL     1      -0.093  -6.015   2.586  0.00  0.00    +0.105 C 
BRANCH  21  22
ATOM     22  C   UNL     1      -0.086  -4.485   2.544  0.00  0.00    +0.034 C 
BRANCH  22  23
ATOM     23  C   UNL     1      -0.632  -4.009   1.196  0.00  0.00    +0.086 C 
BRANCH  23  28
ATOM     24  C   UNL     1      -0.018   1.465   0.010  0.00  0.00    -0.096 C 
ATOM     25  N   UNL     1       0.002  -0.004   0.002  0.00  0.00    +0.379 N 
ATOM     26  C   UNL     1      -1.376  -0.512   0.011  0.00  0.00    -0.064 C 
ATOM     27  C   UNL     1      -1.356  -2.042  -0.017  0.00  0.00    +0.066 C 
ATOM     28  N   UNL     1      -0.624  -2.541   1.156  0.00  0.00    -0.306 NA
ATOM     29  C   UNL     1       0.750  -2.020   1.175  0.00  0.00    +0.066 C 
ATOM     30  C   UNL     1       0.713  -0.490   1.192  0.00  0.00    -0.064 C 
ATOM     31  H   UNL     1       0.475  -0.329  -0.828  0.00  0.00    -0.082 HD
ENDBRANCH  23  28
ENDBRANCH  22  23
ENDBRANCH  21  22
ENDBRANCH   1  21
BRANCH   8  32
ATOM     32  N   UNL     1       2.159 -11.568   8.326  0.00  0.00    -0.077 NA
BRANCH  32  33
ATOM     33  S   UNL     1       2.619 -10.410   9.417  0.00  0.00    +0.093 S 
ATOM     34  O   UNL     1       3.746  -9.749   8.858  0.00  0.00    -0.148 OA
ATOM     35  O   UNL     1       1.438  -9.715   9.794  0.00  0.00    -0.148 OA
BRANCH  33  36
ATOM     36  C   UNL     1       3.190 -11.248  10.858  0.00  0.00    +0.110 A 
ATOM     37  C   UNL     1       2.304 -11.566  11.870  0.00  0.00    +0.029 A 
ATOM     38  C   UNL     1       2.752 -12.224  13.000  0.00  0.00    +0.002 A 
ATOM     39  C   UNL     1       4.087 -12.565  13.117  0.00  0.00    +0.000 A 
ATOM     40  C   UNL     1       4.973 -12.248  12.105  0.00  0.00    +0.002 A 
ATOM     41  C   UNL     1       4.524 -11.594  10.973  0.00  0.00    +0.029 A 
ENDBRANCH  33  36
ENDBRANCH  32  33
ENDBRANCH   8  32
TORSDOF 8
