REMARK  Name = CHEMBL189584
REMARK  18 active torsions:
REMARK  status: ('A' for Active; 'I' for Inactive)
REMARK    1  A    between atoms: C_1  and  C_2
REMARK    2  A    between atoms: C_2  and  N_3
REMARK    3  A    between atoms: N_3  and  C_4
REMARK    4  A    between atoms: N_3  and  C_6
REMARK    5  A    between atoms: C_4  and  C_5
REMARK    6  A    between atoms: C_6  and  C_7
REMARK    7  A    between atoms: C_7  and  C_8
REMARK    8  A    between atoms: C_8  and  C_9
REMARK    9  A    between atoms: C_9  and  N_10
REMARK   10  A    between atoms: C_16  and  C_29
REMARK   11  A    between atoms: N_24  and  C_25
REMARK   12  A    between atoms: C_25  and  C_26
REMARK   13  A    between atoms: C_25  and  C_27
REMARK   14  A    between atoms: C_25  and  C_28
REMARK   15  A    between atoms: C_31  and  O_37
REMARK   16  A    between atoms: C_33  and  O_35
REMARK   17  A    between atoms: O_35  and  C_36
REMARK   18  A    between atoms: O_37  and  C_38
REMARK                            x       y       z     vdW  Elec       q    Type
REMARK                         _______ _______ _______ _____ _____    ______ ____
ROOT
ATOM      1  N   UNL     1      -3.122  -5.340  -2.174  0.00  0.00    -0.313 N 
ATOM      2  C   UNL     1      -4.410  -5.822  -2.304  0.00  0.00    +0.217 A 
ATOM      3  N   UNL     1      -5.425  -4.963  -2.226  0.00  0.00    -0.222 NA
ATOM      4  C   UNL     1      -6.674  -5.364  -2.343  0.00  0.00    +0.126 A 
ATOM      5  C   UNL     1      -6.923  -6.731  -2.556  0.00  0.00    +0.038 A 
ATOM      6  C   UNL     1      -8.226  -7.237  -2.691  0.00  0.00    +0.025 A 
ATOM      7  C   UNL     1      -8.377  -8.598  -2.899  0.00  0.00    +0.023 A 
ATOM      8  C   UNL     1      -7.232  -9.421  -2.966  0.00  0.00    +0.136 A 
ATOM      9  N   UNL     1      -6.019  -8.923  -2.836  0.00  0.00    -0.212 NA
ATOM     10  C   UNL     1      -5.818  -7.619  -2.635  0.00  0.00    +0.167 A 
ATOM     11  N   UNL     1      -4.584  -7.114  -2.508  0.00  0.00    -0.195 NA
ATOM     12  N   UNL     1      -7.387 -10.784  -3.174  0.00  0.00    -0.254 N 
ATOM     13  C   UNL     1      -6.303 -11.583  -3.241  0.00  0.00    +0.305 C 
ATOM     14  O   UNL     1      -5.190 -11.109  -3.119  0.00  0.00    -0.252 OA
ATOM     15  N   UNL     1      -6.454 -12.907  -3.442  0.00  0.00    -0.294 N 
ATOM     16  H   UNL     1      -2.368  -5.947  -2.232  0.00  0.00    +0.149 HD
ATOM     17  H   UNL     1      -8.275 -11.162  -3.271  0.00  0.00    +0.158 HD
ATOM     18  H   UNL     1      -7.342 -13.285  -3.539  0.00  0.00    +0.151 HD
ENDROOT
BRANCH   7  19
ATOM     19  C   UNL     1      -9.729  -9.187  -3.049  0.00  0.00    -0.008 A 
ATOM     20  C   UNL     1     -10.007 -10.036  -4.118  0.00  0.00    +0.054 A 
ATOM     21  C   UNL     1     -11.272 -10.585  -4.255  0.00  0.00    +0.124 A 
ATOM     22  C   UNL     1     -12.261 -10.289  -3.329  0.00  0.00    +0.091 A 
ATOM     23  C   UNL     1     -11.989  -9.443  -2.264  0.00  0.00    +0.124 A 
ATOM     24  C   UNL     1     -10.724  -8.896  -2.118  0.00  0.00    +0.054 A 
BRANCH  23  25
ATOM     25  O   UNL     1     -12.961  -9.155  -1.359  0.00  0.00    -0.495 OA
ATOM     26  C   UNL     1     -14.240  -9.758  -1.568  0.00  0.00    +0.277 C 
ENDBRANCH  23  25
BRANCH  21  27
ATOM     27  O   UNL     1     -11.543 -11.413  -5.297  0.00  0.00    -0.495 OA
ATOM     28  C   UNL     1     -12.868 -11.943  -5.377  0.00  0.00    +0.277 C 
ENDBRANCH  21  27
ENDBRANCH   7  19
BRANCH  15  29
ATOM     29  C   UNL     1      -5.277 -13.775  -3.515  0.00  0.00    +0.028 C 
ATOM     30  C   UNL     1      -4.497 -13.688  -2.201  0.00  0.00    +0.031 C 
ATOM     31  C   UNL     1      -5.722 -15.220  -3.748  0.00  0.00    +0.031 C 
ATOM     32  C   UNL     1      -4.381 -13.325  -4.671  0.00  0.00    +0.031 C 
ENDBRANCH  15  29
BRANCH   1  33
ATOM     33  C   UNL     1      -2.895  -3.910  -1.948  0.00  0.00    +0.104 C 
BRANCH  33  34
ATOM     34  C   UNL     1      -1.392  -3.644  -1.840  0.00  0.00    +0.017 C 
BRANCH  34  35
ATOM     35  C   UNL     1      -1.155  -2.151  -1.603  0.00  0.00    -0.017 C 
BRANCH  35  36
ATOM     36  C   UNL     1       0.348  -1.884  -1.496  0.00  0.00    -0.079 C 
BRANCH  36  37
ATOM     37  N   UNL     1       0.576  -0.451  -1.269  0.00  0.00    +0.379 N 
ATOM     38  H   UNL     1       0.124   0.081  -1.998  0.00  0.00    -0.082 HD
BRANCH  37  40
ATOM     39  C   UNL     1       0.128   1.449   0.210  0.00  0.00    -0.017 C 
ATOM     40  C   UNL     1       0.019  -0.067   0.035  0.00  0.00    -0.082 C 
ENDBRANCH  37  40
BRANCH  37  41
ATOM     41  C   UNL     1       2.019  -0.176  -1.285  0.00  0.00    -0.082 C 
ATOM     42  C   UNL     1       2.573  -0.440  -2.687  0.00  0.00    -0.017 C 
ENDBRANCH  37  41
ENDBRANCH  36  37
ENDBRANCH  35  36
ENDBRANCH  34  35
ENDBRANCH  33  34
ENDBRANCH   1  33
TORSDOF 11
