REMARK  Name = CHEMBL380702
REMARK  3 active torsions:
REMARK  status: ('A' for Active; 'I' for Inactive)
REMARK    1  A    between atoms: C_7  and  N_28
REMARK    2  A    between atoms: C_8  and  C_12
REMARK    3  A    between atoms: C_17  and  N_22
REMARK                            x       y       z     vdW  Elec       q    Type
REMARK                         _______ _______ _______ _____ _____    ______ ____
ROOT
ATOM      1  C   UNL     1       2.438  -4.249  -0.028  0.00  0.00    +0.147 A 
ATOM      2  N   UNL     1       1.368  -5.005  -0.116  0.00  0.00    -0.226 NA
ATOM      3  C   UNL     1       1.733  -6.311  -0.084  0.00  0.00    +0.109 A 
ATOM      4  C   UNL     1       1.018  -7.513  -0.142  0.00  0.00    +0.035 A 
ATOM      5  C   UNL     1       1.717  -8.690  -0.082  0.00  0.00    +0.046 A 
ATOM      6  C   UNL     1       3.105  -8.662   0.034  0.00  0.00    +0.124 A 
ATOM      7  N   UNL     1       3.765  -7.517   0.087  0.00  0.00    -0.213 NA
ATOM      8  H   UNL     1       4.473  -4.733   0.132  0.00  0.00    +0.169 HD
ATOM      9  C   UNL     1       3.133  -6.354   0.033  0.00  0.00    +0.160 A 
ATOM     10  N   UNL     1       3.556  -5.040   0.060  0.00  0.00    -0.323 N 
ENDROOT
BRANCH   1  18
ATOM     11  C   UNL     1       0.198   1.522   0.026  0.00  0.00    +0.001 A 
ATOM     12  C   UNL     1       1.433   2.155  -0.008  0.00  0.00    +0.002 A 
ATOM     13  C   UNL     1       2.599   1.420  -0.040  0.00  0.00    +0.026 A 
ATOM     14  C   UNL     1       2.541   0.030  -0.037  0.00  0.00    +0.051 A 
ATOM     15  C   UNL     1       1.288  -0.606  -0.001  0.00  0.00    +0.020 A 
ATOM     16  C   UNL     1       0.118   0.158   0.030  0.00  0.00    +0.012 A 
ATOM     17  C   UNL     1       1.234  -2.074   0.002  0.00  0.00    +0.050 A 
ATOM     18  C   UNL     1       2.439  -2.777  -0.030  0.00  0.00    +0.103 A 
ATOM     19  C   UNL     1       3.663  -2.066  -0.065  0.00  0.00    +0.262 A 
ATOM     20  N   UNL     1       3.697  -0.723  -0.067  0.00  0.00    -0.321 N 
ATOM     21  O   UNL     1       4.711  -2.688  -0.094  0.00  0.00    -0.267 OA
ATOM     22  H   UNL     1       4.556  -0.272  -0.092  0.00  0.00    +0.169 HD
BRANCH  17  23
ATOM     23  N   UNL     1       0.030  -2.736   0.037  0.00  0.00    -0.357 N 
ATOM     24  H   UNL     1      -0.795  -2.238   0.139  0.00  0.00    +0.142 HD
ATOM     25  H   UNL     1       0.006  -3.703  -0.041  0.00  0.00    +0.142 HD
ENDBRANCH  17  23
ENDBRANCH   1  18
BRANCH   6  26
ATOM     26  N   UNL     1       3.810  -9.860   0.095  0.00  0.00    -0.311 N 
ATOM     27  C   UNL     1       5.240  -9.881   0.441  0.00  0.00    +0.134 C 
ATOM     28  C   UNL     1       5.452 -10.909   1.559  0.00  0.00    +0.178 C 
ATOM     29  O   UNL     1       4.875 -12.156   1.166  0.00  0.00    -0.377 OA
ATOM     30  C   UNL     1       3.461 -12.110   0.963  0.00  0.00    +0.178 C 
ATOM     31  C   UNL     1       3.146 -11.144  -0.180  0.00  0.00    +0.134 C 
ENDBRANCH   6  26
TORSDOF 3
