REMARK  Name = CHEMBL425247
REMARK  6 active torsions:
REMARK  status: ('A' for Active; 'I' for Inactive)
REMARK    1  A    between atoms: C_4  and  C_7
REMARK    2  A    between atoms: C_7  and  O_8
REMARK    3  A    between atoms: O_8  and  C_9
REMARK    4  A    between atoms: C_15  and  C_19
REMARK    5  A    between atoms: C_25  and  N_29
REMARK    6  A    between atoms: C_32  and  N_35
REMARK                            x       y       z     vdW  Elec       q    Type
REMARK                         _______ _______ _______ _____ _____    ______ ____
ROOT
ATOM      1  C   UNL     1       4.043  -0.915   4.449  0.00  0.00    +0.160 A 
ATOM      2  N   UNL     1       3.614  -0.645   5.721  0.00  0.00    -0.337 N 
ATOM      3  H   UNL     1       4.068  -0.884   6.544  0.00  0.00    +0.167 HD
ATOM      4  C   UNL     1       2.412   0.031   5.612  0.00  0.00    +0.067 A 
ATOM      5  C   UNL     1       1.518   0.555   6.535  0.00  0.00    +0.029 A 
ATOM      6  C   UNL     1       0.375   1.191   6.102  0.00  0.00    +0.025 A 
ATOM      7  C   UNL     1       0.108   1.312   4.740  0.00  0.00    +0.032 A 
ATOM      8  C   UNL     1       0.987   0.796   3.807  0.00  0.00    +0.053 A 
ATOM      9  C   UNL     1       2.151   0.149   4.235  0.00  0.00    +0.091 A 
ATOM     10  N   UNL     1       3.181  -0.441   3.581  0.00  0.00    -0.226 NA
ENDROOT
BRANCH   1  17
ATOM     11  C   UNL     1       5.284  -1.665   1.467  0.00  0.00    +0.132 A 
ATOM     12  C   UNL     1       6.004  -2.084   0.365  0.00  0.00    +0.046 A 
ATOM     13  C   UNL     1       7.205  -2.760   0.527  0.00  0.00    +0.006 A 
ATOM     14  C   UNL     1       7.698  -3.025   1.785  0.00  0.00    +0.028 A 
ATOM     15  C   UNL     1       6.990  -2.613   2.912  0.00  0.00    +0.070 A 
ATOM     16  C   UNL     1       5.776  -1.923   2.753  0.00  0.00    +0.072 A 
ATOM     17  C   UNL     1       5.290  -1.626   4.106  0.00  0.00    +0.139 A 
ATOM     18  N   UNL     1       6.168  -2.108   4.955  0.00  0.00    -0.170 NA
ATOM     19  N   UNL     1       7.213  -2.725   4.261  0.00  0.00    -0.276 N 
ATOM     20  H   UNL     1       7.981  -3.155   4.669  0.00  0.00    +0.189 HD
BRANCH  11  21
ATOM     21  O   UNL     1       4.109  -1.004   1.305  0.00  0.00    -0.487 OA
BRANCH  21  22
ATOM     22  C   UNL     1       3.671  -0.779  -0.037  0.00  0.00    +0.264 C 
BRANCH  22  26
ATOM     23  C   UNL     1      -0.047   1.323   0.010  0.00  0.00    +0.000 A 
ATOM     24  C   UNL     1       1.143   2.025  -0.013  0.00  0.00    +0.000 A 
ATOM     25  C   UNL     1       2.346   1.345  -0.029  0.00  0.00    +0.007 A 
ATOM     26  C   UNL     1       2.359  -0.037  -0.019  0.00  0.00    -0.010 A 
ATOM     27  C   UNL     1       1.169  -0.739   0.005  0.00  0.00    +0.007 A 
ATOM     28  C   UNL     1      -0.035  -0.059   0.019  0.00  0.00    +0.000 A 
ENDBRANCH  22  26
ENDBRANCH  21  22
ENDBRANCH  11  21
ENDBRANCH   1  17
BRANCH   7  29
ATOM     29  N   UNL     1      -1.057   1.960   4.313  0.00  0.00    -0.330 N 
ATOM     30  C   UNL     1      -1.297   2.204   2.885  0.00  0.00    +0.103 C 
ATOM     31  C   UNL     1      -2.669   1.634   2.511  0.00  0.00    +0.004 C 
ATOM     32  C   UNL     1      -3.733   2.226   3.438  0.00  0.00    -0.066 C 
ATOM     33  C   UNL     1      -3.426   1.836   4.885  0.00  0.00    +0.004 C 
ATOM     34  C   UNL     1      -2.065   2.403   5.285  0.00  0.00    +0.103 C 
BRANCH  32  35
ATOM     35  N   UNL     1      -5.054   1.707   3.061  0.00  0.00    +0.382 N 
ATOM     36  C   UNL     1      -5.345   2.076   1.670  0.00  0.00    -0.078 C 
ATOM     37  C   UNL     1      -6.684   1.469   1.246  0.00  0.00    -0.019 C 
ATOM     38  C   UNL     1      -7.792   2.001   2.160  0.00  0.00    -0.004 C 
ATOM     39  C   UNL     1      -7.441   1.676   3.614  0.00  0.00    -0.019 C 
ATOM     40  C   UNL     1      -6.074   2.275   3.950  0.00  0.00    -0.078 C 
ATOM     41  H   UNL     1      -5.057   0.702   3.147  0.00  0.00    -0.081 HD
ENDBRANCH  32  35
ENDBRANCH   7  29
TORSDOF 6
