REMARK  Name = CHEMBL525909
REMARK  14 active torsions:
REMARK  status: ('A' for Active; 'I' for Inactive)
REMARK    1  A    between atoms: C_1  and  C_2
REMARK    2  A    between atoms: N_4  and  C_5
REMARK    3  A    between atoms: N_4  and  C_11
REMARK    4  A    between atoms: C_5  and  C_6
REMARK    5  A    between atoms: C_6  and  C_7
REMARK    6  A    between atoms: C_7  and  N_8
REMARK    7  A    between atoms: N_8  and  C_9
REMARK    8  A    between atoms: N_8  and  C_10
REMARK    9  A    between atoms: C_14  and  N_17
REMARK   10  A    between atoms: N_17  and  C_18
REMARK   11  A    between atoms: C_18  and  C_33
REMARK   12  A    between atoms: C_23  and  C_29
REMARK   13  A    between atoms: C_29  and  O_31
REMARK   14  A    between atoms: O_31  and  C_32
REMARK                            x       y       z     vdW  Elec       q    Type
REMARK                         _______ _______ _______ _____ _____    ______ ____
ROOT
ATOM      1  C   UNL     1       0.499   3.491  -6.928  0.00  0.00    +0.051 C 
ATOM      2  C   UNL     1      -0.292   4.227  -7.804  0.00  0.00    +0.068 C 
ATOM      3  C   UNL     1      -1.455   3.744  -8.572  0.00  0.00    +0.010 A 
ATOM      4  C   UNL     1      -2.094   2.509  -8.671  0.00  0.00    +0.011 A 
ATOM      5  C   UNL     1      -3.177   2.364  -9.489  0.00  0.00    +0.016 A 
ATOM      6  C   UNL     1      -3.651   3.454 -10.230  0.00  0.00    +0.061 A 
ATOM      7  C   UNL     1      -3.018   4.696 -10.138  0.00  0.00    +0.039 A 
ATOM      8  C   UNL     1      -1.919   4.847  -9.310  0.00  0.00    +0.042 A 
ATOM      9  N   UNL     1      -1.104   5.936  -9.022  0.00  0.00    -0.281 N 
ATOM     10  C   UNL     1      -0.149   5.600  -8.140  0.00  0.00    +0.251 C 
ATOM     11  O   UNL     1       0.704   6.351  -7.699  0.00  0.00    -0.270 OA
ATOM     12  H   UNL     1      -1.214   6.821  -9.404  0.00  0.00    +0.155 HD
ENDROOT
BRANCH   1  13
ATOM     13  C   UNL     1       1.544   4.164  -6.135  0.00  0.00    -0.003 A 
ATOM     14  C   UNL     1       2.853   3.672  -6.136  0.00  0.00    +0.010 A 
ATOM     15  C   UNL     1       3.825   4.308  -5.392  0.00  0.00    +0.001 A 
ATOM     16  C   UNL     1       3.508   5.429  -4.645  0.00  0.00    +0.000 A 
ATOM     17  C   UNL     1       2.214   5.922  -4.640  0.00  0.00    +0.001 A 
ATOM     18  C   UNL     1       1.233   5.301  -5.383  0.00  0.00    +0.010 A 
ENDBRANCH   1  13
BRANCH   1  19
ATOM     19  N   UNL     1       0.307   2.141  -6.801  0.00  0.00    -0.313 N 
ATOM     20  H   UNL     1       0.391   1.565  -7.577  0.00  0.00    +0.152 HD
BRANCH  19  24
ATOM     21  C   UNL     1      -0.637   0.510  -3.084  0.00  0.00    +0.036 A 
ATOM     22  C   UNL     1      -0.359  -0.325  -4.158  0.00  0.00    +0.025 A 
ATOM     23  C   UNL     1      -0.046   0.215  -5.389  0.00  0.00    +0.025 A 
ATOM     24  C   UNL     1      -0.010   1.594  -5.554  0.00  0.00    +0.031 A 
ATOM     25  C   UNL     1      -0.289   2.429  -4.479  0.00  0.00    +0.025 A 
ATOM     26  C   UNL     1      -0.607   1.888  -3.250  0.00  0.00    +0.025 A 
BRANCH  21  30
ATOM     27  C   UNL     1      -0.395  -0.559   0.518  0.00  0.00    +0.109 C 
ATOM     28  C   UNL     1      -0.117   0.132  -0.792  0.00  0.00    +0.217 C 
ATOM     29  O   UNL     1       0.861   0.840  -0.909  0.00  0.00    -0.276 OA
ATOM     30  N   UNL     1      -0.954  -0.038  -1.835  0.00  0.00    -0.272 N 
BRANCH  30  31
ATOM     31  C   UNL     1      -2.195  -0.797  -1.661  0.00  0.00    +0.112 C 
BRANCH  31  32
ATOM     32  C   UNL     1      -3.333   0.162  -1.303  0.00  0.00    +0.001 C 
BRANCH  32  33
ATOM     33  C   UNL     1      -4.629  -0.630  -1.121  0.00  0.00    -0.078 C 
BRANCH  33  34
ATOM     34  N   UNL     1      -5.721   0.291  -0.777  0.00  0.00    +0.376 N 
ATOM     35  C   UNL     1      -6.988  -0.451  -0.721  0.00  0.00    -0.097 C 
ATOM     36  C   UNL     1      -5.453   0.901   0.531  0.00  0.00    -0.097 C 
ATOM     37  H   UNL     1      -5.786   1.013  -1.479  0.00  0.00    -0.083 HD
ENDBRANCH  33  34
ENDBRANCH  32  33
ENDBRANCH  31  32
ENDBRANCH  30  31
ENDBRANCH  21  30
ENDBRANCH  19  24
ENDBRANCH   1  19
BRANCH   6  38
ATOM     38  C   UNL     1      -4.821   3.290 -11.111  0.00  0.00    +0.339 C 
ATOM     39  O   UNL     1      -5.234   4.234 -11.755  0.00  0.00    -0.245 OA
BRANCH  38  40
ATOM     40  O   UNL     1      -5.433   2.093 -11.202  0.00  0.00    -0.464 OA
ATOM     41  C   UNL     1      -6.561   2.006 -12.075  0.00  0.00    +0.280 C 
ENDBRANCH  38  40
ENDBRANCH   6  38
TORSDOF 10
