REMARK  Name = CHEMBL191023
REMARK  18 active torsions:
REMARK  status: ('A' for Active; 'I' for Inactive)
REMARK    1  A    between atoms: C_1  and  C_2
REMARK    2  A    between atoms: C_2  and  N_3
REMARK    3  A    between atoms: N_3  and  C_4
REMARK    4  A    between atoms: N_3  and  C_6
REMARK    5  A    between atoms: C_4  and  C_5
REMARK    6  A    between atoms: C_6  and  C_7
REMARK    7  A    between atoms: C_7  and  C_8
REMARK    8  A    between atoms: C_8  and  C_9
REMARK    9  A    between atoms: C_9  and  N_10
REMARK   10  A    between atoms: C_16  and  C_27
REMARK   11  A    between atoms: N_22  and  C_23
REMARK   12  A    between atoms: C_23  and  C_24
REMARK   13  A    between atoms: C_23  and  C_25
REMARK   14  A    between atoms: C_23  and  C_26
REMARK   15  A    between atoms: C_29  and  O_35
REMARK   16  A    between atoms: C_31  and  O_33
REMARK   17  A    between atoms: O_33  and  C_34
REMARK   18  A    between atoms: O_35  and  C_36
REMARK                            x       y       z     vdW  Elec       q    Type
REMARK                         _______ _______ _______ _____ _____    ______ ____
ROOT
ATOM      1  N   UNL     1      -3.122  -5.340  -2.174  0.00  0.00    -0.329 N 
ATOM      2  C   UNL     1      -4.418  -5.825  -2.305  0.00  0.00    +0.121 A 
ATOM      3  C   UNL     1      -5.479  -4.944  -2.225  0.00  0.00    +0.071 A 
ATOM      4  C   UNL     1      -6.783  -5.446  -2.360  0.00  0.00    +0.078 A 
ATOM      5  C   UNL     1      -6.942  -6.842  -2.572  0.00  0.00    +0.019 A 
ATOM      6  C   UNL     1      -8.237  -7.371  -2.709  0.00  0.00    +0.023 A 
ATOM      7  C   UNL     1      -9.309  -6.497  -2.630  0.00  0.00    +0.023 A 
ATOM      8  C   UNL     1      -9.072  -5.122  -2.417  0.00  0.00    +0.135 A 
ATOM      9  N   UNL     1      -7.851  -4.647  -2.291  0.00  0.00    -0.231 NA
ATOM     10  N   UNL     1     -10.151  -4.251  -2.339  0.00  0.00    -0.254 N 
ATOM     11  C   UNL     1      -9.941  -2.935  -2.136  0.00  0.00    +0.305 C 
ATOM     12  O   UNL     1      -8.808  -2.510  -2.022  0.00  0.00    -0.252 OA
ATOM     13  N   UNL     1     -10.989  -2.090  -2.061  0.00  0.00    -0.294 N 
ATOM     14  C   UNL     1      -5.802  -7.655  -2.638  0.00  0.00    +0.123 A 
ATOM     15  N   UNL     1      -4.606  -7.127  -2.510  0.00  0.00    -0.240 NA
ATOM     16  H   UNL     1      -2.368  -5.947  -2.232  0.00  0.00    +0.147 HD
ATOM     17  H   UNL     1     -11.055  -4.590  -2.431  0.00  0.00    +0.158 HD
ATOM     18  H   UNL     1     -11.893  -2.429  -2.152  0.00  0.00    +0.151 HD
ENDROOT
BRANCH   7  19
ATOM     19  C   UNL     1     -10.696  -7.003  -2.769  0.00  0.00    -0.008 A 
ATOM     20  C   UNL     1     -11.664  -6.651  -1.831  0.00  0.00    +0.054 A 
ATOM     21  C   UNL     1     -12.959  -7.125  -1.963  0.00  0.00    +0.124 A 
ATOM     22  C   UNL     1     -13.292  -7.950  -3.028  0.00  0.00    +0.091 A 
ATOM     23  C   UNL     1     -12.330  -8.303  -3.963  0.00  0.00    +0.124 A 
ATOM     24  C   UNL     1     -11.035  -7.826  -3.840  0.00  0.00    +0.054 A 
BRANCH  23  25
ATOM     25  O   UNL     1     -12.660  -9.111  -5.004  0.00  0.00    -0.495 OA
ATOM     26  C   UNL     1     -14.015  -9.560  -5.073  0.00  0.00    +0.277 C 
ENDBRANCH  23  25
BRANCH  21  27
ATOM     27  O   UNL     1     -13.904  -6.782  -1.049  0.00  0.00    -0.495 OA
ATOM     28  C   UNL     1     -15.219  -7.306  -1.247  0.00  0.00    +0.277 C 
ENDBRANCH  21  27
ENDBRANCH   7  19
BRANCH  13  29
ATOM     29  C   UNL     1     -10.761  -0.660  -1.840  0.00  0.00    +0.028 C 
ATOM     30  C   UNL     1      -9.913  -0.096  -2.983  0.00  0.00    +0.031 C 
ATOM     31  C   UNL     1     -12.105   0.070  -1.795  0.00  0.00    +0.031 C 
ATOM     32  C   UNL     1     -10.027  -0.459  -0.513  0.00  0.00    +0.031 C 
ENDBRANCH  13  29
BRANCH   1  33
ATOM     33  C   UNL     1      -2.895  -3.910  -1.948  0.00  0.00    +0.103 C 
BRANCH  33  34
ATOM     34  C   UNL     1      -1.392  -3.644  -1.840  0.00  0.00    +0.017 C 
BRANCH  34  35
ATOM     35  C   UNL     1      -1.155  -2.151  -1.603  0.00  0.00    -0.017 C 
BRANCH  35  36
ATOM     36  C   UNL     1       0.348  -1.884  -1.496  0.00  0.00    -0.079 C 
BRANCH  36  37
ATOM     37  N   UNL     1       0.576  -0.451  -1.269  0.00  0.00    +0.379 N 
ATOM     38  H   UNL     1       0.124   0.081  -1.998  0.00  0.00    -0.082 HD
BRANCH  37  40
ATOM     39  C   UNL     1       0.128   1.449   0.210  0.00  0.00    -0.017 C 
ATOM     40  C   UNL     1       0.019  -0.067   0.035  0.00  0.00    -0.082 C 
ENDBRANCH  37  40
BRANCH  37  41
ATOM     41  C   UNL     1       2.019  -0.176  -1.285  0.00  0.00    -0.082 C 
ATOM     42  C   UNL     1       2.573  -0.440  -2.687  0.00  0.00    -0.017 C 
ENDBRANCH  37  41
ENDBRANCH  36  37
ENDBRANCH  35  36
ENDBRANCH  34  35
ENDBRANCH  33  34
ENDBRANCH   1  33
TORSDOF 11
