REMARK  Name = CHEMBL379108
REMARK  6 active torsions:
REMARK  status: ('A' for Active; 'I' for Inactive)
REMARK    1  A    between atoms: C_6  and  N_7
REMARK    2  A    between atoms: N_7  and  C_8
REMARK    3  A    between atoms: C_8  and  C_9
REMARK    4  A    between atoms: C_15  and  C_19
REMARK    5  A    between atoms: C_25  and  N_29
REMARK    6  A    between atoms: C_32  and  N_35
REMARK                            x       y       z     vdW  Elec       q    Type
REMARK                         _______ _______ _______ _____ _____    ______ ____
ROOT
ATOM      1  C   UNL     1       4.350  -1.726  -0.072  0.00  0.00    +0.160 A 
ATOM      2  N   UNL     1       5.678  -2.057  -0.062  0.00  0.00    -0.337 N 
ATOM      3  H   UNL     1       6.426  -1.440  -0.053  0.00  0.00    +0.167 HD
ATOM      4  C   UNL     1       5.754  -3.439  -0.067  0.00  0.00    +0.067 A 
ATOM      5  C   UNL     1       6.807  -4.343  -0.062  0.00  0.00    +0.029 A 
ATOM      6  C   UNL     1       6.552  -5.697  -0.071  0.00  0.00    +0.025 A 
ATOM      7  C   UNL     1       5.240  -6.168  -0.084  0.00  0.00    +0.032 A 
ATOM      8  C   UNL     1       4.180  -5.281  -0.089  0.00  0.00    +0.053 A 
ATOM      9  C   UNL     1       4.427  -3.905  -0.081  0.00  0.00    +0.091 A 
ATOM     10  N   UNL     1       3.620  -2.816  -0.078  0.00  0.00    -0.226 NA
ENDROOT
BRANCH   1  17
ATOM     11  C   UNL     1      -0.017   1.391  -0.082  0.00  0.00    +0.025 A 
ATOM     12  C   UNL     1       1.148   2.104  -0.075  0.00  0.00    +0.029 A 
ATOM     13  C   UNL     1       2.372   1.441  -0.072  0.00  0.00    +0.067 A 
ATOM     14  C   UNL     1       2.402   0.035  -0.076  0.00  0.00    +0.032 A 
ATOM     15  C   UNL     1       1.205  -0.684  -0.083  0.00  0.00    +0.035 A 
ATOM     16  C   UNL     1       0.002  -0.004  -0.086  0.00  0.00    +0.028 A 
ATOM     17  C   UNL     1       3.819  -0.348  -0.071  0.00  0.00    +0.135 A 
ATOM     18  N   UNL     1       4.528   0.757  -0.064  0.00  0.00    -0.170 NA
ATOM     19  N   UNL     1       3.678   1.868  -0.065  0.00  0.00    -0.276 N 
ATOM     20  H   UNL     1       3.966   2.795  -0.061  0.00  0.00    +0.189 HD
BRANCH  16  21
ATOM     21  N   UNL     1      -1.202  -0.716  -0.093  0.00  0.00    -0.344 N 
ATOM     22  H   UNL     1      -1.191  -1.686  -0.096  0.00  0.00    +0.146 HD
BRANCH  21  23
ATOM     23  C   UNL     1      -2.478   0.002  -0.097  0.00  0.00    +0.105 C 
BRANCH  23  24
ATOM     24  C   UNL     1      -3.630  -1.005  -0.105  0.00  0.00    +0.006 C 
ATOM     25  C   UNL     1      -3.607  -1.796  -1.415  0.00  0.00    +0.005 C 
ATOM     26  C   UNL     1      -4.759  -2.803  -1.422  0.00  0.00    +0.000 C 
ATOM     27  C   UNL     1      -6.089  -2.057  -1.300  0.00  0.00    +0.000 C 
ATOM     28  C   UNL     1      -6.112  -1.266   0.009  0.00  0.00    +0.000 C 
ATOM     29  C   UNL     1      -4.960  -0.259   0.017  0.00  0.00    +0.005 C 
ENDBRANCH  23  24
ENDBRANCH  21  23
ENDBRANCH  16  21
ENDBRANCH   1  17
BRANCH   7  30
ATOM     30  N   UNL     1       4.995  -7.545  -0.093  0.00  0.00    -0.330 N 
ATOM     31  C   UNL     1       3.624  -8.063   0.014  0.00  0.00    +0.103 C 
ATOM     32  C   UNL     1       3.364  -9.016  -1.156  0.00  0.00    +0.004 C 
ATOM     33  C   UNL     1       4.445 -10.099  -1.177  0.00  0.00    -0.066 C 
ATOM     34  C   UNL     1       5.816  -9.450  -1.378  0.00  0.00    +0.004 C 
ATOM     35  C   UNL     1       6.104  -8.502  -0.216  0.00  0.00    +0.103 C 
BRANCH  33  36
ATOM     36  N   UNL     1       4.179 -11.035  -2.278  0.00  0.00    +0.382 N 
ATOM     37  C   UNL     1       2.861 -11.651  -2.088  0.00  0.00    -0.078 C 
ATOM     38  C   UNL     1       2.544 -12.565  -3.273  0.00  0.00    -0.019 C 
ATOM     39  C   UNL     1       3.612 -13.658  -3.367  0.00  0.00    -0.004 C 
ATOM     40  C   UNL     1       4.990 -13.003  -3.491  0.00  0.00    -0.019 C 
ATOM     41  C   UNL     1       5.216 -12.073  -2.297  0.00  0.00    -0.078 C 
ATOM     42  H   UNL     1       4.191 -10.533  -3.154  0.00  0.00    -0.081 HD
ENDBRANCH  33  36
ENDBRANCH   7  30
TORSDOF 6
