REMARK  Name = CHEMBL150894
REMARK  9 active torsions:
REMARK  status: ('A' for Active; 'I' for Inactive)
REMARK    1  A    between atoms: C_1  and  C_2
REMARK    2  A    between atoms: C_2  and  C_3
REMARK    3  A    between atoms: C_2  and  O_4
REMARK    4  A    between atoms: O_4  and  C_5
REMARK    5  A    between atoms: C_5  and  C_6
REMARK    6  A    between atoms: N_18  and  C_19
REMARK    7  A    between atoms: C_19  and  C_20
REMARK    8  A    between atoms: C_20  and  C_21
REMARK    9  A    between atoms: C_21  and  O_22
REMARK                            x       y       z     vdW  Elec       q    Type
REMARK                         _______ _______ _______ _____ _____    ______ ____
ROOT
ATOM      1  C   UNL     1       0.679  -1.185   3.451  0.00  0.00    -0.021 A 
ATOM      2  C   UNL     1       0.876  -2.546   3.626  0.00  0.00    +0.008 A 
ATOM      3  C   UNL     1       1.631  -3.015   4.679  0.00  0.00    +0.027 A 
ATOM      4  C   UNL     1       2.206  -2.121   5.577  0.00  0.00    +0.050 A 
ATOM      5  C   UNL     1       2.006  -0.745   5.398  0.00  0.00    +0.008 A 
ATOM      6  C   UNL     1       1.244  -0.283   4.327  0.00  0.00    +0.016 A 
ATOM      7  C   UNL     1       2.728  -0.071   6.494  0.00  0.00    +0.013 A 
ATOM      8  C   UNL     1       2.901   1.258   6.848  0.00  0.00    -0.008 A 
ATOM      9  C   UNL     1       3.657   1.595   7.967  0.00  0.00    +0.050 A 
ATOM     10  C   UNL     1       4.250   0.573   8.744  0.00  0.00    +0.000 A 
ATOM     11  C   UNL     1       4.073  -0.753   8.384  0.00  0.00    -0.011 A 
ATOM     12  C   UNL     1       3.318  -1.089   7.265  0.00  0.00    +0.055 A 
ATOM     13  N   UNL     1       2.993  -2.306   6.700  0.00  0.00    -0.339 N 
ATOM     14  C   UNL     1       4.814  -1.604   9.388  0.00  0.00    +0.073 C 
ATOM     15  C   UNL     1       5.439  -0.640  10.367  0.00  0.00    -0.035 A 
ATOM     16  C   UNL     1       5.090   0.647   9.964  0.00  0.00    -0.013 A 
ATOM     17  C   UNL     1       5.543   1.742  10.704  0.00  0.00    +0.009 A 
ATOM     18  C   UNL     1       6.327   1.541  11.821  0.00  0.00    +0.001 A 
ATOM     19  C   UNL     1       6.667   0.259  12.212  0.00  0.00    +0.000 A 
ATOM     20  C   UNL     1       6.222  -0.831  11.484  0.00  0.00    +0.004 A 
ATOM     21  C   UNL     1       3.667   3.061   8.097  0.00  0.00    +0.245 C 
ATOM     22  O   UNL     1       4.242   3.676   8.974  0.00  0.00    -0.270 OA
ATOM     23  N   UNL     1       2.951   3.623   7.107  0.00  0.00    -0.307 N 
ATOM     24  C   UNL     1       2.417   2.557   6.252  0.00  0.00    +0.141 C 
ATOM     25  H   UNL     1       2.811   4.574   6.980  0.00  0.00    +0.149 HD
ENDROOT
BRANCH   1  26
ATOM     26  C   UNL     1      -0.150  -0.689   2.294  0.00  0.00    +0.195 C 
BRANCH  26  27
ATOM     27  O   UNL     1       0.693  -0.477   1.160  0.00  0.00    -0.373 OA
BRANCH  27  29
ATOM     28  C   UNL     1      -0.019   1.526   0.010  0.00  0.00    +0.037 C 
ATOM     29  C   UNL     1       0.002  -0.004   0.002  0.00  0.00    +0.113 C 
ATOM     30  C   UNL     1       0.718  -0.497  -1.257  0.00  0.00    +0.037 C 
ENDBRANCH  27  29
ENDBRANCH  26  27
ENDBRANCH   1  26
BRANCH  13  31
ATOM     31  C   UNL     1       3.422  -3.608   7.216  0.00  0.00    +0.124 C 
BRANCH  31  32
ATOM     32  C   UNL     1       4.756  -3.997   6.575  0.00  0.00    +0.049 C 
BRANCH  32  33
ATOM     33  C   UNL     1       5.203  -5.357   7.114  0.00  0.00    +0.157 C 
BRANCH  33  34
ATOM     34  O   UNL     1       6.449  -5.720   6.516  0.00  0.00    -0.395 OA
ATOM     35  H   UNL     1       6.794  -6.574   6.811  0.00  0.00    +0.209 HD
ENDBRANCH  33  34
ENDBRANCH  32  33
ENDBRANCH  31  32
ENDBRANCH  13  31
TORSDOF 7
