REMARK  Name = CHEMBL498551
REMARK  4 active torsions:
REMARK  status: ('A' for Active; 'I' for Inactive)
REMARK    1  A    between atoms: C_1  and  N_2
REMARK    2  A    between atoms: N_5  and  C_8
REMARK    3  A    between atoms: C_14  and  N_30
REMARK    4  A    between atoms: C_15  and  C_20
REMARK                            x       y       z     vdW  Elec       q    Type
REMARK                         _______ _______ _______ _____ _____    ______ ____
ROOT
ATOM      1  C   UNL     1      -0.986  -4.082   1.653  0.00  0.00    +0.041 A 
ATOM      2  C   UNL     1      -0.944  -5.438   1.365  0.00  0.00    +0.024 A 
ATOM      3  C   UNL     1      -1.500  -6.354   2.240  0.00  0.00    +0.004 A 
ATOM      4  C   UNL     1      -2.104  -5.938   3.410  0.00  0.00    +0.026 A 
ATOM      5  C   UNL     1      -2.160  -4.586   3.724  0.00  0.00    +0.053 A 
ATOM      6  C   UNL     1      -1.593  -3.647   2.843  0.00  0.00    +0.041 A 
ATOM      7  C   UNL     1      -1.652  -2.224   3.183  0.00  0.00    +0.052 A 
ATOM      8  C   UNL     1      -2.270  -1.858   4.383  0.00  0.00    +0.103 A 
ATOM      9  C   UNL     1      -2.813  -2.858   5.223  0.00  0.00    +0.262 A 
ATOM     10  O   UNL     1      -3.351  -2.531   6.266  0.00  0.00    -0.267 OA
ATOM     11  N   UNL     1      -2.762  -4.159   4.892  0.00  0.00    -0.321 N 
ATOM     12  H   UNL     1      -3.147  -4.816   5.493  0.00  0.00    +0.169 HD
ENDROOT
BRANCH   8  13
ATOM     13  C   UNL     1      -2.355  -0.441   4.771  0.00  0.00    +0.146 A 
ATOM     14  N   UNL     1      -2.820   0.022   5.974  0.00  0.00    -0.338 N 
ATOM     15  H   UNL     1      -3.146  -0.517   6.711  0.00  0.00    +0.167 HD
ATOM     16  C   UNL     1      -2.736   1.403   5.941  0.00  0.00    +0.066 A 
ATOM     17  C   UNL     1      -3.052   2.406   6.846  0.00  0.00    +0.028 A 
ATOM     18  C   UNL     1      -2.847   3.727   6.505  0.00  0.00    +0.002 A 
ATOM     19  C   UNL     1      -2.326   4.061   5.264  0.00  0.00    +0.002 A 
ATOM     20  C   UNL     1      -2.006   3.079   4.353  0.00  0.00    +0.030 A 
ATOM     21  C   UNL     1      -2.208   1.735   4.682  0.00  0.00    +0.089 A 
ATOM     22  N   UNL     1      -1.991   0.572   4.018  0.00  0.00    -0.227 NA
ENDBRANCH   8  13
BRANCH   1  27
ATOM     23  C   UNL     1       1.808  -2.163  -2.635  0.00  0.00    +0.105 C 
ATOM     24  N   UNL     1       0.996  -2.179  -1.411  0.00  0.00    -0.302 NA
ATOM     25  C   UNL     1       1.730  -2.796  -0.299  0.00  0.00    +0.103 C 
ATOM     26  C   UNL     1       0.926  -2.631   0.995  0.00  0.00    +0.120 C 
ATOM     27  N   UNL     1      -0.428  -3.161   0.773  0.00  0.00    -0.327 N 
ATOM     28  C   UNL     1      -1.176  -2.691  -0.402  0.00  0.00    +0.120 C 
ATOM     29  C   UNL     1      -0.289  -2.854  -1.641  0.00  0.00    +0.103 C 
ENDBRANCH   1  27
BRANCH   7  30
ATOM     30  N   UNL     1      -1.115  -1.274   2.348  0.00  0.00    -0.357 N 
ATOM     31  H   UNL     1      -1.135  -1.407   1.387  0.00  0.00    +0.142 HD
ATOM     32  H   UNL     1      -0.716  -0.471   2.718  0.00  0.00    +0.142 HD
ENDBRANCH   7  30
TORSDOF 3
