REMARK  Name = CHEMBL495530
REMARK  6 active torsions:
REMARK  status: ('A' for Active; 'I' for Inactive)
REMARK    1  A    between atoms: C_1  and  N_2
REMARK    2  A    between atoms: N_5  and  C_8
REMARK    3  A    between atoms: C_15  and  C_17
REMARK    4  A    between atoms: C_18  and  N_38
REMARK    5  A    between atoms: C_21  and  N_29
REMARK    6  A    between atoms: C_30  and  C_32
REMARK                            x       y       z     vdW  Elec       q    Type
REMARK                         _______ _______ _______ _____ _____    ______ ____
ROOT
ATOM      1  C   UNL     1      -0.703  -7.958   6.272  0.00  0.00    +0.103 A 
ATOM      2  C   UNL     1      -1.810  -8.786   6.466  0.00  0.00    +0.050 A 
ATOM      3  C   UNL     1      -1.721  -9.831   7.496  0.00  0.00    +0.022 A 
ATOM      4  C   UNL     1      -2.794 -10.692   7.739  0.00  0.00    +0.035 A 
ATOM      5  C   UNL     1      -2.681 -11.665   8.714  0.00  0.00    +0.034 A 
ATOM      6  C   UNL     1      -1.504 -11.787   9.450  0.00  0.00    +0.025 A 
ATOM      7  C   UNL     1      -0.441 -10.942   9.218  0.00  0.00    +0.028 A 
ATOM      8  C   UNL     1      -0.535  -9.957   8.240  0.00  0.00    +0.051 A 
ATOM      9  N   UNL     1       0.525  -9.104   7.998  0.00  0.00    -0.321 N 
ATOM     10  H   UNL     1       1.339  -9.201   8.518  0.00  0.00    +0.169 HD
ATOM     11  C   UNL     1       0.460  -8.149   7.056  0.00  0.00    +0.262 A 
ATOM     12  O   UNL     1       1.423  -7.425   6.876  0.00  0.00    -0.267 OA
ENDROOT
BRANCH   1  20
ATOM     13  C   UNL     1      -0.272  -3.527   2.243  0.00  0.00    +0.032 A 
ATOM     14  C   UNL     1      -1.613  -3.841   2.032  0.00  0.00    +0.025 A 
ATOM     15  C   UNL     1      -2.214  -4.837   2.747  0.00  0.00    +0.032 A 
ATOM     16  C   UNL     1      -1.482  -5.553   3.700  0.00  0.00    +0.090 A 
ATOM     17  C   UNL     1      -0.129  -5.238   3.915  0.00  0.00    +0.068 A 
ATOM     18  C   UNL     1       0.471  -4.228   3.179  0.00  0.00    +0.051 A 
ATOM     19  N   UNL     1       0.318  -6.101   4.900  0.00  0.00    -0.338 N 
ATOM     20  C   UNL     1      -0.742  -6.897   5.252  0.00  0.00    +0.146 A 
ATOM     21  N   UNL     1      -1.797  -6.569   4.543  0.00  0.00    -0.227 NA
ATOM     22  H   UNL     1       1.213  -6.136   5.271  0.00  0.00    +0.167 HD
BRANCH  13  27
ATOM     23  C   UNL     1       1.237   1.524   0.825  0.00  0.00    -0.096 C 
ATOM     24  N   UNL     1       1.126   0.062   0.733  0.00  0.00    +0.380 N 
ATOM     25  C   UNL     1      -0.290  -0.313   0.628  0.00  0.00    -0.060 C 
ATOM     26  C   UNL     1      -0.401  -1.827   0.418  0.00  0.00    +0.086 C 
ATOM     27  N   UNL     1       0.328  -2.503   1.502  0.00  0.00    -0.333 N 
ATOM     28  C   UNL     1       1.706  -2.073   1.784  0.00  0.00    +0.086 C 
ATOM     29  C   UNL     1       1.718  -0.548   1.931  0.00  0.00    -0.060 C 
ATOM     30  H   UNL     1       1.619  -0.260  -0.086  0.00  0.00    -0.082 HD
ENDBRANCH  13  27
ENDBRANCH   1  20
BRANCH   5  31
ATOM     31  N   UNL     1      -3.752 -12.532   8.963  0.00  0.00    -0.281 N 
ATOM     32  C   UNL     1      -3.516 -13.815   9.303  0.00  0.00    +0.248 C 
ATOM     33  O   UNL     1      -2.375 -14.200   9.469  0.00  0.00    -0.270 OA
ATOM     34  H   UNL     1      -4.664 -12.209   8.891  0.00  0.00    +0.155 HD
BRANCH  32  35
ATOM     35  C   UNL     1      -4.645 -14.754   9.473  0.00  0.00    +0.037 A 
ATOM     36  C   UNL     1      -5.957 -14.316   9.278  0.00  0.00    +0.013 A 
ATOM     37  C   UNL     1      -7.005 -15.198   9.439  0.00  0.00    +0.001 A 
ATOM     38  C   UNL     1      -6.760 -16.512   9.794  0.00  0.00    +0.000 A 
ATOM     39  C   UNL     1      -5.463 -16.952   9.989  0.00  0.00    +0.001 A 
ATOM     40  C   UNL     1      -4.405 -16.083   9.825  0.00  0.00    +0.013 A 
ENDBRANCH  32  35
ENDBRANCH   5  31
BRANCH   2  41
ATOM     41  N   UNL     1      -2.950  -8.629   5.716  0.00  0.00    -0.357 N 
ATOM     42  H   UNL     1      -2.967  -7.988   4.988  0.00  0.00    +0.142 HD
ATOM     43  H   UNL     1      -3.739  -9.158   5.915  0.00  0.00    +0.142 HD
ENDBRANCH   2  41
TORSDOF 5
