REMARK  Name = CHEMBL347086
REMARK  9 active torsions:
REMARK  status: ('A' for Active; 'I' for Inactive)
REMARK    1  A    between atoms: C_1  and  O_2
REMARK    2  A    between atoms: O_2  and  C_3
REMARK    3  A    between atoms: C_3  and  C_4
REMARK    4  A    between atoms: C_4  and  O_5
REMARK    5  A    between atoms: O_5  and  C_6
REMARK    6  A    between atoms: C_11  and  O_12
REMARK    7  A    between atoms: O_12  and  C_13
REMARK    8  A    between atoms: N_18  and  C_19
REMARK    9  A    between atoms: C_21  and  O_27
REMARK                            x       y       z     vdW  Elec       q    Type
REMARK                         _______ _______ _______ _____ _____    ______ ____
ROOT
ATOM      1  C   UNL     1      -1.166  -3.889   0.024  0.00  0.00    +0.164 A 
ATOM      2  C   UNL     1      -0.106  -4.739   0.254  0.00  0.00    +0.078 A 
ATOM      3  C   UNL     1      -0.277  -6.118   0.080  0.00  0.00    +0.080 A 
ATOM      4  C   UNL     1      -1.538  -6.617  -0.330  0.00  0.00    +0.044 A 
ATOM      5  C   UNL     1      -2.599  -5.732  -0.558  0.00  0.00    +0.062 A 
ATOM      6  C   UNL     1      -2.412  -4.391  -0.377  0.00  0.00    +0.162 A 
ATOM      7  C   UNL     1      -1.680  -8.015  -0.497  0.00  0.00    +0.134 A 
ATOM      8  N   UNL     1      -0.626  -8.786  -0.260  0.00  0.00    -0.220 NA
ATOM      9  C   UNL     1       0.533  -8.274   0.122  0.00  0.00    +0.223 A 
ATOM     10  N   UNL     1       0.723  -6.987   0.292  0.00  0.00    -0.235 NA
ATOM     11  N   UNL     1      -2.883  -8.563  -0.894  0.00  0.00    -0.297 N 
ATOM     12  H   UNL     1      -3.617  -7.984  -1.155  0.00  0.00    +0.154 HD
ENDROOT
BRANCH  11  13
ATOM     13  C   UNL     1      -3.045  -9.953  -0.921  0.00  0.00    +0.072 A 
ATOM     14  C   UNL     1      -2.181 -10.767  -0.202  0.00  0.00    +0.073 A 
ATOM     15  C   UNL     1      -2.343 -12.143  -0.231  0.00  0.00    +0.137 A 
ATOM     16  C   UNL     1      -3.369 -12.705  -0.979  0.00  0.00    +0.085 A 
ATOM     17  C   UNL     1      -4.230 -11.894  -1.696  0.00  0.00    +0.064 A 
ATOM     18  C   UNL     1      -4.074 -10.520  -1.665  0.00  0.00    +0.146 A 
ATOM     19  F   UNL     1      -4.920  -9.729  -2.361  0.00  0.00    -0.203 F 
ATOM     20 CL   UNL     1      -3.571 -14.429  -1.015  0.00  0.00    -0.080 Cl
BRANCH  15  21
ATOM     21  O   UNL     1      -1.498 -12.942   0.473  0.00  0.00    -0.505 OA
ATOM     22  H   UNL     1      -1.790 -13.124   1.377  0.00  0.00    +0.292 HD
ENDBRANCH  15  21
ENDBRANCH  11  13
BRANCH   6  23
ATOM     23  O   UNL     1      -3.445  -3.533  -0.592  0.00  0.00    -0.491 OA
ATOM     24  C   UNL     1      -4.689  -4.106  -0.999  0.00  0.00    +0.277 C 
ENDBRANCH   6  23
BRANCH   1  25
ATOM     25  O   UNL     1      -1.003  -2.551   0.192  0.00  0.00    -0.486 OA
BRANCH  25  26
ATOM     26  C   UNL     1       0.290  -2.101   0.601  0.00  0.00    +0.257 C 
BRANCH  26  27
ATOM     27  C   UNL     1       0.281  -0.577   0.736  0.00  0.00    +0.200 C 
BRANCH  27  29
ATOM     28  C   UNL     1      -0.685   1.212   2.005  0.00  0.00    +0.194 C 
ATOM     29  O   UNL     1      -0.603  -0.199   1.793  0.00  0.00    -0.380 OA
ENDBRANCH  27  29
ENDBRANCH  26  27
ENDBRANCH  25  26
ENDBRANCH   1  25
TORSDOF 7
