REMARK  Name = CHEMBL194929
REMARK  9 active torsions:
REMARK  status: ('A' for Active; 'I' for Inactive)
REMARK    1  A    between atoms: C_1  and  C_2
REMARK    2  A    between atoms: C_4  and  C_7
REMARK    3  A    between atoms: C_11  and  C_12
REMARK    4  A    between atoms: C_12  and  C_13
REMARK    5  A    between atoms: C_12  and  C_14
REMARK    6  A    between atoms: N_19  and  C_20
REMARK    7  A    between atoms: C_22  and  C_28
REMARK    8  A    between atoms: N_30  and  O_31
REMARK    9  A    between atoms: O_31  and  C_32
REMARK                            x       y       z     vdW  Elec       q    Type
REMARK                         _______ _______ _______ _____ _____    ______ ____
ROOT
ATOM      1  C   UNL     1      -1.413  -3.120   0.069  0.00  0.00    +0.046 A 
ATOM      2  C   UNL     1      -2.720  -2.922   0.467  0.00  0.00    +0.125 A 
ATOM      3  N   UNL     1      -3.293  -4.117   0.686  0.00  0.00    -0.234 N 
ATOM      4  C   UNL     1      -2.365  -5.111   0.434  0.00  0.00    +0.109 A 
ATOM      5  C   UNL     1      -1.189  -4.509   0.042  0.00  0.00    -0.004 A 
ATOM      6  C   UNL     1      -2.759  -6.461   0.602  0.00  0.00    +0.151 A 
ATOM      7  N   UNL     1      -3.993  -6.729   0.994  0.00  0.00    -0.217 NA
ATOM      8  C   UNL     1      -4.875  -5.760   1.233  0.00  0.00    +0.245 A 
ATOM      9  N   UNL     1      -4.579  -4.497   1.098  0.00  0.00    -0.155 NA
ATOM     10  N   UNL     1      -1.865  -7.484   0.361  0.00  0.00    -0.295 N 
ATOM     11  H   UNL     1      -0.937  -7.281   0.163  0.00  0.00    +0.154 HD
ENDROOT
BRANCH  10  12
ATOM     12  C   UNL     1      -2.297  -8.816   0.400  0.00  0.00    +0.069 A 
ATOM     13  C   UNL     1      -3.641  -9.111   0.252  0.00  0.00    +0.042 A 
ATOM     14  C   UNL     1      -4.069 -10.440   0.292  0.00  0.00    +0.076 A 
ATOM     15  C   UNL     1      -3.136 -11.465   0.480  0.00  0.00    +0.138 A 
ATOM     16  C   UNL     1      -1.796 -11.159   0.627  0.00  0.00    +0.079 A 
ATOM     17  C   UNL     1      -1.373  -9.842   0.582  0.00  0.00    +0.147 A 
ATOM     18  F   UNL     1      -0.061  -9.551   0.721  0.00  0.00    -0.203 F 
ATOM     19  F   UNL     1      -3.544 -12.752   0.520  0.00  0.00    -0.205 F 
BRANCH  14  20
ATOM     20  C   UNL     1      -5.501 -10.762   0.136  0.00  0.00    +0.270 C 
ATOM     21  O   UNL     1      -5.871 -11.919   0.170  0.00  0.00    -0.268 OA
ATOM     22  N   UNL     1      -6.398  -9.772  -0.046  0.00  0.00    -0.191 N 
ATOM     23  H   UNL     1      -6.103  -8.849  -0.073  0.00  0.00    +0.183 HD
BRANCH  22  24
ATOM     24  O   UNL     1      -7.772 -10.081  -0.196  0.00  0.00    -0.283 OA
ATOM     25  C   UNL     1      -8.608  -8.937  -0.380  0.00  0.00    +0.226 C 
ENDBRANCH  22  24
ENDBRANCH  14  20
ENDBRANCH  10  12
BRANCH   1  29
ATOM     26  C   UNL     1       0.554   1.404  -0.691  0.00  0.00    +0.112 C 
ATOM     27  C   UNL     1       0.416  -0.094  -0.601  0.00  0.00    +0.225 A 
ATOM     28  N   UNL     1      -0.657  -0.740  -0.244  0.00  0.00    -0.192 NA
ATOM     29  C   UNL     1      -0.429  -2.065  -0.274  0.00  0.00    +0.204 A 
ATOM     30  N   UNL     1       0.809  -2.268  -0.656  0.00  0.00    -0.056 NA
ATOM     31  O   UNL     1       1.376  -0.986  -0.880  0.00  0.00    -0.338 OA
ENDBRANCH   1  29
BRANCH   5  32
ATOM     32  C   UNL     1       0.093  -5.204  -0.338  0.00  0.00    +0.016 C 
ATOM     33  C   UNL     1       0.472  -4.827  -1.772  0.00  0.00    +0.012 C 
ATOM     34  C   UNL     1       1.210  -4.772   0.614  0.00  0.00    +0.012 C 
ENDBRANCH   5  32
TORSDOF 5
