REMARK  Name = CHEMBL497049
REMARK  8 active torsions:
REMARK  status: ('A' for Active; 'I' for Inactive)
REMARK    1  A    between atoms: C_1  and  O_2
REMARK    2  A    between atoms: O_2  and  C_3
REMARK    3  A    between atoms: C_3  and  C_5
REMARK    4  A    between atoms: C_15  and  C_16
REMARK    5  A    between atoms: C_15  and  N_22
REMARK    6  A    between atoms: N_22  and  C_23
REMARK    7  A    between atoms: C_26  and  C_29
REMARK    8  A    between atoms: C_29  and  N_30
REMARK                            x       y       z     vdW  Elec       q    Type
REMARK                         _______ _______ _______ _____ _____    ______ ____
ROOT
ATOM      1  C   UNL     1       2.616  -2.517   0.008  0.00  0.00    +0.061 A 
ATOM      2  C   UNL     1       2.250  -3.396   1.035  0.00  0.00    +0.016 A 
ATOM      3  C   UNL     1       1.780  -4.642   0.737  0.00  0.00    +0.011 A 
ATOM      4  C   UNL     1       1.663  -5.044  -0.593  0.00  0.00    +0.010 A 
ATOM      5  C   UNL     1       2.026  -4.173  -1.635  0.00  0.00    +0.042 A 
ATOM      6  C   UNL     1       2.497  -2.908  -1.328  0.00  0.00    +0.039 A 
ATOM      7  N   UNL     1       1.809  -4.826  -2.842  0.00  0.00    -0.281 N 
ATOM      8  C   UNL     1       1.328  -6.064  -2.638  0.00  0.00    +0.251 C 
ATOM      9  O   UNL     1       1.045  -6.866  -3.511  0.00  0.00    -0.270 OA
ATOM     10  C   UNL     1       1.204  -6.287  -1.241  0.00  0.00    +0.068 C 
ATOM     11  C   UNL     1       0.745  -7.441  -0.613  0.00  0.00    +0.051 C 
ATOM     12  H   UNL     1       1.981  -4.439  -3.715  0.00  0.00    +0.155 HD
ENDROOT
BRANCH  11  13
ATOM     13  C   UNL     1       0.520  -7.448   0.844  0.00  0.00    -0.003 A 
ATOM     14  C   UNL     1      -0.334  -6.508   1.427  0.00  0.00    +0.010 A 
ATOM     15  C   UNL     1      -0.540  -6.521   2.791  0.00  0.00    +0.001 A 
ATOM     16  C   UNL     1       0.098  -7.461   3.581  0.00  0.00    +0.000 A 
ATOM     17  C   UNL     1       0.945  -8.395   3.011  0.00  0.00    +0.001 A 
ATOM     18  C   UNL     1       1.156  -8.398   1.648  0.00  0.00    +0.010 A 
ENDBRANCH  11  13
BRANCH   1  19
ATOM     19  C   UNL     1       3.122  -1.173   0.337  0.00  0.00    +0.339 C 
ATOM     20  O   UNL     1       3.435  -0.407  -0.553  0.00  0.00    -0.245 OA
BRANCH  19  22
ATOM     21  C   UNL     1       3.735   0.524   1.870  0.00  0.00    +0.280 C 
ATOM     22  O   UNL     1       3.237  -0.793   1.625  0.00  0.00    -0.464 OA
ENDBRANCH  19  22
ENDBRANCH   1  19
BRANCH  11  23
ATOM     23  N   UNL     1       0.502  -8.571  -1.349  0.00  0.00    -0.313 N 
ATOM     24  H   UNL     1       1.223  -8.993  -1.841  0.00  0.00    +0.152 HD
BRANCH  23  25
ATOM     25  C   UNL     1      -0.785  -9.114  -1.390  0.00  0.00    +0.031 A 
ATOM     26  C   UNL     1      -1.856  -8.409  -0.855  0.00  0.00    +0.023 A 
ATOM     27  C   UNL     1      -3.126  -8.949  -0.897  0.00  0.00    +0.003 A 
ATOM     28  C   UNL     1      -3.333 -10.190  -1.472  0.00  0.00    -0.064 A 
ATOM     29  C   UNL     1      -2.269 -10.894  -2.006  0.00  0.00    +0.003 A 
ATOM     30  C   UNL     1      -0.997 -10.358  -1.972  0.00  0.00    +0.023 A 
BRANCH  28  31
ATOM     31  C   UNL     1      -4.720 -10.776  -1.516  0.00  0.00    -0.043 C 
BRANCH  31  32
ATOM     32  N   UNL     1      -5.388 -10.362  -2.757  0.00  0.00    +0.382 N 
ATOM     33  C   UNL     1      -5.572  -8.906  -2.749  0.00  0.00    -0.078 C 
ATOM     34  C   UNL     1      -6.194  -8.460  -4.075  0.00  0.00    -0.019 C 
ATOM     35  C   UNL     1      -7.550  -9.147  -4.253  0.00  0.00    -0.004 C 
ATOM     36  C   UNL     1      -7.356 -10.665  -4.185  0.00  0.00    -0.019 C 
ATOM     37  C   UNL     1      -6.692 -11.029  -2.856  0.00  0.00    -0.078 C 
ATOM     38  H   UNL     1      -4.817 -10.623  -3.548  0.00  0.00    -0.081 HD
ENDBRANCH  31  32
ENDBRANCH  28  31
ENDBRANCH  23  25
ENDBRANCH  11  23
TORSDOF 7
