REMARK  Name = CHEMBL208600
REMARK  3 active torsions:
REMARK  status: ('A' for Active; 'I' for Inactive)
REMARK    1  A    between atoms: C_1  and  N_2
REMARK    2  A    between atoms: N_5  and  C_8
REMARK    3  A    between atoms: C_15  and  C_17
REMARK                            x       y       z     vdW  Elec       q    Type
REMARK                         _______ _______ _______ _____ _____    ______ ____
ROOT
ATOM      1  C   UNL     1      -0.972  -3.611   1.777  0.00  0.00    +0.032 A 
ATOM      2  C   UNL     1      -2.284  -4.065   1.654  0.00  0.00    +0.025 A 
ATOM      3  C   UNL     1      -2.750  -5.069   2.454  0.00  0.00    +0.032 A 
ATOM      4  C   UNL     1      -1.908  -5.652   3.407  0.00  0.00    +0.090 A 
ATOM      5  C   UNL     1      -0.583  -5.196   3.533  0.00  0.00    +0.068 A 
ATOM      6  C   UNL     1      -0.121  -4.178   2.711  0.00  0.00    +0.051 A 
ATOM      7  N   UNL     1      -0.010  -5.949   4.540  0.00  0.00    -0.337 N 
ATOM      8  C   UNL     1      -0.968  -6.820   4.990  0.00  0.00    +0.160 A 
ATOM      9  N   UNL     1      -2.081  -6.639   4.320  0.00  0.00    -0.226 NA
ATOM     10  H   UNL     1       0.900  -5.876   4.866  0.00  0.00    +0.167 HD
ENDROOT
BRANCH   8  11
ATOM     11  C   UNL     1      -0.777  -7.811   6.067  0.00  0.00    +0.135 A 
ATOM     12  C   UNL     1      -1.784  -8.754   6.568  0.00  0.00    +0.030 A 
ATOM     13  C   UNL     1      -3.116  -9.012   6.240  0.00  0.00    +0.012 A 
ATOM     14  C   UNL     1      -3.805  -9.983   6.909  0.00  0.00    +0.001 A 
ATOM     15  C   UNL     1      -3.191 -10.719   7.915  0.00  0.00    +0.002 A 
ATOM     16  C   UNL     1      -1.879 -10.482   8.255  0.00  0.00    +0.028 A 
ATOM     17  C   UNL     1      -1.158  -9.497   7.585  0.00  0.00    +0.066 A 
ATOM     18  N   UNL     1       0.129  -9.032   7.686  0.00  0.00    -0.276 N 
ATOM     19  N   UNL     1       0.328  -8.015   6.747  0.00  0.00    -0.170 NA
ATOM     20  H   UNL     1       0.797  -9.360   8.308  0.00  0.00    +0.189 HD
ENDBRANCH   8  11
BRANCH   1  25
ATOM     21  C   UNL     1      -0.038   1.464  -0.002  0.00  0.00    -0.096 C 
ATOM     22  N   UNL     1      -0.008  -0.004  -0.004  0.00  0.00    +0.380 N 
ATOM     23  C   UNL     1      -1.383  -0.520  -0.014  0.00  0.00    -0.060 C 
ATOM     24  C   UNL     1      -1.352  -2.048  -0.132  0.00  0.00    +0.086 C 
ATOM     25  N   UNL     1      -0.511  -2.583   0.950  0.00  0.00    -0.333 N 
ATOM     26  C   UNL     1       0.828  -2.004   1.137  0.00  0.00    +0.086 C 
ATOM     27  C   UNL     1       0.695  -0.479   1.195  0.00  0.00    -0.060 C 
ATOM     28  H   UNL     1       0.477  -0.328  -0.827  0.00  0.00    -0.082 HD
ENDBRANCH   1  25
TORSDOF 2
