REMARK  Name = CHEMBL480356
REMARK  9 active torsions:
REMARK  status: ('A' for Active; 'I' for Inactive)
REMARK    1  A    between atoms: C_1  and  C_2
REMARK    2  A    between atoms: C_3  and  C_30
REMARK    3  A    between atoms: C_4  and  C_29
REMARK    4  A    between atoms: C_7  and  C_8
REMARK    5  A    between atoms: C_12  and  C_19
REMARK    6  A    between atoms: N_21  and  N_22
REMARK    7  A    between atoms: N_22  and  C_23
REMARK    8  A    between atoms: C_30  and  C_31
REMARK    9  A    between atoms: C_31  and  C_32
REMARK                            x       y       z     vdW  Elec       q    Type
REMARK                         _______ _______ _______ _____ _____    ______ ____
ROOT
ATOM      1  C   UNL     1       0.032  -0.424   2.461  0.00  0.00    +0.039 C 
ATOM      2  C   UNL     1      -0.050  -1.364   3.470  0.00  0.00    +0.048 C 
ATOM      3  C   UNL     1      -0.164  -1.117   4.926  0.00  0.00    +0.009 A 
ATOM      4  C   UNL     1      -0.221   0.038   5.691  0.00  0.00    +0.023 A 
ATOM      5  C   UNL     1      -0.331  -0.059   7.078  0.00  0.00    +0.039 A 
ATOM      6  C   UNL     1      -0.382  -1.319   7.685  0.00  0.00    +0.015 A 
ATOM      7  C   UNL     1      -0.325  -2.463   6.923  0.00  0.00    +0.024 A 
ATOM      8  C   UNL     1      -0.215  -2.381   5.537  0.00  0.00    +0.042 A 
ATOM      9  N   UNL     1      -0.141  -3.361   4.561  0.00  0.00    -0.281 N 
ATOM     10  C   UNL     1      -0.048  -2.826   3.332  0.00  0.00    +0.249 C 
ATOM     11  O   UNL     1       0.027  -3.446   2.285  0.00  0.00    -0.270 OA
ATOM     12  H   UNL     1      -0.158  -4.314   4.742  0.00  0.00    +0.155 HD
ENDROOT
BRANCH   1  19
ATOM     13  C   UNL     1      -1.117   0.965  -0.083  0.00  0.00    +0.046 C 
ATOM     14  C   UNL     1      -0.210  -0.237  -0.015  0.00  0.00    -0.022 A 
ATOM     15  C   UNL     1       0.294  -0.958  -1.099  0.00  0.00    -0.023 A 
ATOM     16  C   UNL     1       1.067  -1.960  -0.611  0.00  0.00    +0.017 A 
ATOM     17  N   UNL     1       1.067  -1.897   0.745  0.00  0.00    -0.358 N 
ATOM     18  H   UNL     1       1.541  -2.500   1.339  0.00  0.00    +0.166 HD
ATOM     19  C   UNL     1       0.284  -0.832   1.135  0.00  0.00    +0.043 A 
ATOM     20  C   UNL     1       1.805  -2.980  -1.440  0.00  0.00    +0.063 C 
BRANCH  15  21
ATOM     21  C   UNL     1       0.028  -0.672  -2.554  0.00  0.00    +0.048 C 
BRANCH  21  22
ATOM     22  C   UNL     1       1.090   0.292  -3.087  0.00  0.00    +0.130 C 
BRANCH  22  23
ATOM     23  C   UNL     1       0.824   0.577  -4.543  0.00  0.00    +0.356 C 
ATOM     24  O   UNL     1      -0.127   0.058  -5.102  0.00  0.00    -0.246 OA
ATOM     25  O   UNL     1       1.559   1.328  -5.161  0.00  0.00    -0.246 OA
ENDBRANCH  22  23
ENDBRANCH  21  22
ENDBRANCH  15  21
ENDBRANCH   1  19
BRANCH   5  26
ATOM     26  C   UNL     1      -0.393   1.163   7.904  0.00  0.00    +0.260 C 
ATOM     27  O   UNL     1      -0.348   2.257   7.374  0.00  0.00    -0.269 OA
ATOM     28  N   UNL     1      -0.499   1.067   9.244  0.00  0.00    -0.232 N 
ATOM     29  H   UNL     1      -0.535   0.194   9.666  0.00  0.00    +0.173 HD
BRANCH  28  30
ATOM     30  N   UNL     1      -0.557   2.227  10.027  0.00  0.00    -0.264 N 
ATOM     31  H   UNL     1      -0.521   3.099   9.605  0.00  0.00    +0.170 HD
BRANCH  30  32
ATOM     32  C   UNL     1      -0.667   2.127  11.416  0.00  0.00    +0.044 A 
ATOM     33  C   UNL     1      -0.713   0.878  12.022  0.00  0.00    +0.024 A 
ATOM     34  C   UNL     1      -0.821   0.783  13.396  0.00  0.00    +0.002 A 
ATOM     35  C   UNL     1      -0.884   1.929  14.167  0.00  0.00    +0.000 A 
ATOM     36  C   UNL     1      -0.839   3.174  13.566  0.00  0.00    +0.002 A 
ATOM     37  C   UNL     1      -0.725   3.276  12.194  0.00  0.00    +0.024 A 
ENDBRANCH  30  32
ENDBRANCH  28  30
ENDBRANCH   5  26
TORSDOF 7
