REMARK  Name = CHEMBL209783
REMARK  2 active torsions:
REMARK  status: ('A' for Active; 'I' for Inactive)
REMARK    1  A    between atoms: C_7  and  C_11
REMARK    2  A    between atoms: C_16  and  N_20
REMARK                            x       y       z     vdW  Elec       q    Type
REMARK                         _______ _______ _______ _____ _____    ______ ____
ROOT
ATOM      1  C   UNL     1      -4.336   3.138   0.081  0.00  0.00    +0.160 A 
ATOM      2  N   UNL     1      -3.596   4.220   0.058  0.00  0.00    -0.226 NA
ATOM      3  C   UNL     1      -4.393   5.318   0.070  0.00  0.00    +0.090 A 
ATOM      4  C   UNL     1      -4.133   6.692   0.056  0.00  0.00    +0.032 A 
ATOM      5  C   UNL     1      -5.167   7.583   0.075  0.00  0.00    +0.025 A 
ATOM      6  C   UNL     1      -6.487   7.137   0.107  0.00  0.00    +0.032 A 
ATOM      7  C   UNL     1      -6.766   5.780   0.121  0.00  0.00    +0.051 A 
ATOM      8  C   UNL     1      -5.724   4.864   0.102  0.00  0.00    +0.068 A 
ATOM      9  N   UNL     1      -5.662   3.484   0.104  0.00  0.00    -0.337 N 
ATOM     10  H   UNL     1      -6.416   2.874   0.120  0.00  0.00    +0.167 HD
ENDROOT
BRANCH   1  17
ATOM     11  C   UNL     1      -0.017   1.385   0.010  0.00  0.00    +0.001 A 
ATOM     12  C   UNL     1       0.003  -0.004   0.015  0.00  0.00    +0.002 A 
ATOM     13  C   UNL     1      -1.172  -0.721   0.039  0.00  0.00    +0.028 A 
ATOM     14  C   UNL     1      -2.392  -0.049   0.058  0.00  0.00    +0.066 A 
ATOM     15  C   UNL     1      -2.405   1.357   0.053  0.00  0.00    +0.030 A 
ATOM     16  C   UNL     1      -1.201   2.064   0.034  0.00  0.00    +0.012 A 
ATOM     17  C   UNL     1      -3.818   1.756   0.077  0.00  0.00    +0.135 A 
ATOM     18  N   UNL     1      -4.538   0.657   0.094  0.00  0.00    -0.170 NA
ATOM     19  H   UNL     1      -3.997  -1.385   0.092  0.00  0.00    +0.189 HD
ATOM     20  N   UNL     1      -3.700  -0.462   0.083  0.00  0.00    -0.276 N 
ENDBRANCH   1  17
BRANCH   6  21
ATOM     21  N   UNL     1      -7.534   8.063   0.127  0.00  0.00    -0.325 N 
ATOM     22  C   UNL     1      -8.936   7.623   0.042  0.00  0.00    +0.133 C 
ATOM     23  C   UNL     1      -9.720   8.285   1.181  0.00  0.00    +0.178 C 
ATOM     24  O   UNL     1      -9.494   9.696   1.150  0.00  0.00    -0.377 OA
ATOM     25  C   UNL     1      -8.133  10.076   1.362  0.00  0.00    +0.178 C 
ATOM     26  C   UNL     1      -7.268   9.506   0.238  0.00  0.00    +0.133 C 
ENDBRANCH   6  21
TORSDOF 2
