REMARK  Name = CHEMBL523071
REMARK  4 active torsions:
REMARK  status: ('A' for Active; 'I' for Inactive)
REMARK    1  A    between atoms: C_1  and  N_2
REMARK    2  A    between atoms: N_6  and  C_9
REMARK    3  A    between atoms: C_16  and  C_19
REMARK    4  A    between atoms: C_20  and  N_31
REMARK                            x       y       z     vdW  Elec       q    Type
REMARK                         _______ _______ _______ _____ _____    ______ ____
ROOT
ATOM      1  C   UNL     1      -1.122  -2.365   2.674  0.00  0.00    +0.032 A 
ATOM      2  C   UNL     1      -0.230  -2.155   3.723  0.00  0.00    +0.025 A 
ATOM      3  C   UNL     1      -0.555  -2.548   5.004  0.00  0.00    +0.029 A 
ATOM      4  C   UNL     1      -1.776  -3.156   5.253  0.00  0.00    +0.067 A 
ATOM      5  C   UNL     1      -2.683  -3.372   4.201  0.00  0.00    +0.091 A 
ATOM      6  C   UNL     1      -2.346  -2.964   2.906  0.00  0.00    +0.053 A 
ATOM      7  N   UNL     1      -3.777  -3.974   4.729  0.00  0.00    -0.227 NA
ATOM      8  C   UNL     1      -3.608  -4.142   6.021  0.00  0.00    +0.146 A 
ATOM      9  N   UNL     1      -2.385  -3.652   6.395  0.00  0.00    -0.338 N 
ATOM     10  H   UNL     1      -2.013  -3.653   7.291  0.00  0.00    +0.167 HD
ENDROOT
BRANCH   8  11
ATOM     11  C   UNL     1      -4.586  -4.763   6.930  0.00  0.00    +0.103 A 
ATOM     12  C   UNL     1      -5.727  -5.383   6.417  0.00  0.00    +0.050 A 
ATOM     13  C   UNL     1      -6.672  -5.988   7.364  0.00  0.00    +0.020 A 
ATOM     14  C   UNL     1      -7.833  -6.624   6.917  0.00  0.00    +0.012 A 
ATOM     15  C   UNL     1      -8.694  -7.178   7.821  0.00  0.00    +0.001 A 
ATOM     16  C   UNL     1      -8.425  -7.115   9.181  0.00  0.00    +0.002 A 
ATOM     17  C   UNL     1      -7.285  -6.492   9.644  0.00  0.00    +0.026 A 
ATOM     18  C   UNL     1      -6.394  -5.921   8.741  0.00  0.00    +0.051 A 
ATOM     19  N   UNL     1      -5.247  -5.293   9.184  0.00  0.00    -0.321 N 
ATOM     20  H   UNL     1      -5.067  -5.255  10.137  0.00  0.00    +0.169 HD
ATOM     21  C   UNL     1      -4.372  -4.741   8.329  0.00  0.00    +0.262 A 
ATOM     22  O   UNL     1      -3.370  -4.202   8.768  0.00  0.00    -0.267 OA
BRANCH  12  23
ATOM     23  N   UNL     1      -5.960  -5.424   5.063  0.00  0.00    -0.357 N 
ATOM     24  H   UNL     1      -5.262  -5.161   4.443  0.00  0.00    +0.142 HD
ATOM     25  H   UNL     1      -6.822  -5.717   4.728  0.00  0.00    +0.142 HD
ENDBRANCH  12  23
ENDBRANCH   8  11
BRANCH   1  31
ATOM     26  C   UNL     1      -0.500  -4.795  -1.860  0.00  0.00    -0.096 C 
ATOM     27  N   UNL     1      -0.492  -3.523  -1.126  0.00  0.00    +0.379 N 
ATOM     28  C   UNL     1       0.749  -3.441  -0.358  0.00  0.00    -0.078 C 
ATOM     29  C   UNL     1       1.143  -1.989  -0.199  0.00  0.00    +0.000 C 
ATOM     30  C   UNL     1       0.582  -1.448   1.129  0.00  0.00    +0.103 C 
ATOM     31  N   UNL     1      -0.780  -1.961   1.378  0.00  0.00    -0.332 N 
ATOM     32  C   UNL     1      -1.774  -2.062   0.330  0.00  0.00    +0.086 C 
ATOM     33  C   UNL     1      -1.674  -3.444  -0.357  0.00  0.00    -0.060 C 
ATOM     34  H   UNL     1      -0.498  -2.769  -1.797  0.00  0.00    -0.082 HD
ENDBRANCH   1  31
TORSDOF 3
