REMARK  Name = CHEMBL51283
REMARK  5 active torsions:
REMARK  status: ('A' for Active; 'I' for Inactive)
REMARK    1  A    between atoms: C_1  and  N_2
REMARK    2  A    between atoms: C_6  and  C_9
REMARK    3  A    between atoms: N_21  and  C_22
REMARK    4  A    between atoms: C_25  and  N_28
REMARK    5  A    between atoms: N_31  and  C_34
REMARK                            x       y       z     vdW  Elec       q    Type
REMARK                         _______ _______ _______ _____ _____    ______ ____
ROOT
ATOM      1  C   UNL     1      -0.033   1.391   0.614  0.00  0.00    +0.154 C 
ATOM      2  N   UNL     1      -0.005  -0.038   0.293  0.00  0.00    -0.295 N 
ATOM      3  C   UNL     1      -1.183  -0.708   0.074  0.00  0.00    +0.148 A 
ATOM      4  C   UNL     1      -1.174  -2.085  -0.237  0.00  0.00    +0.037 A 
ATOM      5  C   UNL     1       0.051  -2.786  -0.325  0.00  0.00    +0.027 A 
ATOM      6  C   UNL     1       1.220  -2.110  -0.106  0.00  0.00    +0.050 A 
ATOM      7  C   UNL     1       1.176  -0.680   0.210  0.00  0.00    +0.260 A 
ATOM      8  O   UNL     1       2.212  -0.069   0.402  0.00  0.00    -0.267 OA
ATOM      9  C   UNL     1      -2.400  -2.732  -0.454  0.00  0.00    +0.126 A 
ATOM     10  N   UNL     1      -3.511  -2.028  -0.358  0.00  0.00    -0.222 NA
ATOM     11  C   UNL     1      -3.482  -0.733  -0.064  0.00  0.00    +0.221 A 
ATOM     12  N   UNL     1      -2.350  -0.079   0.149  0.00  0.00    -0.196 NA
ATOM     13  N   UNL     1      -4.675  -0.043   0.023  0.00  0.00    -0.284 N 
ATOM     14  H   UNL     1      -4.671   0.918   0.157  0.00  0.00    +0.155 HD
ENDROOT
BRANCH   6  15
ATOM     15  C   UNL     1       2.520  -2.816  -0.191  0.00  0.00    +0.024 A 
ATOM     16  C   UNL     1       3.064  -3.421   0.943  0.00  0.00    +0.050 A 
ATOM     17  C   UNL     1       4.276  -4.078   0.857  0.00  0.00    +0.021 A 
ATOM     18  C   UNL     1       4.949  -4.138  -0.350  0.00  0.00    +0.003 A 
ATOM     19  C   UNL     1       4.415  -3.541  -1.477  0.00  0.00    +0.021 A 
ATOM     20  C   UNL     1       3.202  -2.885  -1.406  0.00  0.00    +0.050 A 
ATOM     21 CL   UNL     1       2.530  -2.142  -2.824  0.00  0.00    -0.083 Cl
ATOM     22 CL   UNL     1       2.221  -3.346   2.459  0.00  0.00    -0.083 Cl
ENDBRANCH   6  15
BRANCH  13  23
ATOM     23  C   UNL     1      -5.891  -0.731  -0.082  0.00  0.00    +0.034 A 
ATOM     24  C   UNL     1      -6.035  -1.980   0.507  0.00  0.00    +0.025 A 
ATOM     25  C   UNL     1      -7.233  -2.658   0.404  0.00  0.00    +0.025 A 
ATOM     26  C   UNL     1      -8.295  -2.090  -0.288  0.00  0.00    +0.030 A 
ATOM     27  C   UNL     1      -8.151  -0.840  -0.876  0.00  0.00    +0.025 A 
ATOM     28  C   UNL     1      -6.955  -0.160  -0.769  0.00  0.00    +0.025 A 
BRANCH  26  29
ATOM     29  N   UNL     1      -9.509  -2.777  -0.393  0.00  0.00    -0.333 N 
ATOM     30  C   UNL     1     -10.608  -2.251  -1.218  0.00  0.00    +0.086 C 
ATOM     31  C   UNL     1     -11.098  -3.368  -2.144  0.00  0.00    -0.060 C 
ATOM     32  N   UNL     1     -11.453  -4.547  -1.344  0.00  0.00    +0.380 N 
ATOM     33  C   UNL     1     -10.256  -5.080  -0.681  0.00  0.00    -0.060 C 
ATOM     34  C   UNL     1      -9.722  -4.050   0.314  0.00  0.00    +0.086 C 
ATOM     35  C   UNL     1     -12.025  -5.577  -2.220  0.00  0.00    -0.096 C 
ATOM     36  H   UNL     1     -12.133  -4.285  -0.646  0.00  0.00    -0.082 HD
ENDBRANCH  26  29
ENDBRANCH  13  23
TORSDOF 3
