REMARK  Name = CHEMBL495749
REMARK  5 active torsions:
REMARK  status: ('A' for Active; 'I' for Inactive)
REMARK    1  A    between atoms: C_1  and  N_2
REMARK    2  A    between atoms: C_6  and  O_8
REMARK    3  A    between atoms: O_8  and  C_9
REMARK    4  A    between atoms: C_15  and  N_31
REMARK    5  A    between atoms: C_16  and  C_21
REMARK                            x       y       z     vdW  Elec       q    Type
REMARK                         _______ _______ _______ _____ _____    ______ ____
ROOT
ATOM      1  C   UNL     1       1.827  -3.875   2.299  0.00  0.00    +0.132 A 
ATOM      2  C   UNL     1       1.710  -4.644   1.155  0.00  0.00    +0.046 A 
ATOM      3  C   UNL     1       2.325  -5.882   1.079  0.00  0.00    +0.006 A 
ATOM      4  C   UNL     1       3.062  -6.370   2.139  0.00  0.00    +0.026 A 
ATOM      5  C   UNL     1       3.196  -5.619   3.300  0.00  0.00    +0.054 A 
ATOM      6  C   UNL     1       2.579  -4.357   3.381  0.00  0.00    +0.061 A 
ATOM      7  C   UNL     1       2.730  -3.568   4.607  0.00  0.00    +0.053 A 
ATOM      8  C   UNL     1       3.492  -4.106   5.648  0.00  0.00    +0.103 A 
ATOM      9  C   UNL     1       4.088  -5.379   5.491  0.00  0.00    +0.262 A 
ATOM     10  O   UNL     1       4.751  -5.842   6.404  0.00  0.00    -0.267 OA
ATOM     11  N   UNL     1       3.931  -6.097   4.367  0.00  0.00    -0.321 N 
ATOM     12  H   UNL     1       4.355  -6.967   4.297  0.00  0.00    +0.169 HD
ENDROOT
BRANCH   8  13
ATOM     13  C   UNL     1       3.674  -3.353   6.899  0.00  0.00    +0.146 A 
ATOM     14  N   UNL     1       4.351  -3.805   8.002  0.00  0.00    -0.338 N 
ATOM     15  H   UNL     1       4.789  -4.666   8.095  0.00  0.00    +0.167 HD
ATOM     16  C   UNL     1       4.293  -2.805   8.956  0.00  0.00    +0.066 A 
ATOM     17  C   UNL     1       4.783  -2.681  10.248  0.00  0.00    +0.028 A 
ATOM     18  C   UNL     1       4.551  -1.524  10.962  0.00  0.00    +0.002 A 
ATOM     19  C   UNL     1       3.829  -0.482  10.398  0.00  0.00    +0.002 A 
ATOM     20  C   UNL     1       3.335  -0.587   9.117  0.00  0.00    +0.030 A 
ATOM     21  C   UNL     1       3.562  -1.753   8.379  0.00  0.00    +0.089 A 
ATOM     22  N   UNL     1       3.216  -2.143   7.127  0.00  0.00    -0.227 NA
ENDBRANCH   8  13
BRANCH   7  23
ATOM     23  N   UNL     1       2.139  -2.333   4.730  0.00  0.00    -0.357 N 
ATOM     24  H   UNL     1       1.351  -2.118   4.206  0.00  0.00    +0.142 HD
ATOM     25  H   UNL     1       2.510  -1.677   5.340  0.00  0.00    +0.142 HD
ENDBRANCH   7  23
BRANCH   1  26
ATOM     26  O   UNL     1       1.224  -2.661   2.373  0.00  0.00    -0.490 OA
BRANCH  26  32
ATOM     27  C   UNL     1      -0.145   1.305   0.014  0.00  0.00    -0.096 C 
ATOM     28  N   UNL     1      -0.152  -0.164   0.012  0.00  0.00    +0.380 N 
ATOM     29  C   UNL     1      -1.538  -0.645  -0.027  0.00  0.00    -0.079 C 
ATOM     30  C   UNL     1      -1.549  -2.173  -0.111  0.00  0.00    -0.015 C 
ATOM     31  C   UNL     1      -0.841  -2.752   1.118  0.00  0.00    +0.041 C 
ATOM     32  C   UNL     1       0.580  -2.185   1.190  0.00  0.00    +0.157 C 
ATOM     33  C   UNL     1       0.512  -0.656   1.225  0.00  0.00    -0.034 C 
ATOM     34  H   UNL     1       0.342  -0.501  -0.801  0.00  0.00    -0.082 HD
ENDBRANCH  26  32
ENDBRANCH   1  26
TORSDOF 4
