REMARK  Name = CHEMBL402548
REMARK  7 active torsions:
REMARK  status: ('A' for Active; 'I' for Inactive)
REMARK    1  A    between atoms: C_1  and  N_2
REMARK    2  A    between atoms: N_5  and  C_8
REMARK    3  A    between atoms: C_11  and  C_14
REMARK    4  A    between atoms: C_26  and  C_28
REMARK    5  A    between atoms: C_28  and  C_30
REMARK    6  A    between atoms: C_28  and  O_36
REMARK    7  A    between atoms: O_36  and  C_37
REMARK                            x       y       z     vdW  Elec       q    Type
REMARK                         _______ _______ _______ _____ _____    ______ ____
ROOT
ATOM      1  C   UNL     1      -1.996  -6.586   4.213  0.00  0.00    +0.249 C 
ATOM      2  O   UNL     1      -3.153  -6.935   4.078  0.00  0.00    -0.270 OA
ATOM      3  N   UNL     1      -1.221  -7.172   5.148  0.00  0.00    -0.265 N 
ATOM      4  C   UNL     1      -1.748  -8.182   5.963  0.00  0.00    +0.152 A 
ATOM      5  C   UNL     1      -1.058  -8.871   6.976  0.00  0.00    +0.034 A 
ATOM      6  C   UNL     1      -1.909  -9.761   7.526  0.00  0.00    +0.060 A 
ATOM      7  N   UNL     1      -3.098  -9.647   6.890  0.00  0.00    -0.278 N 
ATOM      8  H   UNL     1      -3.896 -10.164   7.078  0.00  0.00    +0.189 HD
ATOM      9  N   UNL     1      -2.974  -8.647   5.918  0.00  0.00    -0.158 NA
ATOM     10  C   UNL     1      -1.202 -10.521   8.619  0.00  0.00    +0.163 C 
ATOM     11  N   UNL     1       0.173 -10.012   8.691  0.00  0.00    -0.289 N 
ATOM     12  C   UNL     1       0.281  -8.972   7.662  0.00  0.00    +0.148 C 
ATOM     13  C   UNL     1       1.143 -10.419   9.534  0.00  0.00    +0.250 C 
ATOM     14  O   UNL     1       2.213  -9.849   9.548  0.00  0.00    -0.272 OA
ATOM     15  H   UNL     1      -0.298  -6.894   5.256  0.00  0.00    +0.157 HD
ENDROOT
BRANCH   1  19
ATOM     16  C   UNL     1      -0.398  -3.523   1.745  0.00  0.00    +0.030 A 
ATOM     17  C   UNL     1      -1.723  -3.922   1.587  0.00  0.00    +0.024 A 
ATOM     18  C   UNL     1      -2.244  -4.914   2.386  0.00  0.00    +0.015 A 
ATOM     19  C   UNL     1      -1.441  -5.523   3.356  0.00  0.00    +0.037 A 
ATOM     20  C   UNL     1      -0.111  -5.121   3.510  0.00  0.00    +0.015 A 
ATOM     21  C   UNL     1       0.406  -4.131   2.705  0.00  0.00    +0.024 A 
BRANCH  16  26
ATOM     22  C   UNL     1       0.785   1.505   0.002  0.00  0.00    -0.096 C 
ATOM     23  N   UNL     1       0.758   0.036   0.000  0.00  0.00    +0.380 N 
ATOM     24  C   UNL     1      -0.635  -0.426  -0.053  0.00  0.00    -0.060 C 
ATOM     25  C   UNL     1      -0.661  -1.954  -0.171  0.00  0.00    +0.086 C 
ATOM     26  N   UNL     1       0.125  -2.520   0.936  0.00  0.00    -0.333 N 
ATOM     27  C   UNL     1       1.480  -1.995   1.164  0.00  0.00    +0.086 C 
ATOM     28  C   UNL     1       1.405  -0.465   1.219  0.00  0.00    -0.060 C 
ATOM     29  H   UNL     1       1.255  -0.307  -0.808  0.00  0.00    -0.082 HD
ENDBRANCH  16  26
ENDBRANCH   1  19
BRANCH  13  30
ATOM     30  C   UNL     1       0.897 -11.583  10.460  0.00  0.00    +0.233 C 
BRANCH  30  31
ATOM     31  C   UNL     1       0.856 -12.860   9.661  0.00  0.00    -0.010 A 
ATOM     32  C   UNL     1       2.032 -13.436   9.219  0.00  0.00    +0.006 A 
ATOM     33  C   UNL     1       1.995 -14.608   8.486  0.00  0.00    +0.000 A 
ATOM     34  C   UNL     1       0.782 -15.204   8.196  0.00  0.00    +0.000 A 
ATOM     35  C   UNL     1      -0.394 -14.628   8.639  0.00  0.00    +0.000 A 
ATOM     36  C   UNL     1      -0.357 -13.459   9.376  0.00  0.00    +0.006 A 
ENDBRANCH  30  31
BRANCH  30  37
ATOM     37  O   UNL     1       1.950 -11.656  11.423  0.00  0.00    -0.366 OA
ATOM     38  C   UNL     1       1.550 -12.202  12.681  0.00  0.00    +0.195 C 
ENDBRANCH  30  37
ENDBRANCH  13  30
TORSDOF 5
