REMARK  Name = CHEMBL402548
REMARK  8 active torsions:
REMARK  status: ('A' for Active; 'I' for Inactive)
REMARK    1  A    between atoms: C_1  and  N_2
REMARK    2  A    between atoms: N_5  and  C_8
REMARK    3  A    between atoms: C_11  and  C_14
REMARK    4  A    between atoms: N_16  and  C_17
REMARK    5  A    between atoms: C_26  and  C_28
REMARK    6  A    between atoms: C_28  and  C_30
REMARK    7  A    between atoms: C_28  and  O_36
REMARK    8  A    between atoms: O_36  and  C_37
REMARK                            x       y       z     vdW  Elec       q    Type
REMARK                         _______ _______ _______ _____ _____    ______ ____
ROOT
ATOM      1  C   UNL     1      -0.870  -8.932   5.103  0.00  0.00    +0.126 A 
ATOM      2  C   UNL     1      -0.423  -9.421   6.294  0.00  0.00    +0.034 A 
ATOM      3  C   UNL     1      -1.209 -10.525   6.627  0.00  0.00    +0.087 A 
ATOM      4  N   UNL     1      -2.098 -10.701   5.680  0.00  0.00    -0.175 NA
ATOM      5  H   UNL     1      -2.433  -9.597   3.899  0.00  0.00    +0.190 HD
ATOM      6  N   UNL     1      -1.911  -9.709   4.709  0.00  0.00    -0.263 N 
ATOM      7  C   UNL     1      -0.727 -11.079   7.944  0.00  0.00    +0.165 C 
ATOM      8  N   UNL     1       0.397 -10.251   8.394  0.00  0.00    -0.289 N 
ATOM      9  C   UNL     1       0.602  -9.213   7.379  0.00  0.00    +0.148 C 
ATOM     10  C   UNL     1       1.107 -10.414   9.527  0.00  0.00    +0.250 C 
ATOM     11  O   UNL     1       1.957  -9.604   9.832  0.00  0.00    -0.272 OA
ENDROOT
BRANCH   1  14
ATOM     12  C   UNL     1      -0.898  -7.457   3.243  0.00  0.00    +0.249 C 
ATOM     13  O   UNL     1      -1.836  -8.078   2.780  0.00  0.00    -0.270 OA
ATOM     14  N   UNL     1      -0.355  -7.833   4.418  0.00  0.00    -0.266 N 
ATOM     15  H   UNL     1       0.393  -7.338   4.787  0.00  0.00    +0.157 HD
BRANCH  12  19
ATOM     16  C   UNL     1       0.668  -4.107   1.156  0.00  0.00    +0.030 A 
ATOM     17  C   UNL     1      -0.405  -4.817   0.625  0.00  0.00    +0.024 A 
ATOM     18  C   UNL     1      -0.915  -5.903   1.298  0.00  0.00    +0.015 A 
ATOM     19  C   UNL     1      -0.353  -6.294   2.518  0.00  0.00    +0.037 A 
ATOM     20  C   UNL     1       0.725  -5.579   3.049  0.00  0.00    +0.015 A 
ATOM     21  C   UNL     1       1.233  -4.497   2.368  0.00  0.00    +0.024 A 
BRANCH  16  26
ATOM     22  C   UNL     1       1.179   1.054  -0.524  0.00  0.00    -0.096 C 
ATOM     23  N   UNL     1       1.485  -0.379  -0.419  0.00  0.00    +0.380 N 
ATOM     24  C   UNL     1       0.324  -1.160  -0.863  0.00  0.00    -0.060 C 
ATOM     25  C   UNL     1       0.681  -2.650  -0.863  0.00  0.00    +0.086 C 
ATOM     26  N   UNL     1       1.181  -3.010   0.473  0.00  0.00    -0.333 N 
ATOM     27  C   UNL     1       2.238  -2.176   1.066  0.00  0.00    +0.086 C 
ATOM     28  C   UNL     1       1.807  -0.708   0.975  0.00  0.00    -0.060 C 
ATOM     29  H   UNL     1       2.277  -0.596  -1.006  0.00  0.00    -0.082 HD
ENDBRANCH  16  26
ENDBRANCH  12  19
ENDBRANCH   1  14
BRANCH  10  30
ATOM     30  C   UNL     1       0.847 -11.603  10.415  0.00  0.00    +0.233 C 
BRANCH  30  31
ATOM     31  C   UNL     1       1.394 -12.847   9.764  0.00  0.00    -0.010 A 
ATOM     32  C   UNL     1       2.755 -13.092   9.776  0.00  0.00    +0.006 A 
ATOM     33  C   UNL     1       3.257 -14.232   9.179  0.00  0.00    +0.000 A 
ATOM     34  C   UNL     1       2.399 -15.128   8.569  0.00  0.00    +0.000 A 
ATOM     35  C   UNL     1       1.038 -14.883   8.557  0.00  0.00    +0.000 A 
ATOM     36  C   UNL     1       0.536 -13.745   9.158  0.00  0.00    +0.006 A 
ENDBRANCH  30  31
BRANCH  30  37
ATOM     37  O   UNL     1       1.488 -11.404  11.677  0.00  0.00    -0.366 OA
ATOM     38  C   UNL     1       0.824 -12.036  12.773  0.00  0.00    +0.195 C 
ENDBRANCH  30  37
ENDBRANCH  10  30
TORSDOF 6
