REMARK  Name = CHEMBL193136
REMARK  9 active torsions:
REMARK  status: ('A' for Active; 'I' for Inactive)
REMARK    1  A    between atoms: C_1  and  C_2
REMARK    2  A    between atoms: C_6  and  C_8
REMARK    3  A    between atoms: C_12  and  C_13
REMARK    4  A    between atoms: C_13  and  C_14
REMARK    5  A    between atoms: C_13  and  C_15
REMARK    6  A    between atoms: N_20  and  C_21
REMARK    7  A    between atoms: C_23  and  C_29
REMARK    8  A    between atoms: N_31  and  O_32
REMARK    9  A    between atoms: O_32  and  C_33
REMARK                            x       y       z     vdW  Elec       q    Type
REMARK                         _______ _______ _______ _____ _____    ______ ____
ROOT
ATOM      1  C   UNL     1       0.127  -3.117   1.444  0.00  0.00    +0.044 A 
ATOM      2  C   UNL     1       0.519  -2.913   2.751  0.00  0.00    +0.125 A 
ATOM      3  N   UNL     1       0.759  -4.106   3.323  0.00  0.00    -0.234 N 
ATOM      4  C   UNL     1       0.525  -5.102   2.394  0.00  0.00    +0.109 A 
ATOM      5  C   UNL     1       0.125  -4.504   1.217  0.00  0.00    -0.004 A 
ATOM      6  C   UNL     1       0.718  -6.449   2.785  0.00  0.00    +0.151 A 
ATOM      7  N   UNL     1       1.112  -6.713   4.019  0.00  0.00    -0.217 NA
ATOM      8  C   UNL     1       1.334  -5.742   4.904  0.00  0.00    +0.245 A 
ATOM      9  N   UNL     1       1.176  -4.481   4.609  0.00  0.00    -0.155 NA
ATOM     10  N   UNL     1       0.495  -7.475   1.888  0.00  0.00    -0.295 N 
ATOM     11  H   UNL     1       0.295  -7.274   0.961  0.00  0.00    +0.154 HD
ENDROOT
BRANCH  10  12
ATOM     12  C   UNL     1       0.558  -8.807   2.318  0.00  0.00    +0.069 A 
ATOM     13  C   UNL     1       0.415  -9.107   3.661  0.00  0.00    +0.042 A 
ATOM     14  C   UNL     1       0.478 -10.436   4.087  0.00  0.00    +0.076 A 
ATOM     15  C   UNL     1       0.686 -11.456   3.151  0.00  0.00    +0.138 A 
ATOM     16  C   UNL     1       0.828 -11.145   1.812  0.00  0.00    +0.079 A 
ATOM     17  C   UNL     1       0.759  -9.828   1.392  0.00  0.00    +0.147 A 
ATOM     18  F   UNL     1       0.893  -9.532   0.081  0.00  0.00    -0.203 F 
ATOM     19  F   UNL     1       0.748 -12.743   3.557  0.00  0.00    -0.205 F 
BRANCH  14  20
ATOM     20  C   UNL     1       0.326 -10.764   5.518  0.00  0.00    +0.270 C 
ATOM     21  O   UNL     1       0.382 -11.921   5.886  0.00  0.00    -0.268 OA
ATOM     22  N   UNL     1       0.126  -9.780   6.417  0.00  0.00    -0.191 N 
ATOM     23  H   UNL     1       0.082  -8.856   6.123  0.00  0.00    +0.183 HD
BRANCH  22  24
ATOM     24  O   UNL     1      -0.019 -10.094   7.790  0.00  0.00    -0.283 OA
ATOM     25  C   UNL     1      -0.225  -8.955   8.628  0.00  0.00    +0.226 C 
ENDBRANCH  22  24
ENDBRANCH  14  20
ENDBRANCH  10  12
BRANCH   1  31
ATOM     26  C   UNL     1      -0.716   1.389  -0.531  0.00  0.00    +0.087 C 
ATOM     27  C   UNL     1      -0.596  -0.106  -0.388  0.00  0.00    +0.122 A 
ATOM     28  N   UNL     1      -0.852  -1.012  -1.349  0.00  0.00    -0.262 N 
ATOM     29  H   UNL     1      -1.145  -0.830  -2.255  0.00  0.00    +0.190 HD
ATOM     30  N   UNL     1      -0.611  -2.274  -0.781  0.00  0.00    -0.152 NA
ATOM     31  C   UNL     1      -0.233  -2.065   0.460  0.00  0.00    +0.183 A 
ATOM     32  N   UNL     1      -0.221  -0.745   0.689  0.00  0.00    -0.212 NA
ENDBRANCH   1  31
BRANCH   5  33
ATOM     33  C   UNL     1      -0.241  -5.204  -0.066  0.00  0.00    +0.016 C 
ATOM     34  C   UNL     1      -1.681  -4.852  -0.446  0.00  0.00    +0.012 C 
ATOM     35  C   UNL     1       0.705  -4.753  -1.181  0.00  0.00    +0.012 C 
ENDBRANCH   5  33
TORSDOF 5
