REMARK  Name = CHEMBL378003
REMARK  2 active torsions:
REMARK  status: ('A' for Active; 'I' for Inactive)
REMARK    1  A    between atoms: C_7  and  C_11
REMARK    2  A    between atoms: C_17  and  N_21
REMARK                            x       y       z     vdW  Elec       q    Type
REMARK                         _______ _______ _______ _____ _____    ______ ____
ROOT
ATOM      1  C   UNL     1      -4.336   3.138   0.062  0.00  0.00    +0.160 A 
ATOM      2  N   UNL     1      -5.661   3.483   0.082  0.00  0.00    -0.337 N 
ATOM      3  H   UNL     1      -6.415   2.873   0.089  0.00  0.00    +0.167 HD
ATOM      4  C   UNL     1      -5.723   4.865   0.090  0.00  0.00    +0.067 A 
ATOM      5  C   UNL     1      -6.768   5.779   0.108  0.00  0.00    +0.030 A 
ATOM      6  C   UNL     1      -6.499   7.130   0.111  0.00  0.00    +0.028 A 
ATOM      7  C   UNL     1      -5.183   7.588   0.094  0.00  0.00    +0.050 A 
ATOM      8  C   UNL     1      -4.132   6.691   0.075  0.00  0.00    +0.056 A 
ATOM      9  C   UNL     1      -4.392   5.317   0.074  0.00  0.00    +0.091 A 
ATOM     10  N   UNL     1      -3.596   4.221   0.062  0.00  0.00    -0.226 NA
ENDROOT
BRANCH   1  17
ATOM     11  C   UNL     1      -0.017   1.385   0.010  0.00  0.00    +0.001 A 
ATOM     12  C   UNL     1       0.002  -0.004   0.002  0.00  0.00    +0.002 A 
ATOM     13  C   UNL     1      -1.173  -0.721   0.009  0.00  0.00    +0.028 A 
ATOM     14  C   UNL     1      -2.392  -0.049   0.025  0.00  0.00    +0.066 A 
ATOM     15  C   UNL     1      -2.406   1.357   0.033  0.00  0.00    +0.030 A 
ATOM     16  C   UNL     1      -1.202   2.063   0.030  0.00  0.00    +0.012 A 
ATOM     17  C   UNL     1      -3.819   1.755   0.049  0.00  0.00    +0.135 A 
ATOM     18  N   UNL     1      -4.539   0.657   0.049  0.00  0.00    -0.170 NA
ATOM     19  H   UNL     1      -3.998  -1.385   0.033  0.00  0.00    +0.189 HD
ATOM     20  N   UNL     1      -3.701  -0.462   0.035  0.00  0.00    -0.276 N 
ENDBRANCH   1  17
BRANCH   7  21
ATOM     21  N   UNL     1      -4.923   8.967   0.097  0.00  0.00    -0.306 N 
ATOM     22  C   UNL     1      -5.856   9.972   0.120  0.00  0.00    +0.112 A 
ATOM     23  C   UNL     1      -5.177  11.134   0.113  0.00  0.00    +0.130 A 
ATOM     24  N   UNL     1      -3.866  10.854   0.087  0.00  0.00    -0.244 NA
ATOM     25  C   UNL     1      -3.701   9.559   0.083  0.00  0.00    +0.204 A 
ENDBRANCH   7  21
TORSDOF 2
