REMARK  Name = CHEMBL526507
REMARK  7 active torsions:
REMARK  status: ('A' for Active; 'I' for Inactive)
REMARK    1  A    between atoms: C_1  and  N_2
REMARK    2  A    between atoms: N_5  and  C_8
REMARK    3  A    between atoms: C_15  and  C_17
REMARK    4  A    between atoms: C_18  and  N_39
REMARK    5  A    between atoms: C_21  and  C_29
REMARK    6  A    between atoms: N_31  and  C_32
REMARK    7  A    between atoms: C_32  and  C_33
REMARK                            x       y       z     vdW  Elec       q    Type
REMARK                         _______ _______ _______ _____ _____    ______ ____
ROOT
ATOM      1  C   UNL     1      -0.781  -7.800   6.077  0.00  0.00    +0.103 A 
ATOM      2  C   UNL     1      -1.788  -8.721   6.372  0.00  0.00    +0.050 A 
ATOM      3  C   UNL     1      -1.541  -9.695   7.444  0.00  0.00    +0.021 A 
ATOM      4  C   UNL     1      -2.506 -10.642   7.787  0.00  0.00    +0.024 A 
ATOM      5  C   UNL     1      -2.238 -11.550   8.807  0.00  0.00    +0.037 A 
ATOM      6  C   UNL     1      -1.008 -11.509   9.478  0.00  0.00    +0.015 A 
ATOM      7  C   UNL     1      -0.064 -10.584   9.144  0.00  0.00    +0.027 A 
ATOM      8  C   UNL     1      -0.310  -9.665   8.126  0.00  0.00    +0.051 A 
ATOM      9  N   UNL     1       0.642  -8.729   7.784  0.00  0.00    -0.321 N 
ATOM     10  H   UNL     1       1.487  -8.718   8.261  0.00  0.00    +0.169 HD
ATOM     11  C   UNL     1       0.433  -7.836   6.803  0.00  0.00    +0.262 A 
ATOM     12  O   UNL     1       1.310  -7.032   6.535  0.00  0.00    -0.267 OA
ENDROOT
BRANCH   1  20
ATOM     13  C   UNL     1      -0.999  -3.568   1.822  0.00  0.00    +0.032 A 
ATOM     14  C   UNL     1      -2.314  -4.016   1.708  0.00  0.00    +0.025 A 
ATOM     15  C   UNL     1      -2.776  -5.024   2.504  0.00  0.00    +0.032 A 
ATOM     16  C   UNL     1      -1.928  -5.617   3.445  0.00  0.00    +0.090 A 
ATOM     17  C   UNL     1      -0.601  -5.167   3.563  0.00  0.00    +0.068 A 
ATOM     18  C   UNL     1      -0.142  -4.146   2.744  0.00  0.00    +0.051 A 
ATOM     19  N   UNL     1      -0.020  -5.931   4.559  0.00  0.00    -0.338 N 
ATOM     20  C   UNL     1      -0.978  -6.802   5.012  0.00  0.00    +0.146 A 
ATOM     21  N   UNL     1      -2.097  -6.612   4.352  0.00  0.00    -0.227 NA
ATOM     22  H   UNL     1       0.893  -5.863   4.878  0.00  0.00    +0.167 HD
BRANCH  13  27
ATOM     23  C   UNL     1      -0.069   1.518   0.070  0.00  0.00    -0.096 C 
ATOM     24  N   UNL     1      -0.040   0.049   0.058  0.00  0.00    +0.380 N 
ATOM     25  C   UNL     1      -1.415  -0.465   0.052  0.00  0.00    -0.060 C 
ATOM     26  C   UNL     1      -1.388  -1.992  -0.076  0.00  0.00    +0.086 C 
ATOM     27  N   UNL     1      -0.541  -2.535   0.998  0.00  0.00    -0.333 N 
ATOM     28  C   UNL     1       0.800  -1.959   1.181  0.00  0.00    +0.086 C 
ATOM     29  C   UNL     1       0.669  -0.434   1.249  0.00  0.00    -0.060 C 
ATOM     30  H   UNL     1       0.439  -0.270  -0.770  0.00  0.00    -0.082 HD
ENDBRANCH  13  27
ENDBRANCH   1  20
BRANCH   5  31
ATOM     31  C   UNL     1      -3.250 -12.558   9.182  0.00  0.00    +0.244 C 
ATOM     32  O   UNL     1      -4.317 -12.594   8.601  0.00  0.00    -0.270 OA
ATOM     33  N   UNL     1      -2.991 -13.438  10.170  0.00  0.00    -0.307 N 
ATOM     34  H   UNL     1      -2.140 -13.409  10.634  0.00  0.00    +0.149 HD
BRANCH  33  35
ATOM     35  C   UNL     1      -3.996 -14.437  10.542  0.00  0.00    +0.139 C 
BRANCH  35  36
ATOM     36  C   UNL     1      -3.462 -15.292  11.663  0.00  0.00    -0.030 A 
ATOM     37  C   UNL     1      -2.752 -16.442  11.378  0.00  0.00    +0.005 A 
ATOM     38  C   UNL     1      -2.263 -17.226  12.406  0.00  0.00    +0.000 A 
ATOM     39  C   UNL     1      -2.484 -16.859  13.720  0.00  0.00    +0.000 A 
ATOM     40  C   UNL     1      -3.194 -15.707  14.006  0.00  0.00    +0.000 A 
ATOM     41  C   UNL     1      -3.680 -14.922  12.977  0.00  0.00    +0.005 A 
ENDBRANCH  35  36
ENDBRANCH  33  35
ENDBRANCH   5  31
BRANCH   2  42
ATOM     42  N   UNL     1      -2.975  -8.715   5.681  0.00  0.00    -0.357 N 
ATOM     43  H   UNL     1      -3.093  -8.120   4.924  0.00  0.00    +0.142 HD
ATOM     44  H   UNL     1      -3.696  -9.305   5.951  0.00  0.00    +0.142 HD
ENDBRANCH   2  42
TORSDOF 6
