REMARK  Name = ZINC46086690
REMARK  7 active torsions:
REMARK  status: ('A' for Active; 'I' for Inactive)
REMARK    1  A    between atoms: C_1  and  C_2
REMARK    2  A    between atoms: C_2  and  C_3
REMARK    3  A    between atoms: C_12  and  C_14
REMARK    4  A    between atoms: N_16  and  C_17
REMARK    5  A    between atoms: C_20  and  S_23
REMARK    6  A    between atoms: S_23  and  N_26
REMARK    7  A    between atoms: C_28  and  C_37
REMARK                            x       y       z     vdW  Elec       q    Type
REMARK                         _______ _______ _______ _____ _____    ______ ____
ROOT
ATOM      1  C   UNL     1       4.352  -2.409  -8.415  0.00  0.00    +0.034 A 
ATOM      2  C   UNL     1       5.738  -2.446  -8.506  0.00  0.00    +0.025 A 
ATOM      3  C   UNL     1       6.342  -2.689  -9.723  0.00  0.00    +0.030 A 
ATOM      4  C   UNL     1       5.569  -2.895 -10.852  0.00  0.00    +0.109 A 
ATOM      5  C   UNL     1       4.189  -2.859 -10.764  0.00  0.00    +0.030 A 
ATOM      6  C   UNL     1       3.579  -2.622  -9.549  0.00  0.00    +0.025 A 
ENDROOT
BRANCH   1   9
ATOM      7  C   UNL     1       2.577  -2.776  -6.876  0.00  0.00    +0.284 C 
ATOM      8  O   UNL     1       2.022  -3.476  -7.700  0.00  0.00    -0.266 OA
ATOM      9  N   UNL     1       3.737  -2.163  -7.184  0.00  0.00    -0.279 N 
ATOM     10  H   UNL     1       4.146  -1.552  -6.551  0.00  0.00    +0.155 HD
BRANCH   7  20
ATOM     11  C   UNL     1       1.652  -1.910  -0.632  0.00  0.00    -0.047 A 
ATOM     12  C   UNL     1       2.835  -1.321  -1.056  0.00  0.00    +0.007 A 
ATOM     13  C   UNL     1       3.168  -1.287  -2.393  0.00  0.00    +0.047 A 
ATOM     14  C   UNL     1       2.311  -1.849  -3.334  0.00  0.00    +0.139 A 
ATOM     15  C   UNL     1       1.117  -2.449  -2.895  0.00  0.00    +0.064 A 
ATOM     16  C   UNL     1       0.798  -2.475  -1.539  0.00  0.00    +0.019 A 
ATOM     17  C   UNL     1       0.231  -3.055  -3.909  0.00  0.00    +0.193 A 
ATOM     18  O   UNL     1      -0.910  -3.393  -3.650  0.00  0.00    -0.287 OA
ATOM     19  C   UNL     1       0.810  -3.225  -5.253  0.00  0.00    +0.103 A 
ATOM     20  C   UNL     1       1.978  -2.596  -5.533  0.00  0.00    +0.194 A 
ATOM     21  O   UNL     1       2.614  -1.819  -4.645  0.00  0.00    -0.450 OA
BRANCH  11  23
ATOM     22  C   UNL     1       1.877  -3.200   1.473  0.00  0.00    +0.009 C 
ATOM     23  C   UNL     1       1.308  -1.931   0.835  0.00  0.00    +0.032 C 
ENDBRANCH  11  23
ENDBRANCH   7  20
ENDBRANCH   1   9
BRANCH   4  24
ATOM     24  S   UNL     1       6.344  -3.204 -12.403  0.00  0.00    +0.075 S 
ATOM     25  O   UNL     1       5.412  -2.823 -13.406  0.00  0.00    -0.150 OA
ATOM     26  O   UNL     1       7.649  -2.646 -12.325  0.00  0.00    -0.150 OA
BRANCH  24  27
ATOM     27  N   UNL     1       6.538  -4.843 -12.536  0.00  0.00    -0.196 N 
ATOM     28  C   UNL     1       7.757  -5.508 -12.044  0.00  0.00    +0.176 C 
ATOM     29  C   UNL     1       8.166  -6.558 -13.088  0.00  0.00    +0.189 C 
ATOM     30  O   UNL     1       7.084  -7.475 -13.267  0.00  0.00    -0.486 OA
ATOM     31  C   UNL     1       5.845  -6.959 -13.480  0.00  0.00    +0.143 A 
ATOM     32  C   UNL     1       5.545  -5.648 -13.116  0.00  0.00    +0.093 A 
ATOM     33  C   UNL     1       4.275  -5.137 -13.330  0.00  0.00    +0.028 A 
ATOM     34  C   UNL     1       3.300  -5.933 -13.904  0.00  0.00    +0.002 A 
ATOM     35  C   UNL     1       3.592  -7.235 -14.264  0.00  0.00    +0.004 A 
ATOM     36  C   UNL     1       4.864  -7.748 -14.061  0.00  0.00    +0.047 A 
ATOM     37  C   UNL     1       9.405  -7.311 -12.600  0.00  0.00    +0.053 C 
ENDBRANCH  24  27
ENDBRANCH   4  24
TORSDOF 5
