REMARK  Name = ZINC40247934
REMARK  3 active torsions:
REMARK  status: ('A' for Active; 'I' for Inactive)
REMARK    1  A    between atoms: C_6  and  C_7
REMARK    2  A    between atoms: C_7  and  C_9
REMARK    3  A    between atoms: C_7  and  O_17
REMARK                            x       y       z     vdW  Elec       q    Type
REMARK                         _______ _______ _______ _____ _____    ______ ____
ROOT
ATOM      1  C   UNL     1      -0.017   1.380   0.010  0.00  0.00    +0.008 A 
ATOM      2  C   UNL     1       1.167   2.093   0.002  0.00  0.00    +0.028 A 
ATOM      3  C   UNL     1       2.378   1.419  -0.013  0.00  0.00    +0.067 A 
ATOM      4  C   UNL     1       2.397   0.022  -0.021  0.00  0.00    +0.067 A 
ATOM      5  C   UNL     1       1.204  -0.684  -0.014  0.00  0.00    +0.034 A 
ATOM      6  C   UNL     1       0.002  -0.004   0.002  0.00  0.00    -0.013 A 
ATOM      7  N   UNL     1       3.736  -0.362  -0.035  0.00  0.00    -0.306 N 
ATOM      8  H   UNL     1       4.064  -1.275  -0.043  0.00  0.00    +0.170 HD
ATOM      9  C   UNL     1       4.496   0.749  -0.035  0.00  0.00    +0.325 A 
ATOM     10  O   UNL     1       5.713   0.766  -0.047  0.00  0.00    -0.247 OA
ATOM     11  N   UNL     1       3.706   1.839  -0.023  0.00  0.00    -0.306 N 
ATOM     12  H   UNL     1       4.010   2.760  -0.020  0.00  0.00    +0.170 HD
ENDROOT
BRANCH   6  13
ATOM     13  C   UNL     1      -1.294  -0.772   0.011  0.00  0.00    +0.176 C 
BRANCH  13  14
ATOM     14  C   UNL     1      -1.804  -0.914  -1.401  0.00  0.00    +0.004 A 
ATOM     15  C   UNL     1      -2.720  -0.007  -1.899  0.00  0.00    +0.009 A 
ATOM     16  C   UNL     1      -3.188  -0.136  -3.193  0.00  0.00    +0.016 A 
ATOM     17  C   UNL     1      -2.739  -1.174  -3.990  0.00  0.00    +0.019 A 
ATOM     18  C   UNL     1      -1.822  -2.082  -3.493  0.00  0.00    +0.035 A 
ATOM     19  C   UNL     1      -1.350  -1.948  -2.199  0.00  0.00    +0.048 A 
ATOM     20 CL   UNL     1      -0.194  -3.084  -1.575  0.00  0.00    -0.083 Cl
ATOM     21 BR   UNL     1      -3.380  -1.352  -5.761  0.00  0.00    -0.050 Br
ENDBRANCH  13  14
BRANCH  13  22
ATOM     22  O   UNL     1      -2.259  -0.069   0.797  0.00  0.00    -0.382 OA
ATOM     23  H   UNL     1      -2.457   0.820   0.474  0.00  0.00    +0.211 HD
ENDBRANCH  13  22
ENDBRANCH   6  13
TORSDOF 3
