REMARK  Name = ZINC63302914
REMARK  11 active torsions:
REMARK  status: ('A' for Active; 'I' for Inactive)
REMARK    1  A    between atoms: C_1  and  C_2
REMARK    2  A    between atoms: C_2  and  C_4
REMARK    3  A    between atoms: C_2  and  N_17
REMARK    4  A    between atoms: C_4  and  N_6
REMARK    5  A    between atoms: C_18  and  C_20
REMARK    6  A    between atoms: C_25  and  O_34
REMARK    7  A    between atoms: C_26  and  O_32
REMARK    8  A    between atoms: C_27  and  O_30
REMARK    9  A    between atoms: O_30  and  C_31
REMARK   10  A    between atoms: O_32  and  C_33
REMARK   11  A    between atoms: O_34  and  C_35
REMARK                            x       y       z     vdW  Elec       q    Type
REMARK                         _______ _______ _______ _____ _____    ______ ____
ROOT
ATOM      1  N   UNL     1      -1.505  -0.596   0.053  0.00  0.00    -0.302 N 
ATOM      2  C   UNL     1      -2.191  -0.759  -1.095  0.00  0.00    +0.240 C 
ATOM      3  O   UNL     1      -1.669  -0.492  -2.157  0.00  0.00    -0.273 OA
ATOM      4  H   UNL     1      -1.922  -0.809   0.902  0.00  0.00    +0.150 HD
ENDROOT
BRANCH   2   5
ATOM      5  C   UNL     1      -3.608  -1.272  -1.060  0.00  0.00    +0.190 C 
ATOM      6  C   UNL     1      -3.642  -2.668  -0.479  0.00  0.00    +0.017 C 
ATOM      7  C   UNL     1      -4.145  -3.466  -1.445  0.00  0.00    +0.004 A 
ATOM      8  C   UNL     1      -4.424  -4.906  -1.501  0.00  0.00    +0.059 A 
ATOM      9  C   UNL     1      -4.942  -5.444  -2.629  0.00  0.00    +0.166 A 
ATOM     10  C   UNL     1      -5.228  -4.667  -3.771  0.00  0.00    +0.206 A 
ATOM     11  C   UNL     1      -5.004  -3.327  -3.815  0.00  0.00    +0.189 A 
ATOM     12  C   UNL     1      -4.444  -2.646  -2.643  0.00  0.00    +0.089 A 
ATOM     13  N   UNL     1      -4.138  -1.389  -2.423  0.00  0.00    -0.367 N 
ATOM     14  H   UNL     1      -4.243  -0.660  -3.054  0.00  0.00    +0.161 HD
BRANCH  11  15
ATOM     15  O   UNL     1      -5.297  -2.621  -4.941  0.00  0.00    -0.489 OA
ATOM     16  C   UNL     1      -4.230  -2.402  -5.866  0.00  0.00    +0.277 C 
ENDBRANCH  11  15
BRANCH  10  17
ATOM     17  O   UNL     1      -5.746  -5.279  -4.867  0.00  0.00    -0.488 OA
ATOM     18  C   UNL     1      -7.169  -5.268  -5.005  0.00  0.00    +0.277 C 
ENDBRANCH  10  17
BRANCH   9  19
ATOM     19  O   UNL     1      -5.194  -6.779  -2.664  0.00  0.00    -0.491 OA
ATOM     20  C   UNL     1      -4.889  -7.528  -1.486  0.00  0.00    +0.277 C 
ENDBRANCH   9  19
ENDBRANCH   2   5
BRANCH   1  22
ATOM     21  C   UNL     1      -0.141   1.433  -0.019  0.00  0.00    +0.038 C 
ATOM     22  C   UNL     1      -0.128  -0.096   0.018  0.00  0.00    +0.158 C 
BRANCH  22  23
ATOM     23  C   UNL     1       0.606  -0.562   1.249  0.00  0.00    +0.258 C 
ATOM     24  O   UNL     1       0.034  -1.246   2.076  0.00  0.00    -0.272 OA
BRANCH  23  25
ATOM     25  N   UNL     1       1.879  -0.226   1.431  0.00  0.00    -0.155 NA
ATOM     26  C   UNL     1       2.497  -0.547   2.565  0.00  0.00    +0.164 A 
ATOM     27  N   UNL     1       2.023  -1.306   3.585  0.00  0.00    -0.335 N 
ATOM     28  H   UNL     1       1.131  -1.686   3.535  0.00  0.00    +0.168 HD
ATOM     29  C   UNL     1       2.813  -1.537   4.696  0.00  0.00    +0.055 A 
ATOM     30  C   UNL     1       2.525  -2.282   5.848  0.00  0.00    +0.027 A 
ATOM     31  C   UNL     1       3.452  -2.396   6.857  0.00  0.00    +0.002 A 
ATOM     32  C   UNL     1       4.691  -1.784   6.767  0.00  0.00    +0.001 A 
ATOM     33  C   UNL     1       5.000  -1.043   5.639  0.00  0.00    +0.017 A 
ATOM     34  C   UNL     1       4.074  -0.928   4.629  0.00  0.00    +0.039 A 
ATOM     35  S   UNL     1       4.045  -0.112   3.055  0.00  0.00    -0.052 S 
ENDBRANCH  23  25
ENDBRANCH  22  23
ENDBRANCH   1  22
TORSDOF 7
