REMARK  Name = ZINC36876028
REMARK  11 active torsions:
REMARK  status: ('A' for Active; 'I' for Inactive)
REMARK    1  A    between atoms: C_1  and  C_2
REMARK    2  A    between atoms: C_2  and  C_3
REMARK    3  A    between atoms: C_3  and  C_25
REMARK    4  A    between atoms: N_6  and  C_10
REMARK    5  A    between atoms: C_10  and  C_11
REMARK    6  A    between atoms: N_13  and  C_14
REMARK    7  A    between atoms: C_15  and  C_21
REMARK    8  A    between atoms: C_16  and  C_20
REMARK    9  A    between atoms: C_17  and  C_19
REMARK   10  A    between atoms: C_21  and  O_23
REMARK   11  A    between atoms: O_23  and  C_24
REMARK                            x       y       z     vdW  Elec       q    Type
REMARK                         _______ _______ _______ _____ _____    ______ ____
ROOT
ATOM      1  C   UNL     1       0.718  -0.497  -1.257  0.00  0.00    +0.138 C 
ATOM      2  C   UNL     1       2.144   0.016  -1.295  0.00  0.00    +0.251 C 
ATOM      3  O   UNL     1       3.025  -0.210  -0.494  0.00  0.00    -0.272 OA
ATOM      4  N   UNL     1       2.228   0.775  -2.405  0.00  0.00    -0.215 N 
ATOM      5  C   UNL     1       1.066   0.812  -3.067  0.00  0.00    +0.310 C 
ATOM      6  O   UNL     1       0.895   1.432  -4.099  0.00  0.00    -0.252 OA
ATOM      7  N   UNL     1       0.107   0.087  -2.463  0.00  0.00    -0.281 N 
ATOM      8  H   UNL     1      -0.807  -0.029  -2.764  0.00  0.00    +0.152 HD
ENDROOT
BRANCH   1   9
ATOM      9  C   UNL     1       0.691  -2.003  -1.325  0.00  0.00    -0.015 A 
ATOM     10  C   UNL     1       0.664  -2.747  -0.160  0.00  0.00    +0.007 A 
ATOM     11  C   UNL     1       0.639  -4.127  -0.221  0.00  0.00    +0.020 A 
ATOM     12  C   UNL     1       0.641  -4.765  -1.449  0.00  0.00    +0.041 A 
ATOM     13  C   UNL     1       0.669  -4.020  -2.615  0.00  0.00    +0.020 A 
ATOM     14  C   UNL     1       0.688  -2.639  -2.552  0.00  0.00    +0.007 A 
ATOM     15 CL   UNL     1       0.611  -6.498  -1.528  0.00  0.00    -0.084 Cl
ENDBRANCH   1   9
BRANCH   1  17
ATOM     16  C   UNL     1      -0.019   1.526   0.010  0.00  0.00    +0.007 C 
ATOM     17  C   UNL     1       0.002  -0.004   0.002  0.00  0.00    +0.037 C 
ENDBRANCH   1  17
BRANCH   4  18
ATOM     18  C   UNL     1       3.442   1.474  -2.834  0.00  0.00    +0.214 C 
BRANCH  18  19
ATOM     19  C   UNL     1       4.250   0.572  -3.732  0.00  0.00    +0.236 C 
ATOM     20  O   UNL     1       3.851  -0.544  -3.988  0.00  0.00    -0.274 OA
ATOM     21  N   UNL     1       5.416   1.006  -4.250  0.00  0.00    -0.278 N 
ATOM     22  H   UNL     1       5.735   1.899  -4.045  0.00  0.00    +0.155 HD
BRANCH  21  23
ATOM     23  C   UNL     1       6.159   0.177  -5.076  0.00  0.00    +0.086 A 
ATOM     24  C   UNL     1       7.374   0.450  -5.689  0.00  0.00    +0.091 A 
ATOM     25  C   UNL     1       7.936  -0.603  -6.505  0.00  0.00    -0.025 A 
ATOM     26  C   UNL     1       7.215  -1.736  -6.579  0.00  0.00    -0.008 A 
ATOM     27  S   UNL     1       5.800  -1.390  -5.557  0.00  0.00    -0.078 S 
ATOM     28  C   UNL     1       7.531  -2.997  -7.341  0.00  0.00    +0.052 C 
ATOM     29  C   UNL     1       9.249  -0.441  -7.228  0.00  0.00    +0.045 C 
BRANCH  24  30
ATOM     30  C   UNL     1       8.051   1.737  -5.519  0.00  0.00    +0.342 C 
ATOM     31  O   UNL     1       8.842   1.893  -4.608  0.00  0.00    -0.245 OA
BRANCH  30  32
ATOM     32  O   UNL     1       7.798   2.750  -6.372  0.00  0.00    -0.464 OA
ATOM     33  C   UNL     1       8.494   3.978  -6.147  0.00  0.00    +0.280 C 
ENDBRANCH  30  32
ENDBRANCH  24  30
ENDBRANCH  21  23
ENDBRANCH  18  19
ENDBRANCH   4  18
TORSDOF 7
