REMARK  Name = ZINC15775105
REMARK  6 active torsions:
REMARK  status: ('A' for Active; 'I' for Inactive)
REMARK    1  A    between atoms: C_6  and  N_7
REMARK    2  A    between atoms: N_7  and  N_8
REMARK    3  A    between atoms: C_12  and  C_17
REMARK    4  A    between atoms: C_17  and  C_19
REMARK    5  A    between atoms: C_17  and  O_21
REMARK    6  A    between atoms: C_19  and  O_20
REMARK                            x       y       z     vdW  Elec       q    Type
REMARK                         _______ _______ _______ _____ _____    ______ ____
ROOT
ATOM      1  N   UNL     1      -1.177  -2.009   0.003  0.00  0.00    -0.172 NA
ATOM      2  C   UNL     1      -2.311  -2.687   0.011  0.00  0.00    +0.211 C 
ATOM      3  C   UNL     1      -2.460  -4.148   0.010  0.00  0.00    +0.233 C 
ATOM      4  O   UNL     1      -1.577  -4.981   0.003  0.00  0.00    -0.286 OA
ATOM      5  C   UNL     1      -3.953  -4.387   0.021  0.00  0.00    +0.280 C 
ATOM      6  O   UNL     1      -4.583  -3.106   0.027  0.00  0.00    -0.446 OA
ATOM      7  C   UNL     1      -3.669  -2.125   0.028  0.00  0.00    +0.364 C 
ATOM      8  O   UNL     1      -3.928  -0.937   0.038  0.00  0.00    -0.243 OA
ENDROOT
BRANCH   1   9
ATOM      9  N   UNL     1      -1.196  -0.720   0.010  0.00  0.00    -0.237 N 
ATOM     10  H   UNL     1      -2.043  -0.247   0.021  0.00  0.00    +0.174 HD
BRANCH   9  16
ATOM     11  C   UNL     1      -0.017   1.386   0.010  0.00  0.00    +0.026 A 
ATOM     12  C   UNL     1       1.170   2.091   0.002  0.00  0.00    +0.017 A 
ATOM     13  C   UNL     1       2.378   1.415  -0.013  0.00  0.00    +0.018 A 
ATOM     14  C   UNL     1       2.400   0.032  -0.022  0.00  0.00    +0.017 A 
ATOM     15  C   UNL     1       1.217  -0.680  -0.014  0.00  0.00    +0.026 A 
ATOM     16  C   UNL     1       0.002  -0.004   0.002  0.00  0.00    +0.048 A 
ATOM     17 BR   UNL     1       4.001   2.385  -0.024  0.00  0.00    -0.050 Br
ENDBRANCH   9  16
ENDBRANCH   1   9
BRANCH   5  18
ATOM     18  C   UNL     1      -4.346  -5.171   1.274  0.00  0.00    +0.188 C 
BRANCH  18  19
ATOM     19  O   UNL     1      -3.667  -6.429   1.282  0.00  0.00    -0.385 OA
ATOM     20  H   UNL     1      -3.869  -6.989   0.520  0.00  0.00    +0.210 HD
ENDBRANCH  18  19
BRANCH  18  21
ATOM     21  C   UNL     1      -5.858  -5.408   1.275  0.00  0.00    +0.191 C 
BRANCH  21  22
ATOM     22  O   UNL     1      -6.241  -6.037   2.499  0.00  0.00    -0.392 OA
ATOM     23  H   UNL     1      -7.189  -6.218   2.569  0.00  0.00    +0.210 HD
ENDBRANCH  21  22
ENDBRANCH  18  21
ENDBRANCH   5  18
TORSDOF 6
