REMARK  Name = ZINC36355040
REMARK  5 active torsions:
REMARK  status: ('A' for Active; 'I' for Inactive)
REMARK    1  A    between atoms: C_1  and  C_2
REMARK    2  A    between atoms: C_5  and  S_8
REMARK    3  A    between atoms: S_8  and  N_11
REMARK    4  A    between atoms: C_17  and  C_19
REMARK    5  A    between atoms: C_19  and  C_20
REMARK                            x       y       z     vdW  Elec       q    Type
REMARK                         _______ _______ _______ _____ _____    ______ ____
ROOT
ATOM      1  N   UNL     1       3.751  -4.645   1.032  0.00  0.00    -0.163 NA
ATOM      2  C   UNL     1       4.670  -4.544   2.178  0.00  0.00    +0.129 C 
ATOM      3  C   UNL     1       4.088  -3.534   3.169  0.00  0.00    +0.121 C 
ATOM      4  N   UNL     1       2.671  -3.788   3.394  0.00  0.00    -0.313 N 
ATOM      5  C   UNL     1       1.879  -4.457   2.555  0.00  0.00    +0.232 C 
ATOM      6  O   UNL     1       0.697  -4.535   2.814  0.00  0.00    -0.274 OA
ATOM      7  C   UNL     1       2.383  -5.112   1.303  0.00  0.00    +0.174 C 
ATOM      8  H   UNL     1       2.276  -3.446   4.211  0.00  0.00    +0.149 HD
ENDROOT
BRANCH   1   9
ATOM      9  S   UNL     1       4.237  -4.243  -0.499  0.00  0.00    +0.062 S 
ATOM     10  O   UNL     1       3.460  -5.030  -1.392  0.00  0.00    -0.153 OA
ATOM     11  O   UNL     1       5.657  -4.273  -0.496  0.00  0.00    -0.153 OA
BRANCH   9  16
ATOM     12  C   UNL     1       2.638   1.500  -1.430  0.00  0.00    +0.044 C 
ATOM     13  C   UNL     1       3.037   0.066  -1.198  0.00  0.00    -0.050 A 
ATOM     14  C   UNL     1       4.276  -0.228  -0.659  0.00  0.00    +0.005 A 
ATOM     15  C   UNL     1       4.642  -1.544  -0.446  0.00  0.00    +0.029 A 
ATOM     16  C   UNL     1       3.769  -2.566  -0.770  0.00  0.00    +0.106 A 
ATOM     17  C   UNL     1       2.530  -2.272  -1.308  0.00  0.00    +0.029 A 
ATOM     18  C   UNL     1       2.162  -0.956  -1.517  0.00  0.00    +0.005 A 
ENDBRANCH   9  16
ENDBRANCH   1   9
BRANCH   7  19
ATOM     19  C   UNL     1       2.388  -6.630   1.491  0.00  0.00    +0.126 C 
BRANCH  19  20
ATOM     20  C   UNL     1       0.969  -7.128   1.594  0.00  0.00    +0.218 C 
ATOM     21  O   UNL     1       0.044  -6.368   1.399  0.00  0.00    -0.276 OA
ATOM     22  N   UNL     1       0.728  -8.418   1.901  0.00  0.00    -0.298 N 
ATOM     23  C   UNL     1       1.839  -9.349   2.146  0.00  0.00    +0.126 C 
ATOM     24  C   UNL     1       1.647  -9.989   3.526  0.00  0.00    +0.125 C 
ATOM     25  N   UNL     1       0.269 -10.490   3.624  0.00  0.00    -0.314 N 
ATOM     26  C   UNL     1      -0.842  -9.559   3.380  0.00  0.00    +0.125 C 
ATOM     27  C   UNL     1      -0.650  -8.918   2.005  0.00  0.00    +0.126 C 
ATOM     28  C   UNL     1       0.021 -11.820   3.942  0.00  0.00    +0.099 A 
ATOM     29  C   UNL     1       1.082 -12.715   4.044  0.00  0.00    +0.042 A 
ATOM     30  C   UNL     1       0.820 -14.035   4.361  0.00  0.00    +0.005 A 
ATOM     31  C   UNL     1      -0.499 -14.419   4.565  0.00  0.00    +0.018 A 
ATOM     32  C   UNL     1      -1.503 -13.479   4.447  0.00  0.00    +0.084 A 
ATOM     33  N   UNL     1      -1.223 -12.224   4.149  0.00  0.00    -0.350 N 
ATOM     34  H   UNL     1      -1.947 -11.582   4.077  0.00  0.00    +0.166 HD
ENDBRANCH  19  20
ENDBRANCH   7  19
TORSDOF 4
