REMARK  Name = ZINC09607364
REMARK  6 active torsions:
REMARK  status: ('A' for Active; 'I' for Inactive)
REMARK    1  A    between atoms: C_1  and  N_48
REMARK    2  A    between atoms: C_2  and  C_3
REMARK    3  A    between atoms: C_2  and  N_48
REMARK    4  A    between atoms: C_15  and  N_48
REMARK    5  A    between atoms: N_20  and  C_23
REMARK    6  A    between atoms: C_27  and  C_29
REMARK                            x       y       z     vdW  Elec       q    Type
REMARK                         _______ _______ _______ _____ _____    ______ ____
ROOT
ATOM      1  C   UNL     1      -0.460  -4.075  -0.243  0.00  0.00    +0.029 C 
ATOM      2  C   UNL     1      -1.954  -4.441  -0.359  0.00  0.00    +0.090 C 
ATOM      3  C   UNL     1      -2.080  -4.976  -1.769  0.00  0.00    +0.225 C 
ATOM      4  O   UNL     1      -3.103  -5.381  -2.278  0.00  0.00    -0.275 OA
ATOM      5  N   UNL     1      -0.882  -4.931  -2.366  0.00  0.00    -0.212 N 
ATOM      6  C   UNL     1       0.101  -4.443  -1.600  0.00  0.00    +0.213 C 
ATOM      7  O   UNL     1       1.258  -4.315  -1.939  0.00  0.00    -0.277 OA
ENDROOT
BRANCH   5   8
ATOM      8  C   UNL     1      -0.674  -5.361  -3.684  0.00  0.00    +0.044 A 
ATOM      9  C   UNL     1      -0.800  -6.706  -4.005  0.00  0.00    +0.025 A 
ATOM     10  C   UNL     1      -0.596  -7.127  -5.304  0.00  0.00    +0.022 A 
ATOM     11  C   UNL     1      -0.266  -6.210  -6.286  0.00  0.00    +0.053 A 
ATOM     12  C   UNL     1      -0.140  -4.869  -5.969  0.00  0.00    +0.075 A 
ATOM     13  C   UNL     1      -0.348  -4.442  -4.672  0.00  0.00    +0.037 A 
ATOM     14 CL   UNL     1      -0.011  -6.742  -7.919  0.00  0.00    -0.083 Cl
BRANCH  12  15
ATOM     15  C   UNL     1       0.219  -3.872  -7.041  0.00  0.00    +0.419 C 
ATOM     16  F   UNL     1       0.287  -2.591  -6.483  0.00  0.00    -0.166 F 
ATOM     17  F   UNL     1       1.460  -4.207  -7.593  0.00  0.00    -0.166 F 
ATOM     18  F   UNL     1      -0.758  -3.893  -8.042  0.00  0.00    -0.166 F 
ENDBRANCH  12  15
ENDBRANCH   5   8
BRANCH   1  20
ATOM     19  C   UNL     1      -0.953  -2.249   1.268  0.00  0.00    -0.094 C 
ATOM     20  N   UNL     1      -0.310  -2.624  -0.010  0.00  0.00    +0.390 N 
ATOM     21  H   UNL     1      -0.767  -2.114  -0.775  0.00  0.00    -0.081 HD
BRANCH  20  22
ATOM     22  C   UNL     1       1.123  -2.262   0.020  0.00  0.00    -0.003 C 
BRANCH  22  23
ATOM     23  C   UNL     1       1.245  -0.760   0.037  0.00  0.00    +0.094 A 
ATOM     24  N   UNL     1       2.489  -0.215   0.048  0.00  0.00    -0.312 N 
ATOM     25  H   UNL     1       3.267  -0.793   0.044  0.00  0.00    +0.170 HD
ATOM     26  C   UNL     1       2.652   1.129   0.063  0.00  0.00    +0.259 A 
ATOM     27  O   UNL     1       3.761   1.631   0.071  0.00  0.00    -0.267 OA
ATOM     28  C   UNL     1       1.438   1.958   0.069  0.00  0.00    +0.065 A 
ATOM     29  C   UNL     1       1.496   3.350   0.085  0.00  0.00    +0.015 A 
ATOM     30  C   UNL     1       0.327   4.079   0.091  0.00  0.00    +0.001 A 
ATOM     31  C   UNL     1      -0.905   3.437   0.080  0.00  0.00    +0.002 A 
ATOM     32  C   UNL     1      -0.984   2.063   0.069  0.00  0.00    +0.028 A 
ATOM     33  C   UNL     1       0.187   1.302   0.058  0.00  0.00    +0.078 A 
ATOM     34  N   UNL     1       0.155  -0.054   0.042  0.00  0.00    -0.236 NA
ENDBRANCH  22  23
ENDBRANCH  20  22
ENDBRANCH   1  20
TORSDOF 5
