REMARK  Name = ZINC01278193
REMARK  6 active torsions:
REMARK  status: ('A' for Active; 'I' for Inactive)
REMARK    1  A    between atoms: C_1  and  C_2
REMARK    2  A    between atoms: C_9  and  C_20
REMARK    3  A    between atoms: C_15  and  N_19
REMARK    4  A    between atoms: C_16  and  C_17
REMARK    5  A    between atoms: C_20  and  O_21
REMARK    6  A    between atoms: O_21  and  C_22
REMARK                            x       y       z     vdW  Elec       q    Type
REMARK                         _______ _______ _______ _____ _____    ______ ____
ROOT
ATOM      1  C   UNL     1      -0.019   1.521   0.010  0.00  0.00    +0.039 C 
ATOM      2  C   UNL     1       0.002  -0.004   0.002  0.00  0.00    +0.131 C 
ATOM      3  C   UNL     1       0.750  -0.549  -1.221  0.00  0.00    +0.070 C 
ATOM      4  C   UNL     1       1.540  -1.762  -0.691  0.00  0.00    +0.048 C 
ATOM      5  C   UNL     1       1.106  -1.858   0.793  0.00  0.00    +0.161 C 
ATOM      6  O   UNL     1       0.716  -0.512   1.148  0.00  0.00    -0.376 OA
ATOM      7  C   UNL     1       1.695   0.472  -1.791  0.00  0.00    +0.053 A 
ATOM      8  C   UNL     1       2.813   1.024  -1.296  0.00  0.00    +0.069 A 
ATOM      9  N   UNL     1       3.303   1.885  -2.223  0.00  0.00    -0.276 N 
ATOM     10  H   UNL     1       4.107   2.418  -2.129  0.00  0.00    +0.189 HD
ATOM     11  N   UNL     1       2.444   1.867  -3.329  0.00  0.00    -0.135 NA
ATOM     12  C   UNL     1       1.481   1.030  -3.077  0.00  0.00    +0.245 A 
ATOM     13  O   UNL     1       0.416   0.695  -3.851  0.00  0.00    -0.421 OA
ATOM     14  C   UNL     1      -0.324  -0.365  -3.481  0.00  0.00    +0.201 C 
ATOM     15  C   UNL     1      -0.224  -0.981  -2.280  0.00  0.00    +0.099 C 
ENDROOT
BRANCH  14  16
ATOM     16  N   UNL     1      -1.241  -0.857  -4.377  0.00  0.00    -0.328 N 
ATOM     17  H   UNL     1      -1.340  -0.440  -5.247  0.00  0.00    +0.145 HD
ATOM     18  H   UNL     1      -1.789  -1.621  -4.140  0.00  0.00    +0.145 HD
ENDBRANCH  14  16
BRANCH  15  19
ATOM     19  C   UNL     1      -1.103  -2.086  -2.028  0.00  0.00    +0.101 C 
ATOM     20  N   UNL     1      -1.799  -2.960  -1.829  0.00  0.00    -0.191 NA
ENDBRANCH  15  19
BRANCH   8  21
ATOM     21  C   UNL     1       3.452   0.778   0.048  0.00  0.00    +0.214 C 
BRANCH  21  22
ATOM     22  O   UNL     1       4.633   1.574   0.167  0.00  0.00    -0.377 OA
ATOM     23  C   UNL     1       5.319   1.415   1.410  0.00  0.00    +0.194 C 
ENDBRANCH  21  22
ENDBRANCH   8  21
TORSDOF 4
