REMARK  Name = ZINC18415733
REMARK  10 active torsions:
REMARK  status: ('A' for Active; 'I' for Inactive)
REMARK    1  A    between atoms: C_1  and  C_2
REMARK    2  A    between atoms: C_2  and  C_3
REMARK    3  A    between atoms: C_3  and  C_30
REMARK    4  A    between atoms: N_6  and  C_10
REMARK    5  A    between atoms: C_10  and  C_11
REMARK    6  A    between atoms: N_13  and  C_14
REMARK    7  A    between atoms: C_14  and  C_16
REMARK    8  A    between atoms: C_14  and  C_27
REMARK    9  A    between atoms: C_27  and  C_28
REMARK   10  A    between atoms: C_27  and  C_29
REMARK                            x       y       z     vdW  Elec       q    Type
REMARK                         _______ _______ _______ _____ _____    ______ ____
ROOT
ATOM      1  C   UNL     1       0.002  -0.004   0.002  0.00  0.00    +0.231 C 
ATOM      2  O   UNL     1      -1.040  -0.625   0.009  0.00  0.00    -0.274 OA
ATOM      3  N   UNL     1      -0.016   1.344   0.009  0.00  0.00    -0.307 N 
ATOM      4  H   UNL     1       0.817   1.840   0.004  0.00  0.00    +0.149 HD
ENDROOT
BRANCH   1   5
ATOM      5  C   UNL     1       1.317  -0.740  -0.015  0.00  0.00    +0.213 C 
BRANCH   5   9
ATOM      6  C   UNL     1       0.692  -4.343  -0.662  0.00  0.00    +0.138 C 
ATOM      7  C   UNL     1       0.930  -2.924  -1.137  0.00  0.00    +0.251 C 
ATOM      8  O   UNL     1       0.984  -2.535  -2.285  0.00  0.00    -0.272 OA
ATOM      9  N   UNL     1       1.069  -2.183  -0.020  0.00  0.00    -0.215 N 
ATOM     10  C   UNL     1       0.958  -2.931   1.084  0.00  0.00    +0.310 C 
ATOM     11  O   UNL     1       1.051  -2.488   2.212  0.00  0.00    -0.252 OA
ATOM     12  N   UNL     1       0.728  -4.227   0.806  0.00  0.00    -0.281 N 
ATOM     13  H   UNL     1       0.611  -4.946   1.447  0.00  0.00    +0.152 HD
BRANCH   6  14
ATOM     14  C   UNL     1       1.786  -5.257  -1.152  0.00  0.00    -0.015 A 
ATOM     15  C   UNL     1       1.647  -5.917  -2.358  0.00  0.00    +0.006 A 
ATOM     16  C   UNL     1       2.652  -6.752  -2.809  0.00  0.00    +0.000 A 
ATOM     17  C   UNL     1       3.793  -6.933  -2.050  0.00  0.00    +0.000 A 
ATOM     18  C   UNL     1       3.930  -6.277  -0.841  0.00  0.00    +0.000 A 
ATOM     19  C   UNL     1       2.927  -5.439  -0.392  0.00  0.00    +0.006 A 
ENDBRANCH   6  14
BRANCH   6  21
ATOM     20  C   UNL     1      -1.770  -3.932  -0.575  0.00  0.00    +0.007 C 
ATOM     21  C   UNL     1      -0.675  -4.845  -1.129  0.00  0.00    +0.037 C 
ENDBRANCH   6  21
ENDBRANCH   5   9
ENDBRANCH   1   5
BRANCH   3  22
ATOM     22  C   UNL     1      -1.295   2.059   0.019  0.00  0.00    +0.106 C 
BRANCH  22  23
ATOM     23  C   UNL     1      -1.107   3.431  -0.575  0.00  0.00    -0.023 A 
ATOM     24  C   UNL     1       0.028   4.161  -0.277  0.00  0.00    +0.009 A 
ATOM     25  C   UNL     1       0.209   5.420  -0.822  0.00  0.00    +0.050 A 
ATOM     26  C   UNL     1      -0.757   5.950  -1.660  0.00  0.00    +0.162 A 
ATOM     27  C   UNL     1      -1.899   5.219  -1.955  0.00  0.00    +0.162 A 
ATOM     28  C   UNL     1      -2.075   3.958  -1.411  0.00  0.00    +0.055 A 
ATOM     29  O   UNL     1      -2.845   5.751  -2.783  0.00  0.00    -0.488 OA
ATOM     30  C   UNL     1      -3.567   6.871  -2.268  0.00  0.00    +0.232 C 
ATOM     31  C   UNL     1      -2.798   8.162  -2.501  0.00  0.00    +0.082 C 
ATOM     32  C   UNL     1      -1.487   8.202  -1.731  0.00  0.00    +0.232 C 
ATOM     33  O   UNL     1      -0.592   7.192  -2.202  0.00  0.00    -0.488 OA
ENDBRANCH  22  23
BRANCH  22  34
ATOM     34  C   UNL     1      -1.794   2.190   1.460  0.00  0.00    +0.008 C 
ATOM     35  C   UNL     1      -3.130   2.937   1.470  0.00  0.00    +0.009 C 
ATOM     36  C   UNL     1      -1.985   0.797   2.062  0.00  0.00    +0.009 C 
ENDBRANCH  22  34
ENDBRANCH   3  22
TORSDOF 7
