REMARK  Name = ZINC43133569
REMARK  5 active torsions:
REMARK  status: ('A' for Active; 'I' for Inactive)
REMARK    1  A    between atoms: C_1  and  C_2
REMARK    2  A    between atoms: C_5  and  C_7
REMARK    3  A    between atoms: C_7  and  C_9
REMARK    4  A    between atoms: C_7  and  N_10
REMARK    5  A    between atoms: N_13  and  C_14
REMARK                            x       y       z     vdW  Elec       q    Type
REMARK                         _______ _______ _______ _____ _____    ______ ____
ROOT
ATOM      1  N   UNL     1       2.809  -2.969   0.875  0.00  0.00    -0.290 N 
ATOM      2  C   UNL     1       3.505  -3.989   1.416  0.00  0.00    +0.304 C 
ATOM      3  O   UNL     1       3.187  -5.137   1.173  0.00  0.00    -0.252 OA
ATOM      4  N   UNL     1       4.551  -3.735   2.226  0.00  0.00    -0.268 N 
ATOM      5  H   UNL     1       3.062  -2.053   1.068  0.00  0.00    +0.151 HD
ATOM      6  H   UNL     1       4.856  -2.823   2.355  0.00  0.00    +0.156 HD
ENDROOT
BRANCH   4   7
ATOM      7  C   UNL     1       5.200  -4.788   2.882  0.00  0.00    +0.049 A 
ATOM      8  C   UNL     1       4.521  -5.973   3.136  0.00  0.00    +0.024 A 
ATOM      9  C   UNL     1       5.164  -7.010   3.783  0.00  0.00    +0.002 A 
ATOM     10  C   UNL     1       6.482  -6.871   4.177  0.00  0.00    +0.001 A 
ATOM     11  C   UNL     1       7.161  -5.693   3.925  0.00  0.00    +0.017 A 
ATOM     12  C   UNL     1       6.526  -4.653   3.274  0.00  0.00    +0.039 A 
ATOM     13 BR   UNL     1       7.457  -3.045   2.924  0.00  0.00    -0.048 Br
ENDBRANCH   4   7
BRANCH   1  14
ATOM     14  C   UNL     1       1.671  -3.244  -0.006  0.00  0.00    +0.137 C 
ATOM     15  C   UNL     1       2.174  -3.466  -1.434  0.00  0.00    +0.036 C 
BRANCH  14  20
ATOM     16  C   UNL     1      -0.054   1.495   0.068  0.00  0.00    +0.086 C 
ATOM     17  C   UNL     1      -0.027  -0.012   0.049  0.00  0.00    +0.102 A 
ATOM     18  C   UNL     1      -1.103  -0.818   0.049  0.00  0.00    +0.045 A 
ATOM     19  C   UNL     1      -0.619  -2.147   0.028  0.00  0.00    +0.047 A 
ATOM     20  C   UNL     1       0.724  -2.072   0.017  0.00  0.00    +0.125 A 
ATOM     21  O   UNL     1       1.077  -0.776   0.023  0.00  0.00    -0.463 OA
ENDBRANCH  14  20
ENDBRANCH   1  14
TORSDOF 3
