REMARK  Name = ZINC32969753
REMARK  7 active torsions:
REMARK  status: ('A' for Active; 'I' for Inactive)
REMARK    1  A    between atoms: C_1  and  C_2
REMARK    2  A    between atoms: C_2  and  O_3
REMARK    3  A    between atoms: O_3  and  C_4
REMARK    4  A    between atoms: C_7  and  C_13
REMARK    5  A    between atoms: C_8  and  N_10
REMARK    6  A    between atoms: C_16  and  C_18
REMARK    7  A    between atoms: C_28  and  C_30
REMARK                            x       y       z     vdW  Elec       q    Type
REMARK                         _______ _______ _______ _____ _____    ______ ____
ROOT
ATOM      1  C   UNL     1       0.784  -9.009  -4.386  0.00  0.00    +0.063 C 
ATOM      2  C   UNL     1       0.407  -8.709  -5.688  0.00  0.00    +0.084 C 
ATOM      3  C   UNL     1      -0.032  -7.343  -6.080  0.00  0.00    +0.153 C 
ATOM      4  N   UNL     1       0.445  -6.252  -5.538  0.00  0.00    -0.283 NA
ATOM      5  N   UNL     1      -1.014  -7.340  -7.094  0.00  0.00    -0.152 N 
ATOM      6  C   UNL     1      -1.084  -8.446  -7.914  0.00  0.00    +0.181 C 
ATOM      7  N   UNL     1      -0.405  -9.559  -7.811  0.00  0.00    -0.152 NA
ATOM      8  C   UNL     1       0.427  -9.729  -6.760  0.00  0.00    +0.273 C 
ATOM      9  O   UNL     1       1.169 -10.696  -6.694  0.00  0.00    -0.268 OA
ATOM     10  S   UNL     1      -2.323  -7.960  -9.087  0.00  0.00    -0.038 S 
ATOM     11  C   UNL     1      -2.730  -6.380  -8.356  0.00  0.00    +0.103 C 
ATOM     12  N   UNL     1      -1.906  -6.321  -7.349  0.00  0.00    -0.169 NA
ATOM     13  H   UNL     1       1.187  -6.304  -4.916  0.00  0.00    +0.188 HD
ENDROOT
BRANCH  11  14
ATOM     14  C   UNL     1      -3.762  -5.373  -8.794  0.00  0.00    +0.046 C 
ATOM     15  C   UNL     1      -3.356  -3.981  -8.305  0.00  0.00    +0.010 C 
ATOM     16  C   UNL     1      -4.404  -2.959  -8.750  0.00  0.00    +0.001 C 
ATOM     17  C   UNL     1      -5.764  -3.332  -8.157  0.00  0.00    +0.000 C 
ATOM     18  C   UNL     1      -6.170  -4.723  -8.646  0.00  0.00    +0.001 C 
ATOM     19  C   UNL     1      -5.122  -5.746  -8.201  0.00  0.00    +0.010 C 
ENDBRANCH  11  14
BRANCH   1  23
ATOM     20  C   UNL     1       0.864  -6.891  -1.531  0.00  0.00    +0.138 A 
ATOM     21  C   UNL     1      -0.323  -6.468  -2.094  0.00  0.00    +0.050 A 
ATOM     22  C   UNL     1      -0.513  -7.215  -3.255  0.00  0.00    +0.050 A 
ATOM     23  C   UNL     1       0.572  -8.075  -3.361  0.00  0.00    +0.129 A 
ATOM     24  O   UNL     1       1.389  -7.853  -2.309  0.00  0.00    -0.455 OA
BRANCH  20  28
ATOM     25  C   UNL     1       2.577  -5.393   2.053  0.00  0.00    +0.123 A 
ATOM     26  C   UNL     1       2.311  -4.528   0.998  0.00  0.00    +0.046 A 
ATOM     27  C   UNL     1       1.756  -5.010  -0.167  0.00  0.00    +0.017 A 
ATOM     28  C   UNL     1       1.459  -6.371  -0.286  0.00  0.00    +0.048 A 
ATOM     29  C   UNL     1       1.729  -7.237   0.778  0.00  0.00    +0.140 A 
ATOM     30  C   UNL     1       2.289  -6.747   1.937  0.00  0.00    +0.079 A 
BRANCH  29  31
ATOM     31  N   UNL     1       1.417  -8.680   0.657  0.00  0.00    +0.057 N 
ATOM     32  O   UNL     1       1.602  -9.419   1.596  0.00  0.00    -0.126 OA
ATOM     33  O   UNL     1       0.976  -9.118  -0.380  0.00  0.00    -0.126 OA
ENDBRANCH  29  31
BRANCH  25  34
ATOM     34  O   UNL     1       3.124  -4.913   3.200  0.00  0.00    -0.492 OA
BRANCH  34  36
ATOM     35  C   UNL     1       4.005  -3.160   4.611  0.00  0.00    +0.048 C 
ATOM     36  C   UNL     1       3.395  -3.511   3.252  0.00  0.00    +0.225 C 
ENDBRANCH  34  36
ENDBRANCH  25  34
ENDBRANCH  20  28
ENDBRANCH   1  23
TORSDOF 6
