REMARK  Name = ZINC15675718
REMARK  9 active torsions:
REMARK  status: ('A' for Active; 'I' for Inactive)
REMARK    1  A    between atoms: C_1  and  C_2
REMARK    2  A    between atoms: C_2  and  C_3
REMARK    3  A    between atoms: C_2  and  C_4
REMARK    4  A    between atoms: C_6  and  C_9
REMARK    5  A    between atoms: N_19  and  C_20
REMARK    6  A    between atoms: C_20  and  C_21
REMARK    7  A    between atoms: C_24  and  N_27
REMARK    8  A    between atoms: N_27  and  C_28
REMARK    9  A    between atoms: N_27  and  C_29
REMARK                            x       y       z     vdW  Elec       q    Type
REMARK                         _______ _______ _______ _____ _____    ______ ____
ROOT
ATOM      1  C   UNL     1      -4.145  -2.425  -1.424  0.00  0.00    +0.152 C 
ATOM      2  C   UNL     1      -5.159  -1.520  -2.138  0.00  0.00    +0.083 C 
ATOM      3  C   UNL     1      -6.243  -2.399  -2.706  0.00  0.00    +0.040 A 
ATOM      4  C   UNL     1      -6.436  -3.684  -2.329  0.00  0.00    +0.051 A 
ATOM      5  N   UNL     1      -7.468  -4.166  -3.024  0.00  0.00    -0.349 N 
ATOM      6  C   UNL     1      -7.924  -3.231  -3.817  0.00  0.00    +0.171 A 
ATOM      7  N   UNL     1      -7.182  -2.111  -3.644  0.00  0.00    -0.349 N 
ATOM      8  H   UNL     1      -7.300  -1.265  -4.103  0.00  0.00    +0.166 HD
ATOM      9  C   UNL     1      -5.589  -4.378  -1.291  0.00  0.00    +0.140 C 
ATOM     10  N   UNL     1      -4.856  -3.351  -0.531  0.00  0.00    -0.281 NA
ATOM     11  H   UNL     1      -7.822  -5.066  -2.952  0.00  0.00    +0.166 HD
ENDROOT
BRANCH   1  14
ATOM     12  C   UNL     1      -1.412  -0.526   0.013  0.00  0.00    +0.174 A 
ATOM     13  N   UNL     1      -1.960  -1.305  -0.926  0.00  0.00    -0.194 NA
ATOM     14  C   UNL     1      -3.197  -1.577  -0.615  0.00  0.00    +0.245 A 
ATOM     15  O   UNL     1      -3.481  -0.973   0.546  0.00  0.00    -0.336 OA
ATOM     16  N   UNL     1      -2.296  -0.296   0.940  0.00  0.00    -0.061 NA
BRANCH  12  18
ATOM     17  C   UNL     1      -0.019   1.526   0.010  0.00  0.00    +0.015 C 
ATOM     18  C   UNL     1       0.002  -0.004   0.002  0.00  0.00    +0.054 C 
ATOM     19  C   UNL     1       0.742  -0.511   1.242  0.00  0.00    +0.015 C 
ENDBRANCH  12  18
ENDBRANCH   1  14
BRANCH  10  20
ATOM     20  C   UNL     1      -3.933  -3.968   0.431  0.00  0.00    +0.120 C 
BRANCH  20  21
ATOM     21  C   UNL     1      -4.721  -4.713   1.477  0.00  0.00    -0.033 A 
ATOM     22  C   UNL     1      -5.128  -4.063   2.627  0.00  0.00    +0.007 A 
ATOM     23  C   UNL     1      -5.851  -4.743   3.588  0.00  0.00    +0.023 A 
ATOM     24  C   UNL     1      -6.169  -6.081   3.397  0.00  0.00    +0.029 A 
ATOM     25  C   UNL     1      -5.759  -6.732   2.240  0.00  0.00    +0.023 A 
ATOM     26  C   UNL     1      -5.041  -6.044   1.281  0.00  0.00    +0.007 A 
BRANCH  24  27
ATOM     27  N   UNL     1      -6.899  -6.772   4.367  0.00  0.00    -0.336 N 
ATOM     28  C   UNL     1      -7.331  -6.085   5.587  0.00  0.00    +0.129 C 
ATOM     29  C   UNL     1      -7.234  -8.184   4.164  0.00  0.00    +0.129 C 
ENDBRANCH  24  27
ENDBRANCH  20  21
ENDBRANCH  10  20
TORSDOF 5
