REMARK  Name = ZINC50958592
REMARK  3 active torsions:
REMARK  status: ('A' for Active; 'I' for Inactive)
REMARK    1  A    between atoms: C_3  and  N_9
REMARK    2  A    between atoms: C_6  and  N_7
REMARK    3  A    between atoms: C_10  and  C_12
REMARK                            x       y       z     vdW  Elec       q    Type
REMARK                         _______ _______ _______ _____ _____    ______ ____
ROOT
ATOM      1  C   UNL     1       0.065   1.248  -0.622  0.00  0.00    +0.024 A 
ATOM      2  C   UNL     1       1.251   1.956  -0.619  0.00  0.00    +0.026 A 
ATOM      3  C   UNL     1       2.382   1.414  -0.024  0.00  0.00    +0.052 A 
ATOM      4  C   UNL     1       2.321   0.158   0.568  0.00  0.00    +0.064 A 
ATOM      5  C   UNL     1       1.135  -0.550   0.564  0.00  0.00    +0.044 A 
ATOM      6  C   UNL     1       0.004  -0.007  -0.031  0.00  0.00    +0.026 A 
ATOM      7 CL   UNL     1       3.735  -0.521   1.311  0.00  0.00    -0.082 Cl
ENDROOT
BRANCH   3   8
ATOM      8  N   UNL     1       3.585   2.133  -0.021  0.00  0.00    -0.282 N 
ATOM      9  C   UNL     1       3.567   3.477  -0.116  0.00  0.00    +0.246 C 
ATOM     10  O   UNL     1       2.511   4.072  -0.103  0.00  0.00    -0.273 OA
ATOM     11  H   UNL     1       4.431   1.663   0.049  0.00  0.00    +0.155 HD
BRANCH   9  12
ATOM     12  C   UNL     1       4.861   4.241  -0.238  0.00  0.00    +0.204 C 
ATOM     13  C   UNL     1       5.678   4.069   1.044  0.00  0.00    +0.041 C 
ATOM     14  C   UNL     1       6.963   4.897   0.937  0.00  0.00    +0.005 C 
ATOM     15  C   UNL     1       6.594   6.360   0.674  0.00  0.00    +0.028 C 
ATOM     16  C   UNL     1       5.741   6.443  -0.594  0.00  0.00    +0.161 C 
ATOM     17  O   UNL     1       4.578   5.627  -0.440  0.00  0.00    -0.367 OA
ENDBRANCH   9  12
ENDBRANCH   3   8
BRANCH   6  18
ATOM     18  N   UNL     1      -1.198  -0.724  -0.034  0.00  0.00    -0.358 N 
ATOM     19  H   UNL     1      -1.988  -0.344  -0.450  0.00  0.00    +0.142 HD
ATOM     20  H   UNL     1      -1.240  -1.600   0.379  0.00  0.00    +0.142 HD
ENDBRANCH   6  18
TORSDOF 3
