REMARK  Name = ZINC40245159
REMARK  3 active torsions:
REMARK  status: ('A' for Active; 'I' for Inactive)
REMARK    1  A    between atoms: C_9  and  C_14
REMARK    2  A    between atoms: C_14  and  C_16
REMARK    3  A    between atoms: C_14  and  O_19
REMARK                            x       y       z     vdW  Elec       q    Type
REMARK                         _______ _______ _______ _____ _____    ______ ____
ROOT
ATOM      1  C   UNL     1      -0.017   1.375   0.010  0.00  0.00    +0.001 A 
ATOM      2  C   UNL     1       1.172   2.087   0.002  0.00  0.00    +0.004 A 
ATOM      3  C   UNL     1       2.384   1.429  -0.013  0.00  0.00    +0.047 A 
ATOM      4  C   UNL     1       2.423   0.040  -0.022  0.00  0.00    +0.136 A 
ATOM      5  C   UNL     1       1.219  -0.677  -0.014  0.00  0.00    +0.028 A 
ATOM      6  C   UNL     1       0.002  -0.004   0.002  0.00  0.00    +0.012 A 
ATOM      7  C   UNL     1       1.603  -2.102  -0.027  0.00  0.00    +0.028 A 
ATOM      8  C   UNL     1       0.889  -3.296  -0.027  0.00  0.00    +0.018 A 
ATOM      9  C   UNL     1       1.565  -4.497  -0.041  0.00  0.00    -0.018 A 
ATOM     10  C   UNL     1       2.951  -4.516  -0.056  0.00  0.00    +0.010 A 
ATOM     11  C   UNL     1       3.668  -3.338  -0.056  0.00  0.00    +0.047 A 
ATOM     12  C   UNL     1       3.004  -2.117  -0.041  0.00  0.00    +0.136 A 
ATOM     13  O   UNL     1       3.447  -0.841  -0.038  0.00  0.00    -0.455 OA
ENDROOT
BRANCH   9  14
ATOM     14  C   UNL     1       0.796  -5.793  -0.041  0.00  0.00    +0.148 C 
BRANCH  14  15
ATOM     15  C   UNL     1       0.659  -6.305   1.395  0.00  0.00    +0.022 C 
ATOM     16  C   UNL     1       1.425  -7.575   1.768  0.00  0.00    +0.007 C 
ATOM     17  C   UNL     1      -0.096  -7.618   1.608  0.00  0.00    +0.007 C 
ENDBRANCH  14  15
BRANCH  14  18
ATOM     18  O   UNL     1       1.494  -6.761  -0.827  0.00  0.00    -0.387 OA
ATOM     19  H   UNL     1       2.385  -6.959  -0.508  0.00  0.00    +0.210 HD
ENDBRANCH  14  18
ENDBRANCH   9  14
TORSDOF 3
