REMARK  Name = ZINC40916366
REMARK  7 active torsions:
REMARK  status: ('A' for Active; 'I' for Inactive)
REMARK    1  A    between atoms: C_1  and  C_2
REMARK    2  A    between atoms: C_3  and  C_22
REMARK    3  A    between atoms: C_4  and  C_12
REMARK    4  A    between atoms: C_16  and  O_18
REMARK    5  A    between atoms: O_18  and  C_19
REMARK    6  A    between atoms: C_19  and  C_20
REMARK    7  A    between atoms: C_19  and  C_21
REMARK                            x       y       z     vdW  Elec       q    Type
REMARK                         _______ _______ _______ _____ _____    ______ ____
ROOT
ATOM      1  C   UNL     1       0.881   0.457  -0.436  0.00  0.00    +0.061 C 
ATOM      2  C   UNL     1       0.677  -1.029  -0.291  0.00  0.00    +0.018 C 
ATOM      3  C   UNL     1      -0.574  -1.511  -0.261  0.00  0.00    +0.060 C 
ATOM      4  C   UNL     1      -0.888  -2.976  -0.108  0.00  0.00    +0.177 C 
ATOM      5  N   UNL     1       0.332  -3.756  -0.296  0.00  0.00    -0.221 N 
ATOM      6  C   UNL     1       1.574  -3.212  -0.329  0.00  0.00    +0.218 A 
ATOM      7  N   UNL     1       2.433  -4.178  -0.503  0.00  0.00    -0.201 NA
ATOM      8  C   UNL     1       1.783  -5.344  -0.589  0.00  0.00    +0.247 A 
ATOM      9  N   UNL     1       0.496  -5.129  -0.469  0.00  0.00    -0.156 NA
ATOM     10  N   UNL     1       1.778  -1.845  -0.201  0.00  0.00    -0.287 N 
ATOM     11  H   UNL     1       2.664  -1.481  -0.051  0.00  0.00    +0.155 HD
ENDROOT
BRANCH   4  12
ATOM     12  C   UNL     1      -1.440  -3.230   1.271  0.00  0.00    -0.015 A 
ATOM     13  C   UNL     1      -0.679  -2.928   2.386  0.00  0.00    +0.006 A 
ATOM     14  C   UNL     1      -1.183  -3.160   3.653  0.00  0.00    +0.004 A 
ATOM     15  C   UNL     1      -2.447  -3.695   3.807  0.00  0.00    +0.045 A 
ATOM     16  C   UNL     1      -3.212  -3.999   2.691  0.00  0.00    +0.121 A 
ATOM     17  C   UNL     1      -2.707  -3.759   1.421  0.00  0.00    +0.051 A 
BRANCH  16  18
ATOM     18  O   UNL     1      -4.456  -4.525   2.840  0.00  0.00    -0.489 OA
BRANCH  18  19
ATOM     19  C   UNL     1      -5.232  -4.704   1.653  0.00  0.00    +0.167 C 
ATOM     20  C   UNL     1      -4.867  -6.040   1.002  0.00  0.00    +0.051 C 
ATOM     21  C   UNL     1      -6.719  -4.700   2.011  0.00  0.00    +0.051 C 
ENDBRANCH  18  19
ENDBRANCH  16  18
ENDBRANCH   4  12
BRANCH   3  22
ATOM     22  C   UNL     1      -1.651  -0.600  -0.377  0.00  0.00    +0.241 C 
ATOM     23  O   UNL     1      -1.429   0.591  -0.501  0.00  0.00    -0.271 OA
ATOM     24  N   UNL     1      -2.921  -1.050  -0.350  0.00  0.00    -0.325 N 
ATOM     25  H   UNL     1      -3.097  -1.999  -0.251  0.00  0.00    +0.145 HD
ATOM     26  H   UNL     1      -3.658  -0.425  -0.430  0.00  0.00    +0.145 HD
ENDBRANCH   3  22
TORSDOF 4
