REMARK  Name = ZINC19973380
REMARK  9 active torsions:
REMARK  status: ('A' for Active; 'I' for Inactive)
REMARK    1  A    between atoms: C_1  and  C_2
REMARK    2  A    between atoms: C_2  and  N_3
REMARK    3  A    between atoms: N_6  and  C_9
REMARK    4  A    between atoms: C_9  and  C_11
REMARK    5  A    between atoms: C_9  and  C_26
REMARK    6  A    between atoms: N_30  and  C_31
REMARK    7  A    between atoms: C_31  and  C_32
REMARK    8  A    between atoms: C_32  and  O_33
REMARK    9  A    between atoms: O_33  and  C_34
REMARK                            x       y       z     vdW  Elec       q    Type
REMARK                         _______ _______ _______ _____ _____    ______ ____
ROOT
ATOM      1  C   UNL     1      -3.785   2.034   0.051  0.00  0.00    +0.162 C 
ENDROOT
BRANCH   1   2
ATOM      2  C   UNL     1      -2.441   1.352   0.034  0.00  0.00    +0.042 A 
ATOM      3  C   UNL     1      -1.306   2.095   0.032  0.00  0.00    +0.021 A 
ATOM      4  C   UNL     1      -0.017   1.404   0.010  0.00  0.00    +0.003 A 
ATOM      5  C   UNL     1       1.187   2.120   0.002  0.00  0.00    +0.059 A 
ATOM      6  C   UNL     1       2.385   1.441  -0.011  0.00  0.00    +0.167 A 
ATOM      7  C   UNL     1       2.403   0.041  -0.019  0.00  0.00    +0.168 A 
ATOM      8  C   UNL     1       1.219  -0.674  -0.013  0.00  0.00    +0.075 A 
ATOM      9  C   UNL     1       0.002  -0.004   0.002  0.00  0.00    +0.053 A 
ATOM     10  N   UNL     1      -1.189  -0.701   0.010  0.00  0.00    -0.322 N 
ATOM     11  H   UNL     1      -1.183  -1.801   0.004  0.00  0.00    +0.169 HD
ATOM     12  C   UNL     1      -2.368  -0.056   0.026  0.00  0.00    +0.254 A 
ATOM     13  O   UNL     1      -3.401  -0.704   0.033  0.00  0.00    -0.268 OA
ATOM     14  O   UNL     1       3.702  -0.375  -0.032  0.00  0.00    -0.453 OA
ATOM     15  C   UNL     1       4.477   0.765   0.382  0.00  0.00    +0.466 C 
ATOM     16  O   UNL     1       3.675   1.891  -0.020  0.00  0.00    -0.453 OA
ENDBRANCH   1   2
BRANCH   1  20
ATOM     17  N   UNL     1      -6.049   1.823  -3.509  0.00  0.00    +0.381 N 
ATOM     18  C   UNL     1      -6.749   1.614  -2.234  0.00  0.00    -0.063 C 
ATOM     19  C   UNL     1      -5.912   2.198  -1.094  0.00  0.00    +0.067 C 
ATOM     20  N   UNL     1      -4.592   1.553  -1.078  0.00  0.00    -0.292 NA
ATOM     21  C   UNL     1      -3.892   1.763  -2.353  0.00  0.00    +0.067 C 
ATOM     22  C   UNL     1      -4.729   1.178  -3.494  0.00  0.00    -0.063 C 
ATOM     23  H   UNL     1      -5.897   2.905  -3.640  0.00  0.00    -0.082 HD
BRANCH  17  25
ATOM     24  C   UNL     1      -6.006   1.345  -5.911  0.00  0.00    -0.017 C 
ATOM     25  C   UNL     1      -6.856   1.343  -4.638  0.00  0.00    -0.082 C 
ENDBRANCH  17  25
ENDBRANCH   1  20
BRANCH   1  26
ATOM     26  C   UNL     1      -4.492   1.719   1.344  0.00  0.00    +0.173 A 
ATOM     27  N   UNL     1      -5.073   0.588   1.663  0.00  0.00    -0.111 NA
ATOM     28  N   UNL     1      -5.559   0.711   2.849  0.00  0.00    -0.023 NA
ATOM     29  N   UNL     1      -5.311   1.894   3.293  0.00  0.00    -0.044 NA
ATOM     30  N   UNL     1      -4.655   2.546   2.393  0.00  0.00    -0.225 N 
BRANCH  30  31
ATOM     31  C   UNL     1      -4.177   3.927   2.495  0.00  0.00    +0.175 C 
BRANCH  31  32
ATOM     32  C   UNL     1      -5.251   4.879   1.966  0.00  0.00    +0.183 C 
BRANCH  32  33
ATOM     33  O   UNL     1      -4.785   6.226   2.065  0.00  0.00    -0.381 OA
ATOM     34  C   UNL     1      -5.718   7.200   1.595  0.00  0.00    +0.194 C 
ENDBRANCH  32  33
ENDBRANCH  31  32
ENDBRANCH  30  31
ENDBRANCH   1  26
TORSDOF 7
