REMARK  Name = ZINC37616041
REMARK  5 active torsions:
REMARK  status: ('A' for Active; 'I' for Inactive)
REMARK    1  A    between atoms: C_1  and  C_2
REMARK    2  A    between atoms: C_7  and  N_12
REMARK    3  A    between atoms: C_9  and  C_11
REMARK    4  A    between atoms: C_13  and  C_15
REMARK    5  A    between atoms: C_15  and  N_20
REMARK                            x       y       z     vdW  Elec       q    Type
REMARK                         _______ _______ _______ _____ _____    ______ ____
ROOT
ATOM      1  N   UNL     1       0.735  -0.503   3.687  0.00  0.00    -0.313 N 
ATOM      2  C   UNL     1       0.634   0.166   4.853  0.00  0.00    +0.202 C 
ATOM      3  O   UNL     1      -0.044   1.170   4.919  0.00  0.00    -0.277 OA
ATOM      4  H   UNL     1       1.276  -1.306   3.634  0.00  0.00    +0.149 HD
ENDROOT
BRANCH   1  10
ATOM      5  C   UNL     1      -0.019   1.526   0.010  0.00  0.00    +0.008 C 
ATOM      6  C   UNL     1       0.002  -0.004   0.002  0.00  0.00    -0.009 C 
ATOM      7  C   UNL     1      -1.433  -0.534   0.013  0.00  0.00    +0.003 C 
ATOM      8  C   UNL     1      -2.149  -0.040   1.272  0.00  0.00    +0.002 C 
ATOM      9  C   UNL     1      -1.409  -0.547   2.511  0.00  0.00    +0.022 C 
ATOM     10  C   UNL     1       0.026  -0.018   2.500  0.00  0.00    +0.076 C 
ATOM     11  C   UNL     1       0.742  -0.511   1.242  0.00  0.00    +0.009 C 
ATOM     12  C   UNL     1       2.178   0.019   1.231  0.00  0.00    +0.009 C 
ENDBRANCH   1  10
BRANCH   2  13
ATOM     13  C   UNL     1       1.363  -0.333   6.074  0.00  0.00    +0.007 C 
ATOM     14  C   UNL     1       2.790   0.251   6.113  0.00  0.00    -0.004 C 
ATOM     15  C   UNL     1       2.667   1.495   7.027  0.00  0.00    -0.001 C 
ATOM     16  C   UNL     1       1.673   1.020   8.117  0.00  0.00    -0.001 C 
ATOM     17  C   UNL     1       0.652   0.156   7.348  0.00  0.00    -0.004 C 
BRANCH  13  18
ATOM     18  N   UNL     1       1.419  -1.801   6.061  0.00  0.00    +0.388 N 
ATOM     19  H   UNL     1       1.895  -2.112   5.228  0.00  0.00    -0.089 HD
ATOM     20  H   UNL     1       1.918  -2.126   6.875  0.00  0.00    -0.089 HD
ATOM     21  H   UNL     1       0.481  -2.173   6.071  0.00  0.00    -0.089 HD
ENDBRANCH  13  18
ENDBRANCH   2  13
TORSDOF 3
