REMARK  Name = ZINC12193240
REMARK  15 active torsions:
REMARK  status: ('A' for Active; 'I' for Inactive)
REMARK    1  A    between atoms: C_1  and  N_67
REMARK    2  A    between atoms: C_2  and  C_3
REMARK    3  A    between atoms: C_2  and  N_67
REMARK    4  A    between atoms: C_9  and  C_10
REMARK    5  A    between atoms: C_9  and  N_67
REMARK    6  A    between atoms: C_10  and  C_12
REMARK    7  A    between atoms: C_10  and  O_30
REMARK    8  A    between atoms: C_12  and  O_13
REMARK    9  A    between atoms: O_13  and  C_14
REMARK   10  A    between atoms: C_16  and  C_22
REMARK   11  A    between atoms: C_19  and  O_20
REMARK   12  A    between atoms: O_20  and  C_21
REMARK   13  A    between atoms: C_22  and  N_69
REMARK   14  A    between atoms: C_23  and  C_24
REMARK   15  A    between atoms: C_23  and  N_69
REMARK                            x       y       z     vdW  Elec       q    Type
REMARK                         _______ _______ _______ _____ _____    ______ ____
ROOT
ATOM      1  C   UNL     1      -0.724   0.962   2.376  0.00  0.00    +0.162 A 
ATOM      2  C   UNL     1       0.340   0.081   2.486  0.00  0.00    +0.051 A 
ATOM      3  C   UNL     1       0.759  -0.344   3.733  0.00  0.00    -0.061 A 
ATOM      4  C   UNL     1       0.112   0.099   4.872  0.00  0.00    +0.005 A 
ATOM      5  C   UNL     1      -0.954   0.973   4.768  0.00  0.00    +0.049 A 
ATOM      6  C   UNL     1      -1.376   1.407   3.522  0.00  0.00    +0.162 A 
ENDROOT
BRANCH   6   7
ATOM      7  O   UNL     1      -2.424   2.268   3.418  0.00  0.00    -0.491 OA
ATOM      8  C   UNL     1      -3.045   2.683   4.636  0.00  0.00    +0.277 C 
ENDBRANCH   6   7
BRANCH   1   9
ATOM      9  O   UNL     1      -1.134   1.385   1.150  0.00  0.00    -0.486 OA
BRANCH   9  10
ATOM     10  C   UNL     1      -0.418   0.886   0.019  0.00  0.00    +0.258 C 
BRANCH  10  11
ATOM     11  C   UNL     1      -1.018   1.469  -1.262  0.00  0.00    +0.135 C 
BRANCH  11  12
ATOM     12  O   UNL     1      -2.356   0.992  -1.421  0.00  0.00    -0.390 OA
ATOM     13  H   UNL     1      -2.425   0.030  -1.485  0.00  0.00    +0.210 HD
ENDBRANCH  11  12
BRANCH  11  14
ATOM     14  C   UNL     1      -0.176   1.035  -2.464  0.00  0.00    -0.044 C 
BRANCH  14  16
ATOM     15  C   UNL     1      -0.233   0.983  -4.884  0.00  0.00    -0.096 C 
ATOM     16  N   UNL     1      -0.708   1.691  -3.677  0.00  0.00    +0.382 N 
ATOM     17  H   UNL     1      -1.734   1.656  -3.652  0.00  0.00    -0.082 HD
BRANCH  16  18
ATOM     18  C   UNL     1      -0.276   3.104  -3.717  0.00  0.00    -0.043 C 
BRANCH  18  19
ATOM     19  C   UNL     1      -1.006   3.803  -4.835  0.00  0.00    -0.064 A 
ATOM     20  C   UNL     1      -0.449   3.854  -6.099  0.00  0.00    +0.002 A 
ATOM     21  C   UNL     1      -1.121   4.491  -7.126  0.00  0.00    +0.000 A 
ATOM     22  C   UNL     1      -2.345   5.087  -6.886  0.00  0.00    +0.000 A 
ATOM     23  C   UNL     1      -2.899   5.041  -5.620  0.00  0.00    +0.000 A 
ATOM     24  C   UNL     1      -2.230   4.399  -4.595  0.00  0.00    +0.002 A 
ENDBRANCH  18  19
ENDBRANCH  16  18
ENDBRANCH  14  16
ENDBRANCH  11  14
ENDBRANCH  10  11
ENDBRANCH   9  10
ENDBRANCH   1   9
BRANCH   3  25
ATOM     25  C   UNL     1       1.921  -1.296   3.852  0.00  0.00    -0.047 C 
BRANCH  25  26
ATOM     26  N   UNL     1       1.416  -2.682   3.810  0.00  0.00    +0.382 N 
ATOM     27  H   UNL     1       0.927  -2.837   2.921  0.00  0.00    -0.085 HD
ATOM     28  H   UNL     1       0.764  -2.828   4.590  0.00  0.00    -0.085 HD
BRANCH  26  29
ATOM     29  C   UNL     1       2.534  -3.638   3.924  0.00  0.00    -0.079 C 
BRANCH  29  30
ATOM     30  C   UNL     1       1.981  -5.064   3.878  0.00  0.00    -0.028 C 
ATOM     31  C   UNL     1       1.104  -5.311   5.107  0.00  0.00    +0.002 C 
ATOM     32  C   UNL     1       0.551  -6.736   5.061  0.00  0.00    +0.000 C 
ATOM     33  C   UNL     1       1.712  -7.734   5.054  0.00  0.00    +0.000 C 
ATOM     34  C   UNL     1       2.588  -7.487   3.824  0.00  0.00    +0.000 C 
ATOM     35  C   UNL     1       3.141  -6.061   3.870  0.00  0.00    +0.002 C 
ENDBRANCH  29  30
ENDBRANCH  26  29
ENDBRANCH  25  26
ENDBRANCH   3  25
TORSDOF 13
