REMARK  Name = ZINC15675602
REMARK  6 active torsions:
REMARK  status: ('A' for Active; 'I' for Inactive)
REMARK    1  A    between atoms: C_6  and  C_7
REMARK    2  A    between atoms: C_9  and  C_12
REMARK    3  A    between atoms: N_22  and  C_23
REMARK    4  A    between atoms: C_23  and  C_24
REMARK    5  A    between atoms: C_27  and  C_29
REMARK    6  A    between atoms: C_29  and  O_30
REMARK                            x       y       z     vdW  Elec       q    Type
REMARK                         _______ _______ _______ _____ _____    ______ ____
ROOT
ATOM      1  C   UNL     1      -3.169  -3.860   0.021  0.00  0.00    +0.152 C 
ATOM      2  C   UNL     1      -3.709  -4.205  -1.375  0.00  0.00    +0.083 C 
ATOM      3  C   UNL     1      -4.469  -5.503  -1.267  0.00  0.00    +0.040 A 
ATOM      4  C   UNL     1      -4.875  -6.034  -0.092  0.00  0.00    +0.051 A 
ATOM      5  N   UNL     1      -5.511  -7.177  -0.356  0.00  0.00    -0.349 N 
ATOM      6  C   UNL     1      -5.516  -7.375  -1.649  0.00  0.00    +0.171 A 
ATOM      7  N   UNL     1      -4.874  -6.347  -2.251  0.00  0.00    -0.349 N 
ATOM      8  H   UNL     1      -4.730  -6.234  -3.204  0.00  0.00    +0.166 HD
ATOM      9  C   UNL     1      -4.618  -5.383   1.244  0.00  0.00    +0.140 C 
ATOM     10  N   UNL     1      -4.250  -3.976   1.009  0.00  0.00    -0.278 NA
ATOM     11  H   UNL     1      -5.905  -7.766   0.305  0.00  0.00    +0.166 HD
ENDROOT
BRANCH   1  14
ATOM     12  C   UNL     1      -1.272  -0.766   0.011  0.00  0.00    +0.202 A 
ATOM     13  N   UNL     1      -1.384  -2.106   0.010  0.00  0.00    -0.190 NA
ATOM     14  C   UNL     1      -2.641  -2.448   0.019  0.00  0.00    +0.245 A 
ATOM     15  O   UNL     1      -3.384  -1.334   0.026  0.00  0.00    -0.336 OA
ATOM     16  N   UNL     1      -2.474  -0.245   0.026  0.00  0.00    -0.056 NA
BRANCH  12  22
ATOM     17  C   UNL     1      -0.017   1.389   0.010  0.00  0.00    +0.013 A 
ATOM     18  C   UNL     1       1.170   2.093   0.002  0.00  0.00    +0.021 A 
ATOM     19  C   UNL     1       2.378   1.417  -0.013  0.00  0.00    +0.041 A 
ATOM     20  C   UNL     1       2.402   0.033  -0.022  0.00  0.00    +0.021 A 
ATOM     21  C   UNL     1       1.221  -0.680  -0.014  0.00  0.00    +0.013 A 
ATOM     22  C   UNL     1       0.002  -0.004   0.002  0.00  0.00    +0.023 A 
ATOM     23 CL   UNL     1       3.868   2.308  -0.024  0.00  0.00    -0.084 Cl
ENDBRANCH  12  22
ENDBRANCH   1  14
BRANCH  10  24
ATOM     24  C   UNL     1      -3.887  -3.310   2.267  0.00  0.00    +0.160 C 
BRANCH  24  25
ATOM     25  C   UNL     1      -5.097  -3.234   3.163  0.00  0.00    +0.119 A 
ATOM     26  C   UNL     1      -5.464  -4.158   4.069  0.00  0.00    +0.046 A 
ATOM     27  C   UNL     1      -6.649  -3.685   4.679  0.00  0.00    +0.047 A 
ATOM     28  C   UNL     1      -6.935  -2.501   4.108  0.00  0.00    +0.131 A 
ATOM     29  O   UNL     1      -5.989  -2.230   3.195  0.00  0.00    -0.461 OA
BRANCH  28  30
ATOM     30  C   UNL     1      -8.115  -1.625   4.442  0.00  0.00    +0.230 C 
BRANCH  30  31
ATOM     31  O   UNL     1      -7.755  -0.718   5.486  0.00  0.00    -0.387 OA
ATOM     32  H   UNL     1      -8.468  -0.121   5.752  0.00  0.00    +0.210 HD
ENDBRANCH  30  31
ENDBRANCH  28  30
ENDBRANCH  24  25
ENDBRANCH  10  24
TORSDOF 6
