REMARK  Name = ZINC39525992
REMARK  3 active torsions:
REMARK  status: ('A' for Active; 'I' for Inactive)
REMARK    1  A    between atoms: C_4  and  O_22
REMARK    2  A    between atoms: C_5  and  C_7
REMARK    3  A    between atoms: C_17  and  O_21
REMARK                            x       y       z     vdW  Elec       q    Type
REMARK                         _______ _______ _______ _____ _____    ______ ____
ROOT
ATOM      1  C   UNL     1       1.227  -2.189  -0.022  0.00  0.00    +0.024 C 
ATOM      2  C   UNL     1       0.524  -2.707   1.236  0.00  0.00    +0.008 C 
ATOM      3  C   UNL     1       0.631  -4.231   1.254  0.00  0.00    +0.002 C 
ATOM      4  C   UNL     1      -0.018  -4.841   0.026  0.00  0.00    +0.023 C 
ATOM      5  C   UNL     1       0.391  -4.216  -1.300  0.00  0.00    +0.034 C 
ATOM      6  C   UNL     1       0.481  -2.699  -1.249  0.00  0.00    +0.031 C 
ATOM      7  C   UNL     1      -0.745  -4.560  -2.301  0.00  0.00    +0.023 C 
ATOM      8  C   UNL     1      -0.405  -3.959  -3.663  0.00  0.00    +0.006 C 
ATOM      9  C   UNL     1       0.913  -4.554  -4.164  0.00  0.00    +0.048 C 
ATOM     10  C   UNL     1       2.012  -4.299  -3.131  0.00  0.00    +0.195 C 
ATOM     11  N   UNL     1       1.610  -4.822  -1.825  0.00  0.00    -0.214 NA
ATOM     12  I   UNL     1       3.166  -4.810  -0.500  0.00  0.00    +0.024 I 
ENDROOT
BRANCH   1  17
ATOM     13  C   UNL     1      -0.017   1.378   0.010  0.00  0.00    +0.001 A 
ATOM     14  C   UNL     1       1.170   2.088   0.002  0.00  0.00    +0.004 A 
ATOM     15  C   UNL     1       2.377   1.417  -0.013  0.00  0.00    +0.046 A 
ATOM     16  C   UNL     1       2.399   0.030  -0.021  0.00  0.00    +0.120 A 
ATOM     17  C   UNL     1       1.207  -0.680  -0.013  0.00  0.00    -0.003 A 
ATOM     18  C   UNL     1       0.002  -0.004   0.002  0.00  0.00    +0.007 A 
BRANCH  16  19
ATOM     19  O   UNL     1       3.586  -0.632  -0.037  0.00  0.00    -0.506 OA
ATOM     20  H   UNL     1       3.938  -0.829   0.842  0.00  0.00    +0.292 HD
ENDBRANCH  16  19
ENDBRANCH   1  17
BRANCH  10  21
ATOM     21  O   UNL     1       3.211  -4.960  -3.554  0.00  0.00    -0.376 OA
ATOM     22  H   UNL     1       3.544  -4.661  -4.411  0.00  0.00    +0.211 HD
ENDBRANCH  10  21
TORSDOF 3
