REMARK  Name = ZINC38657496
REMARK  10 active torsions:
REMARK  status: ('A' for Active; 'I' for Inactive)
REMARK    1  A    between atoms: C_1  and  C_2
REMARK    2  A    between atoms: C_4  and  C_32
REMARK    3  A    between atoms: C_6  and  O_8
REMARK    4  A    between atoms: O_8  and  C_9
REMARK    5  A    between atoms: C_9  and  C_10
REMARK    6  A    between atoms: C_10  and  O_12
REMARK    7  A    between atoms: O_12  and  C_13
REMARK    8  A    between atoms: C_20  and  N_31
REMARK    9  A    between atoms: C_21  and  C_29
REMARK   10  A    between atoms: C_22  and  C_24
REMARK                            x       y       z     vdW  Elec       q    Type
REMARK                         _______ _______ _______ _____ _____    ______ ____
ROOT
ATOM      1  C   UNL     1       0.045  -3.221   7.098  0.00  0.00    +0.135 A 
ATOM      2  C   UNL     1       0.107  -4.601   6.962  0.00  0.00    +0.047 A 
ATOM      3  C   UNL     1       0.088  -5.407   8.084  0.00  0.00    +0.012 A 
ATOM      4  C   UNL     1       0.009  -4.844   9.345  0.00  0.00    +0.011 A 
ATOM      5  C   UNL     1      -0.052  -3.466   9.487  0.00  0.00    +0.138 A 
ATOM      6  C   UNL     1      -0.028  -2.654   8.360  0.00  0.00    +0.093 A 
ATOM      7  O   UNL     1      -0.131  -2.896  10.715  0.00  0.00    -0.441 OA
ATOM      8  C   UNL     1       0.231  -3.596  11.803  0.00  0.00    +0.199 C 
ATOM      9  C   UNL     1       0.307  -4.948  11.793  0.00  0.00    +0.101 C 
ATOM     10  C   UNL     1      -0.011  -5.739  10.556  0.00  0.00    +0.134 C 
ENDROOT
BRANCH  10  11
ATOM     11  C   UNL     1      -1.378  -6.358  10.697  0.00  0.00    +0.117 A 
ATOM     12  C   UNL     1      -1.650  -7.675  10.687  0.00  0.00    +0.045 A 
ATOM     13  C   UNL     1      -3.049  -7.806  10.847  0.00  0.00    +0.041 A 
ATOM     14  C   UNL     1      -3.548  -6.561  10.944  0.00  0.00    +0.195 A 
ATOM     15  O   UNL     1      -2.530  -5.688  10.858  0.00  0.00    -0.467 OA
ENDBRANCH  10  11
BRANCH   8  16
ATOM     16  N   UNL     1       0.531  -2.921  12.960  0.00  0.00    -0.328 N 
ATOM     17  H   UNL     1       0.481  -1.952  12.982  0.00  0.00    +0.145 HD
ATOM     18  H   UNL     1       0.794  -3.412  13.754  0.00  0.00    +0.145 HD
ENDBRANCH   8  16
BRANCH   9  19
ATOM     19  C   UNL     1       0.700  -5.637  12.985  0.00  0.00    +0.101 C 
ATOM     20  N   UNL     1       1.011  -6.184  13.931  0.00  0.00    -0.191 NA
ENDBRANCH   9  19
BRANCH   1  21
ATOM     21  O   UNL     1       0.063  -2.427   5.995  0.00  0.00    -0.423 OA
BRANCH  21  22
ATOM     22  C   UNL     1      -1.067  -2.318   5.279  0.00  0.00    +0.350 C 
ATOM     23  O   UNL     1      -2.033  -2.983   5.569  0.00  0.00    -0.247 OA
BRANCH  22  24
ATOM     24  C   UNL     1      -1.131  -1.364   4.114  0.00  0.00    +0.349 C 
BRANCH  24  25
ATOM     25  O   UNL     1      -2.428  -1.428   3.517  0.00  0.00    -0.481 OA
BRANCH  25  31
ATOM     26  C   UNL     1      -0.789   1.931   0.378  0.00  0.00    +0.044 C 
ATOM     27  C   UNL     1      -1.881   1.026   0.887  0.00  0.00    -0.047 A 
ATOM     28  C   UNL     1      -3.115   1.012   0.263  0.00  0.00    +0.007 A 
ATOM     29  C   UNL     1      -4.118   0.183   0.727  0.00  0.00    -0.047 A 
ATOM     30  C   UNL     1      -3.891  -0.636   1.817  0.00  0.00    +0.049 A 
ATOM     31  C   UNL     1      -2.654  -0.624   2.445  0.00  0.00    +0.122 A 
ATOM     32  C   UNL     1      -1.647   0.205   1.974  0.00  0.00    +0.049 A 
ATOM     33  C   UNL     1      -5.462   0.171   0.044  0.00  0.00    +0.044 C 
ENDBRANCH  25  31
ENDBRANCH  24  25
ENDBRANCH  22  24
ENDBRANCH  21  22
ENDBRANCH   1  21
TORSDOF 8
