REMARK  Name = ZINC09305764
REMARK  14 active torsions:
REMARK  status: ('A' for Active; 'I' for Inactive)
REMARK    1  A    between atoms: C_1  and  C_2
REMARK    2  A    between atoms: C_2  and  C_3
REMARK    3  A    between atoms: C_3  and  C_5
REMARK    4  A    between atoms: C_3  and  N_6
REMARK    5  A    between atoms: C_10  and  N_11
REMARK    6  A    between atoms: N_11  and  C_12
REMARK    7  A    between atoms: C_13  and  O_28
REMARK    8  A    between atoms: C_18  and  C_23
REMARK    9  A    between atoms: C_19  and  C_22
REMARK   10  A    between atoms: N_20  and  C_21
REMARK   11  A    between atoms: C_23  and  O_25
REMARK   12  A    between atoms: O_25  and  C_26
REMARK   13  A    between atoms: C_26  and  C_27
REMARK   14  A    between atoms: O_28  and  C_29
REMARK                            x       y       z     vdW  Elec       q    Type
REMARK                         _______ _______ _______ _____ _____    ______ ____
ROOT
ATOM      1  C   UNL     1       1.215   3.472   0.161  0.00  0.00    +0.083 A 
ATOM      2  C   UNL     1       1.466   2.468   1.087  0.00  0.00    +0.142 A 
ATOM      3  C   UNL     1       2.660   1.758   1.039  0.00  0.00    +0.049 A 
ATOM      4  C   UNL     1       3.601   2.031   0.069  0.00  0.00    +0.030 A 
ATOM      5  C   UNL     1       3.368   3.033  -0.868  0.00  0.00    +0.052 A 
ATOM      6  C   UNL     1       2.168   3.757  -0.821  0.00  0.00    +0.039 A 
ATOM      7  C   UNL     1       2.235   4.725  -1.931  0.00  0.00    +0.089 A 
ATOM      8  C   UNL     1       3.435   4.522  -2.549  0.00  0.00    +0.030 A 
ATOM      9  N   UNL     1       4.107   3.525  -1.926  0.00  0.00    -0.346 N 
ATOM     10  C   UNL     1       5.432   3.037  -2.319  0.00  0.00    +0.149 C 
ATOM     11  C   UNL     1       3.936   5.291  -3.744  0.00  0.00    +0.064 C 
ENDROOT
BRANCH   1  12
ATOM     12  N   UNL     1       0.017   4.193   0.211  0.00  0.00    -0.316 N 
ATOM     13  H   UNL     1       0.002   5.082   0.597  0.00  0.00    +0.152 HD
BRANCH  12  18
ATOM     14  N   UNL     1      -4.648   4.610  -0.775  0.00  0.00    -0.246 N 
ATOM     15  C   UNL     1      -3.562   3.811  -0.732  0.00  0.00    +0.259 C 
ATOM     16  O   UNL     1      -3.647   2.627  -1.000  0.00  0.00    -0.269 OA
ATOM     17  C   UNL     1      -2.271   4.409  -0.348  0.00  0.00    +0.113 C 
ATOM     18  C   UNL     1      -1.116   3.651  -0.279  0.00  0.00    +0.090 C 
ATOM     19  C   UNL     1      -2.264   5.852  -0.048  0.00  0.00    +0.256 C 
ATOM     20  O   UNL     1      -1.235   6.418   0.272  0.00  0.00    -0.270 OA
ATOM     21  N   UNL     1      -3.428   6.528  -0.137  0.00  0.00    -0.263 N 
ATOM     22  C   UNL     1      -4.568   5.917  -0.488  0.00  0.00    +0.146 C 
ATOM     23  S   UNL     1      -5.997   6.855  -0.576  0.00  0.00    -0.018 S 
ATOM     24  H   UNL     1      -3.440   7.478   0.058  0.00  0.00    +0.157 HD
BRANCH  14  25
ATOM     25  C   UNL     1      -5.944   4.037  -1.149  0.00  0.00    +0.080 C 
ATOM     26  C   UNL     1      -6.322   2.938  -0.154  0.00  0.00    +0.028 C 
BRANCH  25  28
ATOM     27  C   UNL     1      -5.538   4.555  -3.559  0.00  0.00    +0.006 C 
ATOM     28  C   UNL     1      -5.852   3.443  -2.556  0.00  0.00    +0.019 C 
ENDBRANCH  25  28
ENDBRANCH  14  25
ENDBRANCH  12  18
ENDBRANCH   1  12
BRANCH   7  29
ATOM     29  C   UNL     1       1.214   5.713  -2.299  0.00  0.00    +0.342 C 
ATOM     30  O   UNL     1       1.240   6.826  -1.810  0.00  0.00    -0.245 OA
BRANCH  29  31
ATOM     31  O   UNL     1       0.246   5.386  -3.179  0.00  0.00    -0.461 OA
BRANCH  31  32
ATOM     32  C   UNL     1      -0.731   6.412  -3.496  0.00  0.00    +0.229 C 
ATOM     33  C   UNL     1      -1.742   5.861  -4.503  0.00  0.00    +0.048 C 
ENDBRANCH  31  32
ENDBRANCH  29  31
ENDBRANCH   7  29
BRANCH   2  34
ATOM     34  O   UNL     1       0.545   2.183   2.047  0.00  0.00    -0.493 OA
ATOM     35  C   UNL     1       0.869   1.138   2.967  0.00  0.00    +0.277 C 
ENDBRANCH   2  34
TORSDOF 8
