REMARK  Name = ZINC05450219
REMARK  6 active torsions:
REMARK  status: ('A' for Active; 'I' for Inactive)
REMARK    1  A    between atoms: C_1  and  C_2
REMARK    2  A    between atoms: C_2  and  C_20
REMARK    3  A    between atoms: N_5  and  C_9
REMARK    4  A    between atoms: C_9  and  C_10
REMARK    5  A    between atoms: N_12  and  C_13
REMARK    6  A    between atoms: N_12  and  C_14
REMARK                            x       y       z     vdW  Elec       q    Type
REMARK                         _______ _______ _______ _____ _____    ______ ____
ROOT
ATOM      1  C   UNL     1      -5.437  -3.546  -4.753  0.00  0.00    +0.047 C 
ATOM      2  C   UNL     1      -3.996  -3.316  -4.293  0.00  0.00    +0.135 C 
ATOM      3  C   UNL     1      -3.920  -2.130  -3.353  0.00  0.00    +0.251 C 
ATOM      4  O   UNL     1      -4.214  -0.980  -3.600  0.00  0.00    -0.272 OA
ATOM      5  N   UNL     1      -3.457  -2.619  -2.186  0.00  0.00    -0.215 N 
ATOM      6  C   UNL     1      -3.238  -3.937  -2.255  0.00  0.00    +0.310 C 
ATOM      7  O   UNL     1      -2.823  -4.603  -1.327  0.00  0.00    -0.252 OA
ATOM      8  N   UNL     1      -3.529  -4.443  -3.467  0.00  0.00    -0.281 N 
ATOM      9  H   UNL     1      -3.447  -5.369  -3.744  0.00  0.00    +0.152 HD
ENDROOT
BRANCH   2  10
ATOM     10  C   UNL     1      -3.088  -3.117  -5.480  0.00  0.00    -0.012 A 
ATOM     11  C   UNL     1      -2.902  -1.850  -6.000  0.00  0.00    +0.010 A 
ATOM     12  C   UNL     1      -2.067  -1.661  -7.086  0.00  0.00    +0.050 A 
ATOM     13  C   UNL     1      -1.422  -2.744  -7.661  0.00  0.00    +0.166 A 
ATOM     14  C   UNL     1      -1.613  -4.021  -7.139  0.00  0.00    +0.167 A 
ATOM     15  C   UNL     1      -2.448  -4.202  -6.048  0.00  0.00    +0.055 A 
ATOM     16  O   UNL     1      -0.878  -4.907  -7.873  0.00  0.00    -0.453 OA
ATOM     17  C   UNL     1       0.083  -4.108  -8.589  0.00  0.00    +0.466 C 
ATOM     18  O   UNL     1      -0.566  -2.829  -8.720  0.00  0.00    -0.453 OA
ENDBRANCH   2  10
BRANCH   5  19
ATOM     19  C   UNL     1      -3.226  -1.808  -0.988  0.00  0.00    +0.213 C 
BRANCH  19  20
ATOM     20  C   UNL     1      -1.812  -1.286  -0.998  0.00  0.00    +0.234 C 
ATOM     21  O   UNL     1      -1.070  -1.564  -1.917  0.00  0.00    -0.274 OA
ATOM     22  N   UNL     1      -1.372  -0.511   0.012  0.00  0.00    -0.300 N 
ATOM     23  C   UNL     1      -2.269  -0.175   1.122  0.00  0.00    +0.132 C 
BRANCH  22  24
ATOM     24  C   UNL     1       0.002  -0.004   0.002  0.00  0.00    +0.076 C 
ATOM     25  C   UNL     1      -0.019   1.526   0.010  0.00  0.00    +0.022 C 
ATOM     26  C   UNL     1       1.417   2.055  -0.000  0.00  0.00    +0.002 C 
ATOM     27  C   UNL     1       2.157   1.548   1.239  0.00  0.00    +0.000 C 
ATOM     28  C   UNL     1       2.178   0.019   1.231  0.00  0.00    +0.002 C 
ATOM     29  C   UNL     1       0.742  -0.511   1.242  0.00  0.00    +0.022 C 
ENDBRANCH  22  24
ENDBRANCH  19  20
ENDBRANCH   5  19
TORSDOF 4
