REMARK  Name = ZINC55878756
REMARK  8 active torsions:
REMARK  status: ('A' for Active; 'I' for Inactive)
REMARK    1  A    between atoms: C_1  and  C_2
REMARK    2  A    between atoms: C_2  and  O_3
REMARK    3  A    between atoms: O_3  and  C_4
REMARK    4  A    between atoms: C_6  and  C_28
REMARK    5  A    between atoms: C_9  and  N_10
REMARK    6  A    between atoms: N_10  and  C_11
REMARK    7  A    between atoms: C_11  and  C_12
REMARK    8  A    between atoms: C_25  and  C_27
REMARK                            x       y       z     vdW  Elec       q    Type
REMARK                         _______ _______ _______ _____ _____    ______ ____
ROOT
ATOM      1  C   UNL     1       3.105  -0.888  -5.478  0.00  0.00    +0.237 C 
ATOM      2  O   UNL     1       2.906   0.262  -5.148  0.00  0.00    -0.274 OA
ATOM      3  N   UNL     1       3.757  -1.155  -6.627  0.00  0.00    -0.265 N 
ATOM      4  C   UNL     1       3.989  -2.479  -7.024  0.00  0.00    +0.058 A 
ATOM      5  C   UNL     1       4.921  -3.263  -6.363  0.00  0.00    +0.025 A 
ATOM      6  C   UNL     1       5.152  -4.559  -6.784  0.00  0.00    +0.002 A 
ATOM      7  C   UNL     1       4.459  -5.077  -7.862  0.00  0.00    +0.002 A 
ATOM      8  C   UNL     1       3.520  -4.304  -8.522  0.00  0.00    +0.025 A 
ATOM      9  C   UNL     1       3.275  -3.009  -8.100  0.00  0.00    +0.055 A 
ATOM     10  N   UNL     1       2.291  -2.227  -8.717  0.00  0.00    -0.284 N 
ATOM     11  C   UNL     1       2.560  -0.958  -9.093  0.00  0.00    +0.219 C 
ATOM     12  O   UNL     1       1.675  -0.265  -9.549  0.00  0.00    -0.275 OA
ATOM     13  C   UNL     1       3.950  -0.398  -8.949  0.00  0.00    +0.118 C 
ATOM     14  C   UNL     1       4.230  -0.068  -7.486  0.00  0.00    +0.087 C 
ATOM     15  C   UNL     1       5.736   0.115  -7.291  0.00  0.00    +0.029 C 
ATOM     16  H   UNL     1       1.409  -2.600  -8.875  0.00  0.00    +0.155 HD
ENDROOT
BRANCH   1  17
ATOM     17  C   UNL     1       2.624  -2.017  -4.604  0.00  0.00    +0.198 C 
BRANCH  17  18
ATOM     18  N   UNL     1       1.952  -1.469  -3.424  0.00  0.00    -0.333 N 
ATOM     19  H   UNL     1       1.877  -0.508  -3.310  0.00  0.00    +0.147 HD
BRANCH  18  25
ATOM     20  C   UNL     1       0.777  -1.811  -1.336  0.00  0.00    +0.141 A 
ATOM     21  C   UNL     1       0.244  -2.669  -0.388  0.00  0.00    +0.051 A 
ATOM     22  C   UNL     1       0.353  -4.037  -0.555  0.00  0.00    -0.047 A 
ATOM     23  C   UNL     1       0.993  -4.554  -1.666  0.00  0.00    +0.005 A 
ATOM     24  C   UNL     1       1.527  -3.704  -2.617  0.00  0.00    +0.027 A 
ATOM     25  C   UNL     1       1.417  -2.331  -2.459  0.00  0.00    +0.070 A 
ATOM     26  C   UNL     1      -0.227  -4.968   0.479  0.00  0.00    +0.044 C 
BRANCH  20  27
ATOM     27  O   UNL     1       0.671  -0.465  -1.174  0.00  0.00    -0.490 OA
BRANCH  27  29
ATOM     28  C   UNL     1      -0.019   1.526   0.010  0.00  0.00    +0.048 C 
ATOM     29  C   UNL     1       0.002  -0.004   0.002  0.00  0.00    +0.226 C 
ENDBRANCH  27  29
ENDBRANCH  20  27
ENDBRANCH  18  25
ENDBRANCH  17  18
ENDBRANCH   1  17
TORSDOF 5
