REMARK  Name = ZINC64651233
REMARK  7 active torsions:
REMARK  status: ('A' for Active; 'I' for Inactive)
REMARK    1  A    between atoms: C_1  and  O_2
REMARK    2  A    between atoms: O_2  and  C_3
REMARK    3  A    between atoms: C_6  and  C_10
REMARK    4  A    between atoms: C_25  and  C_27
REMARK    5  A    between atoms: C_27  and  C_28
REMARK    6  A    between atoms: C_28  and  C_29
REMARK    7  A    between atoms: C_29  and  N_30
REMARK                            x       y       z     vdW  Elec       q    Type
REMARK                         _______ _______ _______ _____ _____    ______ ____
ROOT
ATOM      1  C   UNL     1      -4.985  -2.625   0.036  0.00  0.00    +0.135 C 
ATOM      2  C   UNL     1      -5.326  -3.073   1.462  0.00  0.00    +0.131 C 
ATOM      3  C   UNL     1      -5.636  -1.808   2.252  0.00  0.00    -0.035 C 
ATOM      4  C   UNL     1      -4.817  -1.808   3.297  0.00  0.00    -0.001 A 
ATOM      5  C   UNL     1      -4.691  -0.893   4.443  0.00  0.00    +0.010 A 
ATOM      6  C   UNL     1      -3.717  -1.190   5.343  0.00  0.00    +0.001 A 
ATOM      7  C   UNL     1      -2.866  -2.293   5.219  0.00  0.00    +0.002 A 
ATOM      8  C   UNL     1      -2.913  -3.188   4.201  0.00  0.00    +0.026 A 
ATOM      9  C   UNL     1      -3.901  -2.985   3.194  0.00  0.00    +0.043 A 
ATOM     10  N   UNL     1      -4.182  -3.705   2.122  0.00  0.00    -0.375 N 
ATOM     11  C   UNL     1      -6.647  -0.789   1.786  0.00  0.00    +0.052 C 
ATOM     12  C   UNL     1      -6.298  -0.456   0.324  0.00  0.00    +0.113 C 
ATOM     13  N   UNL     1      -6.037  -1.699  -0.411  0.00  0.00    -0.292 N 
ATOM     14  C   UNL     1      -6.767  -1.996  -1.504  0.00  0.00    +0.216 C 
ATOM     15  O   UNL     1      -6.556  -3.022  -2.114  0.00  0.00    -0.276 OA
ATOM     16  H   UNL     1      -3.720  -4.502   1.817  0.00  0.00    +0.160 HD
ENDROOT
BRANCH   1  20
ATOM     17  C   UNL     1      -1.200  -0.638   0.010  0.00  0.00    +0.123 A 
ATOM     18  C   UNL     1      -2.256  -0.115   0.743  0.00  0.00    +0.046 A 
ATOM     19  C   UNL     1      -3.478  -0.759   0.749  0.00  0.00    +0.012 A 
ATOM     20  C   UNL     1      -3.651  -1.925   0.027  0.00  0.00    +0.011 A 
ATOM     21  C   UNL     1      -2.599  -2.450  -0.706  0.00  0.00    +0.132 A 
ATOM     22  C   UNL     1      -1.375  -1.804  -0.719  0.00  0.00    +0.084 A 
ATOM     23  F   UNL     1      -2.770  -3.590  -1.411  0.00  0.00    -0.205 F 
BRANCH  17  25
ATOM     24  C   UNL     1       0.111   1.191   0.777  0.00  0.00    +0.277 C 
ATOM     25  O   UNL     1       0.003  -0.005   0.003  0.00  0.00    -0.495 OA
ENDBRANCH  17  25
ENDBRANCH   1  20
BRANCH  14  26
ATOM     26  C   UNL     1      -7.847  -1.052  -1.968  0.00  0.00    +0.098 C 
BRANCH  26  27
ATOM     27  C   UNL     1      -8.518  -1.621  -3.219  0.00  0.00    +0.032 C 
BRANCH  27  28
ATOM     28  C   UNL     1      -9.614  -0.663  -3.691  0.00  0.00    +0.146 C 
BRANCH  28  29
ATOM     29  N   UNL     1     -10.257  -1.208  -4.889  0.00  0.00    -0.252 N 
ATOM     30  C   UNL     1     -11.570  -1.433  -5.067  0.00  0.00    +0.219 A 
ATOM     31  N   UNL     1     -11.739  -1.922  -6.269  0.00  0.00    -0.223 NA
ATOM     32  C   UNL     1     -10.562  -2.023  -6.885  0.00  0.00    +0.244 A 
ATOM     33  N   UNL     1      -9.624  -1.593  -6.082  0.00  0.00    -0.158 NA
ENDBRANCH  28  29
ENDBRANCH  27  28
ENDBRANCH  26  27
ENDBRANCH  14  26
TORSDOF 6
