REMARK  Name = ZINC63853957
REMARK  5 active torsions:
REMARK  status: ('A' for Active; 'I' for Inactive)
REMARK    1  A    between atoms: C_8  and  C_33
REMARK    2  A    between atoms: C_12  and  C_14
REMARK    3  A    between atoms: C_14  and  C_15
REMARK    4  A    between atoms: C_15  and  C_16
REMARK    5  A    between atoms: C_24  and  C_26
REMARK                            x       y       z     vdW  Elec       q    Type
REMARK                         _______ _______ _______ _____ _____    ______ ____
ROOT
ATOM      1  C   UNL     1      -0.553  -2.164   1.819  0.00  0.00    +0.100 C 
ENDROOT
BRANCH   1  12
ATOM      2  C   UNL     1       1.546   0.733  -3.799  0.00  0.00    +0.000 A 
ATOM      3  C   UNL     1       1.182   1.582  -2.770  0.00  0.00    +0.000 A 
ATOM      4  C   UNL     1       1.113   1.101  -1.478  0.00  0.00    +0.005 A 
ATOM      5  C   UNL     1       1.402  -0.229  -1.205  0.00  0.00    -0.027 A 
ATOM      6  C   UNL     1       1.756  -1.078  -2.229  0.00  0.00    -0.040 A 
ATOM      7  C   UNL     1       1.832  -0.589  -3.528  0.00  0.00    +0.004 A 
ATOM      8  C   UNL     1       2.054  -2.538  -2.014  0.00  0.00    +0.067 C 
ATOM      9  C   UNL     1       2.401  -2.813  -0.552  0.00  0.00    +0.166 C 
ATOM     10  N   UNL     1       1.389  -2.150   0.287  0.00  0.00    -0.285 N 
ATOM     11  C   UNL     1       1.321  -0.685   0.230  0.00  0.00    +0.144 C 
ATOM     12  C   UNL     1       0.558  -2.860   1.075  0.00  0.00    +0.217 C 
ATOM     13  O   UNL     1       0.703  -4.059   1.185  0.00  0.00    -0.276 OA
BRANCH   9  14
ATOM     14  C   UNL     1       2.385  -4.297  -0.294  0.00  0.00    +0.231 C 
ATOM     15  O   UNL     1       3.293  -4.816   0.319  0.00  0.00    -0.274 OA
ATOM     16  N   UNL     1       1.361  -5.049  -0.746  0.00  0.00    -0.328 N 
ATOM     17  H   UNL     1       0.634  -4.633  -1.237  0.00  0.00    +0.145 HD
ATOM     18  H   UNL     1       1.351  -6.004  -0.580  0.00  0.00    +0.145 HD
ENDBRANCH   9  14
ENDBRANCH   1  12
BRANCH   1  19
ATOM     19  C   UNL     1      -1.342  -3.190   2.634  0.00  0.00    +0.043 C 
BRANCH  19  20
ATOM     20  C   UNL     1      -2.453  -2.494   3.378  0.00  0.00    -0.034 C 
ATOM     21  C   UNL     1      -2.746  -1.174   3.353  0.00  0.00    -0.000 A 
ATOM     22  C   UNL     1      -2.140  -0.034   2.653  0.00  0.00    +0.010 A 
ATOM     23  C   UNL     1      -2.667   1.199   2.831  0.00  0.00    +0.001 A 
ATOM     24  C   UNL     1      -3.772   1.415   3.665  0.00  0.00    +0.002 A 
ATOM     25  C   UNL     1      -4.382   0.419   4.340  0.00  0.00    +0.026 A 
ATOM     26  C   UNL     1      -3.913  -0.919   4.227  0.00  0.00    +0.043 A 
ATOM     27  N   UNL     1      -4.325  -2.038   4.771  0.00  0.00    -0.374 N 
ATOM     28  C   UNL     1      -3.469  -3.132   4.298  0.00  0.00    +0.137 C 
ATOM     29  H   UNL     1      -5.074  -2.128   5.381  0.00  0.00    +0.161 HD
BRANCH  28  30
ATOM     30  C   UNL     1      -4.288  -4.147   3.544  0.00  0.00    -0.021 A 
ATOM     31  C   UNL     1      -5.333  -3.732   2.739  0.00  0.00    +0.009 A 
ATOM     32  C   UNL     1      -6.084  -4.663   2.047  0.00  0.00    +0.039 A 
ATOM     33  C   UNL     1      -5.790  -6.011   2.159  0.00  0.00    +0.123 A 
ATOM     34  C   UNL     1      -4.744  -6.426   2.966  0.00  0.00    +0.039 A 
ATOM     35  C   UNL     1      -3.991  -5.493   3.653  0.00  0.00    +0.009 A 
ATOM     36  F   UNL     1      -6.525  -6.921   1.483  0.00  0.00    -0.205 F 
ENDBRANCH  28  30
ENDBRANCH  19  20
ENDBRANCH   1  19
TORSDOF 5
