REMARK  Name = ZINC59861193
REMARK  8 active torsions:
REMARK  status: ('A' for Active; 'I' for Inactive)
REMARK    1  A    between atoms: C_1  and  O_2
REMARK    2  A    between atoms: O_2  and  C_3
REMARK    3  A    between atoms: C_5  and  C_13
REMARK    4  A    between atoms: C_8  and  O_9
REMARK    5  A    between atoms: O_9  and  C_10
REMARK    6  A    between atoms: C_10  and  C_11
REMARK    7  A    between atoms: C_11  and  O_12
REMARK    8  A    between atoms: N_20  and  C_23
REMARK                            x       y       z     vdW  Elec       q    Type
REMARK                         _______ _______ _______ _____ _____    ______ ____
ROOT
ATOM      1  C   UNL     1       2.392   0.324  -4.212  0.00  0.00    +0.026 C 
ATOM      2  C   UNL     1       3.096  -0.297  -5.232  0.00  0.00    +0.102 C 
ATOM      3  C   UNL     1       3.162  -1.763  -5.338  0.00  0.00    +0.276 C 
ATOM      4  O   UNL     1       2.535  -2.550  -4.438  0.00  0.00    -0.268 OA
ATOM      5  N   UNL     1       3.850  -2.292  -6.336  0.00  0.00    -0.123 NA
ATOM      6  C   UNL     1       4.477  -1.541  -7.238  0.00  0.00    +0.340 C 
ATOM      7  O   UNL     1       5.090  -2.103  -8.128  0.00  0.00    -0.250 OA
ATOM      8  N   UNL     1       4.472  -0.201  -7.221  0.00  0.00    -0.188 N 
ATOM      9  C   UNL     1       3.807   0.482  -6.265  0.00  0.00    +0.264 C 
ATOM     10  O   UNL     1       3.798   1.699  -6.252  0.00  0.00    -0.269 OA
ENDROOT
BRANCH   8  11
ATOM     11  C   UNL     1       5.162   0.502  -8.214  0.00  0.00    +0.053 A 
ATOM     12  C   UNL     1       4.525   0.861  -9.382  0.00  0.00    +0.024 A 
ATOM     13  C   UNL     1       5.203   1.560 -10.376  0.00  0.00    +0.002 A 
ATOM     14  C   UNL     1       6.510   1.909 -10.224  0.00  0.00    +0.008 A 
ATOM     15  C   UNL     1       7.196   1.562  -9.047  0.00  0.00    -0.016 A 
ATOM     16  C   UNL     1       6.515   0.855  -8.026  0.00  0.00    +0.004 A 
ATOM     17  C   UNL     1       7.200   0.514  -6.849  0.00  0.00    +0.010 A 
ATOM     18  C   UNL     1       8.505   0.871  -6.702  0.00  0.00    +0.001 A 
ATOM     19  C   UNL     1       9.174   1.572  -7.703  0.00  0.00    +0.001 A 
ATOM     20  C   UNL     1       8.545   1.909  -8.862  0.00  0.00    +0.008 A 
ENDBRANCH   8  11
BRANCH   1  23
ATOM     21  C   UNL     1       0.128  -1.038  -1.560  0.00  0.00    +0.162 A 
ATOM     22  C   UNL     1       0.582  -0.293  -2.629  0.00  0.00    +0.057 A 
ATOM     23  C   UNL     1       1.901  -0.459  -3.081  0.00  0.00    -0.020 A 
ATOM     24  C   UNL     1       2.746  -1.381  -2.442  0.00  0.00    +0.012 A 
ATOM     25  C   UNL     1       2.285  -2.113  -1.386  0.00  0.00    +0.050 A 
ATOM     26  C   UNL     1       0.981  -1.948  -0.932  0.00  0.00    +0.162 A 
BRANCH  21  28
ATOM     27  C   UNL     1      -1.965   0.064  -1.806  0.00  0.00    +0.277 C 
ATOM     28  O   UNL     1      -1.148  -0.883  -1.116  0.00  0.00    -0.491 OA
ENDBRANCH  21  28
BRANCH  26  29
ATOM     29  O   UNL     1       0.535  -2.676   0.122  0.00  0.00    -0.486 OA
BRANCH  29  30
ATOM     30  C   UNL     1       1.460  -3.588   0.719  0.00  0.00    +0.257 C 
BRANCH  30  31
ATOM     31  C   UNL     1       0.781  -4.313   1.883  0.00  0.00    +0.196 C 
BRANCH  31  32
ATOM     32  O   UNL     1      -0.282  -5.127   1.382  0.00  0.00    -0.392 OA
ATOM     33  H   UNL     1      -0.757  -5.617   2.067  0.00  0.00    +0.210 HD
ENDBRANCH  31  32
ENDBRANCH  30  31
ENDBRANCH  29  30
ENDBRANCH  26  29
ENDBRANCH   1  23
TORSDOF 7
