REMARK  Name = ZINC02143575
REMARK  6 active torsions:
REMARK  status: ('A' for Active; 'I' for Inactive)
REMARK    1  A    between atoms: C_1  and  C_2
REMARK    2  A    between atoms: C_4  and  C_18
REMARK    3  A    between atoms: C_5  and  N_9
REMARK    4  A    between atoms: C_6  and  C_8
REMARK    5  A    between atoms: C_10  and  C_11
REMARK    6  A    between atoms: C_14  and  O_17
REMARK                            x       y       z     vdW  Elec       q    Type
REMARK                         _______ _______ _______ _____ _____    ______ ____
ROOT
ATOM      1  N   UNL     1       0.057  -4.142  -0.021  0.00  0.00    -0.254 NA
ATOM      2  C   UNL     1       1.194  -4.779  -0.030  0.00  0.00    +0.119 C 
ENDROOT
BRANCH   1   7
ATOM      3  C   UNL     1      -0.018   1.503   0.010  0.00  0.00    +0.044 C 
ATOM      4  C   UNL     1       0.002  -0.004   0.002  0.00  0.00    -0.050 A 
ATOM      5  C   UNL     1       0.006  -0.686  -1.202  0.00  0.00    +0.008 A 
ATOM      6  C   UNL     1       0.024  -2.065  -1.217  0.00  0.00    -0.025 A 
ATOM      7  C   UNL     1       0.039  -2.773  -0.013  0.00  0.00    +0.070 A 
ATOM      8  C   UNL     1       0.036  -2.078   1.198  0.00  0.00    -0.025 A 
ATOM      9  C   UNL     1       0.023  -0.699   1.198  0.00  0.00    +0.008 A 
ATOM     10  C   UNL     1       0.052  -2.834   2.502  0.00  0.00    +0.046 C 
ATOM     11  C   UNL     1       0.027  -2.806  -2.529  0.00  0.00    +0.046 C 
ENDBRANCH   1   7
BRANCH   2  12
ATOM     12  C   UNL     1       1.213  -6.250  -0.038  0.00  0.00    -0.007 A 
ATOM     13  C   UNL     1       0.012  -6.967  -0.042  0.00  0.00    +0.013 A 
ATOM     14  C   UNL     1       0.035  -8.344  -0.049  0.00  0.00    +0.046 A 
ATOM     15  C   UNL     1       1.249  -9.021  -0.053  0.00  0.00    +0.117 A 
ATOM     16  C   UNL     1       2.445  -8.313  -0.050  0.00  0.00    +0.046 A 
ATOM     17  C   UNL     1       2.432  -6.936  -0.048  0.00  0.00    +0.013 A 
BRANCH  15  18
ATOM     18  O   UNL     1       1.266 -10.378  -0.061  0.00  0.00    -0.507 OA
ATOM     19  H   UNL     1       1.271 -10.767  -0.946  0.00  0.00    +0.292 HD
ENDBRANCH  15  18
ENDBRANCH   2  12
TORSDOF 3
