REMARK  Name = ZINC35894387
REMARK  9 active torsions:
REMARK  status: ('A' for Active; 'I' for Inactive)
REMARK    1  A    between atoms: C_1  and  C_2
REMARK    2  A    between atoms: C_2  and  C_3
REMARK    3  A    between atoms: C_2  and  C_4
REMARK    4  A    between atoms: C_4  and  C_5
REMARK    5  A    between atoms: C_5  and  N_6
REMARK    6  A    between atoms: C_7  and  C_9
REMARK    7  A    between atoms: C_14  and  N_33
REMARK    8  A    between atoms: N_22  and  C_25
REMARK    9  A    between atoms: C_25  and  C_26
REMARK                            x       y       z     vdW  Elec       q    Type
REMARK                         _______ _______ _______ _____ _____    ______ ____
ROOT
ATOM      1  C   UNL     1       0.888  -0.881   6.133  0.00  0.00    +0.098 C 
ATOM      2  C   UNL     1       1.018  -2.402   6.062  0.00  0.00    +0.051 C 
ATOM      3  C   UNL     1      -0.351  -3.026   6.146  0.00  0.00    -0.023 A 
ATOM      4  C   UNL     1      -0.560  -4.276   5.590  0.00  0.00    +0.038 A 
ATOM      5  C   UNL     1      -1.809  -4.864   5.653  0.00  0.00    +0.127 A 
ATOM      6  C   UNL     1      -2.856  -4.204   6.271  0.00  0.00    +0.034 A 
ATOM      7  C   UNL     1      -2.653  -2.959   6.831  0.00  0.00    +0.025 A 
ATOM      8  C   UNL     1      -1.395  -2.366   6.771  0.00  0.00    +0.033 A 
ATOM      9  N   UNL     1      -1.217  -1.104   7.359  0.00  0.00    -0.329 N 
ATOM     10  C   UNL     1       0.103  -0.493   7.391  0.00  0.00    +0.069 C 
ATOM     11  C   UNL     1       0.067   1.022   7.501  0.00  0.00    -0.055 C 
ATOM     12  N   UNL     1      -1.000   1.480   8.390  0.00  0.00    +0.388 N 
ATOM     13  C   UNL     1      -2.295   1.054   7.838  0.00  0.00    -0.059 C 
ATOM     14  C   UNL     1      -2.394  -0.465   7.954  0.00  0.00    +0.087 C 
ATOM     15  H   UNL     1      -0.874   1.076   9.306  0.00  0.00    -0.081 HD
ENDROOT
BRANCH   1  17
ATOM     16  N   UNL     1       0.667  -0.609   3.684  0.00  0.00    -0.315 N 
ATOM     17  C   UNL     1       0.159  -0.382   4.912  0.00  0.00    +0.218 C 
ATOM     18  O   UNL     1      -0.884   0.224   5.034  0.00  0.00    -0.275 OA
ATOM     19  H   UNL     1       1.502  -1.093   3.586  0.00  0.00    +0.149 HD
BRANCH  16  20
ATOM     20  C   UNL     1      -0.042  -0.124   2.497  0.00  0.00    +0.104 C 
BRANCH  20  21
ATOM     21  C   UNL     1       0.742  -0.511   1.242  0.00  0.00    +0.022 C 
BRANCH  21  23
ATOM     22  C   UNL     1      -0.019   1.526   0.010  0.00  0.00    +0.007 C 
ATOM     23  C   UNL     1       0.002  -0.004   0.002  0.00  0.00    -0.016 C 
ATOM     24  C   UNL     1       0.718  -0.497  -1.257  0.00  0.00    +0.007 C 
ENDBRANCH  21  23
ENDBRANCH  20  21
ENDBRANCH  16  20
ENDBRANCH   1  17
BRANCH   5  25
ATOM     25  N   UNL     1      -2.027  -6.201   5.056  0.00  0.00    +0.056 N 
ATOM     26  O   UNL     1      -1.113  -6.778   4.515  0.00  0.00    -0.126 OA
ATOM     27  O   UNL     1      -3.120  -6.716   5.110  0.00  0.00    -0.126 OA
ENDBRANCH   5  25
BRANCH  12  28
ATOM     28  C   UNL     1      -0.965   2.945   8.488  0.00  0.00    +0.019 C 
BRANCH  28  29
ATOM     29  C   UNL     1      -1.984   3.406   9.498  0.00  0.00    +0.199 C 
ATOM     30  O   UNL     1      -2.672   2.594  10.079  0.00  0.00    -0.278 OA
ATOM     31  N   UNL     1      -2.131   4.721   9.755  0.00  0.00    -0.303 N 
ATOM     32  C   UNL     1      -1.371   5.808   9.121  0.00  0.00    +0.108 C 
ATOM     33  C   UNL     1      -1.860   7.133   9.744  0.00  0.00    +0.020 C 
ATOM     34  C   UNL     1      -2.466   6.677  11.098  0.00  0.00    +0.020 C 
ATOM     35  C   UNL     1      -3.085   5.308  10.714  0.00  0.00    +0.108 C 
ENDBRANCH  28  29
ENDBRANCH  12  28
TORSDOF 7
