REMARK  Name = ZINC08845283
REMARK  10 active torsions:
REMARK  status: ('A' for Active; 'I' for Inactive)
REMARK    1  A    between atoms: C_1  and  C_2
REMARK    2  A    between atoms: C_4  and  O_32
REMARK    3  A    between atoms: C_5  and  C_9
REMARK    4  A    between atoms: N_17  and  C_29
REMARK    5  A    between atoms: C_18  and  C_20
REMARK    6  A    between atoms: C_23  and  O_28
REMARK    7  A    between atoms: C_24  and  O_26
REMARK    8  A    between atoms: O_26  and  C_27
REMARK    9  A    between atoms: C_29  and  C_30
REMARK   10  A    between atoms: C_30  and  O_31
REMARK                            x       y       z     vdW  Elec       q    Type
REMARK                         _______ _______ _______ _____ _____    ______ ____
ROOT
ATOM      1  C   UNL     1      -0.008  -4.265  -0.094  0.00  0.00    +0.075 A 
ATOM      2  C   UNL     1       1.073  -5.031  -0.392  0.00  0.00    +0.035 A 
ATOM      3  C   UNL     1       0.585  -6.347  -0.555  0.00  0.00    +0.153 A 
ATOM      4  N   UNL     1      -0.717  -6.301  -0.353  0.00  0.00    -0.168 NA
ATOM      5  N   UNL     1      -1.087  -5.102  -0.077  0.00  0.00    -0.276 N 
ATOM      6  H   UNL     1      -1.999  -4.830   0.113  0.00  0.00    +0.189 HD
ATOM      7  C   UNL     1       1.729  -7.217  -0.882  0.00  0.00    +0.268 C 
ATOM      8  O   UNL     1       1.655  -8.413  -1.086  0.00  0.00    -0.268 OA
ATOM      9  N   UNL     1       2.866  -6.502  -0.923  0.00  0.00    -0.283 N 
ATOM     10  C   UNL     1       2.558  -5.098  -0.626  0.00  0.00    +0.141 C 
ENDROOT
BRANCH   1  15
ATOM     11  C   UNL     1      -0.032   1.404   0.923  0.00  0.00    +0.045 C 
ATOM     12  C   UNL     1      -0.025  -0.080   0.659  0.00  0.00    -0.029 A 
ATOM     13  C   UNL     1       0.613  -0.932   1.541  0.00  0.00    +0.050 A 
ATOM     14  C   UNL     1       0.624  -2.296   1.304  0.00  0.00    +0.126 A 
ATOM     15  C   UNL     1      -0.014  -2.809   0.168  0.00  0.00    +0.043 A 
ATOM     16  C   UNL     1      -0.656  -1.942  -0.714  0.00  0.00    +0.034 A 
ATOM     17  C   UNL     1      -0.662  -0.584  -0.462  0.00  0.00    +0.045 A 
ATOM     18 CL   UNL     1      -1.467   0.496  -1.558  0.00  0.00    -0.083 Cl
BRANCH  14  19
ATOM     19  O   UNL     1       1.252  -3.134   2.170  0.00  0.00    -0.506 OA
ATOM     20  H   UNL     1       0.707  -3.402   2.922  0.00  0.00    +0.292 HD
ENDBRANCH  14  19
ENDBRANCH   1  15
BRANCH  10  21
ATOM     21  C   UNL     1       2.938  -4.226  -1.795  0.00  0.00    -0.019 A 
ATOM     22  C   UNL     1       2.383  -4.460  -3.039  0.00  0.00    +0.009 A 
ATOM     23  C   UNL     1       2.728  -3.663  -4.114  0.00  0.00    +0.049 A 
ATOM     24  C   UNL     1       3.631  -2.625  -3.946  0.00  0.00    +0.158 A 
ATOM     25  C   UNL     1       4.189  -2.389  -2.693  0.00  0.00    +0.162 A 
ATOM     26  C   UNL     1       3.835  -3.189  -1.619  0.00  0.00    +0.055 A 
BRANCH  25  27
ATOM     27  O   UNL     1       5.076  -1.372  -2.523  0.00  0.00    -0.491 OA
ATOM     28  C   UNL     1       5.608  -1.189  -1.209  0.00  0.00    +0.277 C 
ENDBRANCH  25  27
BRANCH  24  29
ATOM     29  O   UNL     1       3.972  -1.840  -5.003  0.00  0.00    -0.503 OA
ATOM     30  H   UNL     1       3.405  -1.065  -5.116  0.00  0.00    +0.292 HD
ENDBRANCH  24  29
ENDBRANCH  10  21
BRANCH   9  31
ATOM     31  C   UNL     1       4.198  -7.037  -1.218  0.00  0.00    +0.137 C 
BRANCH  31  32
ATOM     32  C   UNL     1       4.382  -7.139  -2.733  0.00  0.00    +0.175 C 
BRANCH  32  33
ATOM     33  O   UNL     1       4.473  -5.827  -3.292  0.00  0.00    -0.393 OA
ATOM     34  H   UNL     1       4.592  -5.816  -4.252  0.00  0.00    +0.209 HD
ENDBRANCH  32  33
ENDBRANCH  31  32
ENDBRANCH   9  31
TORSDOF 8
