REMARK  Name = ZINC02862501
REMARK  6 active torsions:
REMARK  status: ('A' for Active; 'I' for Inactive)
REMARK    1  A    between atoms: C_3  and  C_10
REMARK    2  A    between atoms: C_5  and  N_7
REMARK    3  A    between atoms: C_10  and  C_12
REMARK    4  A    between atoms: C_12  and  N_13
REMARK    5  A    between atoms: N_13  and  N_24
REMARK    6  A    between atoms: C_14  and  C_16
REMARK                            x       y       z     vdW  Elec       q    Type
REMARK                         _______ _______ _______ _____ _____    ______ ____
ROOT
ATOM      1  N   UNL     1       0.974   7.604   0.061  0.00  0.00    -0.199 N 
ATOM      2  C   UNL     1       0.999   8.222   1.259  0.00  0.00    +0.265 C 
ATOM      3  O   UNL     1       1.211   7.580   2.269  0.00  0.00    -0.268 OA
ENDROOT
BRANCH   1   4
ATOM      4  N   UNL     1       0.851   8.357  -1.113  0.00  0.00    -0.152 N 
ATOM      5  C   UNL     1       1.874   9.034  -1.648  0.00  0.00    +0.243 C 
ATOM      6  O   UNL     1       2.998   9.078  -1.196  0.00  0.00    -0.273 OA
ATOM      7  C   UNL     1       1.409   9.736  -2.904  0.00  0.00    +0.092 C 
ATOM      8  C   UNL     1       2.077   9.044  -4.130  0.00  0.00    +0.002 C 
ATOM      9  C   UNL     1       1.542   9.832  -5.365  0.00  0.00    +0.004 C 
ATOM     10  C   UNL     1       0.050   9.438  -5.463  0.00  0.00    +0.004 C 
ATOM     11  C   UNL     1      -0.175   8.449  -4.279  0.00  0.00    +0.002 C 
ATOM     12  C   UNL     1       1.220   7.733  -4.229  0.00  0.00    +0.008 C 
ATOM     13  C   UNL     1      -0.091   9.339  -3.003  0.00  0.00    +0.092 C 
ATOM     14  C   UNL     1      -0.296   8.454  -1.795  0.00  0.00    +0.243 C 
ATOM     15  O   UNL     1      -1.339   7.917  -1.489  0.00  0.00    -0.273 OA
ENDBRANCH   1   4
BRANCH   2  16
ATOM     16  C   UNL     1       0.769   9.678   1.343  0.00  0.00    +0.057 A 
ATOM     17  C   UNL     1       0.351  10.389   0.216  0.00  0.00    +0.016 A 
ATOM     18  C   UNL     1       0.138  11.748   0.301  0.00  0.00    +0.021 A 
ATOM     19  C   UNL     1       0.338  12.410   1.502  0.00  0.00    +0.042 A 
ATOM     20  C   UNL     1       0.752  11.713   2.623  0.00  0.00    +0.040 A 
ATOM     21  C   UNL     1       0.964  10.350   2.553  0.00  0.00    +0.054 A 
ATOM     22 CL   UNL     1       1.477   9.475   3.962  0.00  0.00    -0.083 Cl
ATOM     23 CL   UNL     1       0.067  14.122   1.599  0.00  0.00    -0.083 Cl
ENDBRANCH   2  16
BRANCH   1  24
ATOM     24  C   UNL     1       1.074   6.144  -0.012  0.00  0.00    +0.211 C 
BRANCH  24  25
ATOM     25  C   UNL     1      -0.306   5.542   0.045  0.00  0.00    +0.182 C 
ATOM     26  O   UNL     1      -1.278   6.261   0.138  0.00  0.00    -0.290 OA
BRANCH  25  29
ATOM     27  C   UNL     1       0.477   1.880  -0.172  0.00  0.00    +0.003 A 
ATOM     28  C   UNL     1       0.644   3.248  -0.119  0.00  0.00    +0.011 A 
ATOM     29  C   UNL     1      -0.475   4.081  -0.012  0.00  0.00    +0.021 A 
ATOM     30  C   UNL     1      -1.754   3.518   0.041  0.00  0.00    +0.044 A 
ATOM     31  C   UNL     1      -1.904   2.149  -0.019  0.00  0.00    +0.127 A 
ATOM     32  C   UNL     1      -0.792   1.331  -0.120  0.00  0.00    +0.033 A 
BRANCH  31  33
ATOM     33  N   UNL     1      -3.257   1.552   0.030  0.00  0.00    +0.056 N 
ATOM     34  O   UNL     1      -3.391   0.342  -0.018  0.00  0.00    -0.126 OA
ATOM     35  O   UNL     1      -4.237   2.270   0.119  0.00  0.00    -0.126 OA
ENDBRANCH  31  33
ENDBRANCH  25  29
ENDBRANCH  24  25
ENDBRANCH   1  24
TORSDOF 6
