REMARK  Name = ZINC00805498
REMARK  8 active torsions:
REMARK  status: ('A' for Active; 'I' for Inactive)
REMARK    1  A    between atoms: C_1  and  C_2
REMARK    2  A    between atoms: C_3  and  C_28
REMARK    3  A    between atoms: C_4  and  C_16
REMARK    4  A    between atoms: C_10  and  C_14
REMARK    5  A    between atoms: C_10  and  C_15
REMARK    6  A    between atoms: C_28  and  O_30
REMARK    7  A    between atoms: O_30  and  C_31
REMARK    8  A    between atoms: C_31  and  C_32
REMARK                            x       y       z     vdW  Elec       q    Type
REMARK                         _______ _______ _______ _____ _____    ______ ____
ROOT
ATOM      1  C   UNL     1       3.123   9.869  -2.471  0.00  0.00    +0.061 C 
ATOM      2  C   UNL     1       3.120   9.055  -1.203  0.00  0.00    +0.031 C 
ATOM      3  C   UNL     1       3.474   7.758  -1.241  0.00  0.00    +0.154 C 
ATOM      4  C   UNL     1       3.472   6.914   0.002  0.00  0.00    +0.080 C 
ATOM      5  C   UNL     1       3.472   7.776   1.239  0.00  0.00    +0.025 C 
ATOM      6  C   UNL     1       3.114   9.076   1.174  0.00  0.00    +0.049 C 
ATOM      7  N   UNL     1       2.759   9.640  -0.022  0.00  0.00    -0.260 NA
ATOM      8  C   UNL     1       3.094   9.939   2.411  0.00  0.00    +0.062 C 
ATOM      9  C   UNL     1       4.165   9.457   3.392  0.00  0.00    -0.023 C 
ATOM     10  C   UNL     1       3.889   7.989   3.732  0.00  0.00    +0.086 C 
ATOM     11  C   UNL     1       3.856   7.189   2.458  0.00  0.00    +0.162 C 
ATOM     12  O   UNL     1       4.166   6.015   2.482  0.00  0.00    -0.292 OA
ATOM     13  C   UNL     1       5.546   9.585   2.747  0.00  0.00    +0.011 C 
ATOM     14  C   UNL     1       4.109  10.299   4.668  0.00  0.00    +0.011 C 
ENDROOT
BRANCH   4  15
ATOM     15  C   UNL     1       2.247   6.037   0.011  0.00  0.00    +0.043 A 
ATOM     16  C   UNL     1       1.019   6.588   0.026  0.00  0.00    +0.203 A 
ATOM     17  O   UNL     1      -0.102   5.860   0.034  0.00  0.00    -0.462 OA
ATOM     18  C   UNL     1      -0.089   4.512   0.027  0.00  0.00    +0.138 A 
ATOM     19  C   UNL     1      -1.274   3.785   0.035  0.00  0.00    +0.048 A 
ATOM     20  C   UNL     1      -1.235   2.407   0.021  0.00  0.00    +0.023 A 
ATOM     21  C   UNL     1      -0.022   1.732   0.011  0.00  0.00    +0.042 A 
ATOM     22  C   UNL     1       1.164   2.435   0.004  0.00  0.00    +0.035 A 
ATOM     23  C   UNL     1       1.137   3.828   0.012  0.00  0.00    +0.066 A 
ATOM     24  C   UNL     1       2.380   4.623   0.004  0.00  0.00    +0.196 A 
ATOM     25  O   UNL     1       3.476   4.089  -0.009  0.00  0.00    -0.287 OA
ATOM     26 CL   UNL     1       0.002  -0.004   0.002  0.00  0.00    -0.084 Cl
ENDBRANCH   4  15
BRANCH   3  27
ATOM     27  C   UNL     1       3.851   7.178  -2.474  0.00  0.00    +0.317 C 
ATOM     28  O   UNL     1       3.853   7.850  -3.488  0.00  0.00    -0.250 OA
BRANCH  27  29
ATOM     29  O   UNL     1       4.209   5.877  -2.526  0.00  0.00    -0.462 OA
BRANCH  29  30
ATOM     30  C   UNL     1       4.578   5.357  -3.805  0.00  0.00    +0.263 C 
BRANCH  30  31
ATOM     31  C   UNL     1       4.949   3.879  -3.666  0.00  0.00    +0.156 C 
ATOM     32  C   UNL     1       5.228   3.276  -5.057  0.00  0.00    +0.037 C 
ATOM     33  C   UNL     1       6.682   2.754  -4.959  0.00  0.00    +0.031 C 
ATOM     34  C   UNL     1       6.876   2.617  -3.427  0.00  0.00    +0.160 C 
ATOM     35  O   UNL     1       6.154   3.748  -2.894  0.00  0.00    -0.373 OA
ENDBRANCH  30  31
ENDBRANCH  29  30
ENDBRANCH  27  29
ENDBRANCH   3  27
TORSDOF 5
