REMARK  Name = ZINC20531907
REMARK  8 active torsions:
REMARK  status: ('A' for Active; 'I' for Inactive)
REMARK    1  A    between atoms: C_1  and  C_2
REMARK    2  A    between atoms: C_2  and  O_3
REMARK    3  A    between atoms: O_3  and  C_4
REMARK    4  A    between atoms: C_12  and  C_18
REMARK    5  A    between atoms: C_13  and  C_17
REMARK    6  A    between atoms: N_20  and  C_21
REMARK    7  A    between atoms: C_21  and  C_22
REMARK    8  A    between atoms: C_21  and  C_23
REMARK                            x       y       z     vdW  Elec       q    Type
REMARK                         _______ _______ _______ _____ _____    ______ ____
ROOT
ATOM      1  C   UNL     1       4.169  -3.490  -0.057  0.00  0.00    +0.403 C 
ATOM      2  O   UNL     1       4.446  -4.042   0.990  0.00  0.00    -0.226 OA
ATOM      3  N   UNL     1       3.577  -2.280  -0.044  0.00  0.00    -0.267 N 
ATOM      4  C   UNL     1       3.261  -1.614   1.227  0.00  0.00    +0.115 C 
ATOM      5  C   UNL     1       1.774  -1.243   1.232  0.00  0.00    +0.072 C 
ATOM      6  C   UNL     1       1.453  -0.418  -0.014  0.00  0.00    +0.147 C 
ATOM      7  C   UNL     1       1.750  -1.230  -1.275  0.00  0.00    +0.072 C 
ATOM      8  C   UNL     1       3.237  -1.600  -1.302  0.00  0.00    +0.115 C 
ATOM      9  C   UNL     1       0.002  -0.004   0.002  0.00  0.00    +0.067 C 
ATOM     10  C   UNL     1      -0.016   1.339   0.009  0.00  0.00    +0.045 C 
ATOM     11  C   UNL     1       1.367   1.842  -0.001  0.00  0.00    +0.336 C 
ATOM     12  O   UNL     1       1.683   3.014   0.002  0.00  0.00    -0.245 OA
ATOM     13  O   UNL     1       2.230   0.809  -0.015  0.00  0.00    -0.450 OA
ATOM     14  C   UNL     1      -1.256   2.196   0.020  0.00  0.00    +0.052 C 
ENDROOT
BRANCH   9  15
ATOM     15  C   UNL     1      -1.171  -0.901   0.008  0.00  0.00    +0.245 C 
ATOM     16  O   UNL     1      -2.293  -0.435   0.021  0.00  0.00    -0.270 OA
ATOM     17  N   UNL     1      -0.997  -2.238   0.000  0.00  0.00    -0.309 N 
ATOM     18  H   UNL     1       0.019  -2.660  -0.011  0.00  0.00    +0.149 HD
BRANCH  17  19
ATOM     19  C   UNL     1      -2.160  -3.128   0.006  0.00  0.00    +0.067 C 
ATOM     20  C   UNL     1      -1.777  -4.473  -0.614  0.00  0.00    +0.027 C 
ATOM     21  C   UNL     1      -2.628  -3.345   1.447  0.00  0.00    +0.027 C 
ENDBRANCH  17  19
ENDBRANCH   9  15
BRANCH   1  22
ATOM     22  O   UNL     1       4.454  -4.089  -1.229  0.00  0.00    -0.451 OA
BRANCH  22  24
ATOM     23  C   UNL     1       5.334  -5.910  -2.585  0.00  0.00    +0.048 C 
ATOM     24  C   UNL     1       5.091  -5.392  -1.166  0.00  0.00    +0.230 C 
ENDBRANCH  22  24
ENDBRANCH   1  22
TORSDOF 4
