REMARK  Name = ZINC16529518
REMARK  7 active torsions:
REMARK  status: ('A' for Active; 'I' for Inactive)
REMARK    1  A    between atoms: C_1  and  C_2
REMARK    2  A    between atoms: C_7  and  C_8
REMARK    3  A    between atoms: C_18  and  C_20
REMARK    4  A    between atoms: C_20  and  N_21
REMARK    5  A    between atoms: N_21  and  C_22
REMARK    6  A    between atoms: C_25  and  C_27
REMARK    7  A    between atoms: C_31  and  N_33
REMARK                            x       y       z     vdW  Elec       q    Type
REMARK                         _______ _______ _______ _____ _____    ______ ____
ROOT
ATOM      1  C   UNL     1      -0.288   4.754  -0.694  0.00  0.00    +0.138 C 
ATOM      2  C   UNL     1      -0.980   5.207  -1.978  0.00  0.00    -0.012 A 
ATOM      3  C   UNL     1      -0.286   5.612  -3.117  0.00  0.00    +0.013 A 
ATOM      4  C   UNL     1      -0.965   5.997  -4.222  0.00  0.00    +0.046 A 
ATOM      5  S   UNL     1      -2.661   5.803  -3.697  0.00  0.00    -0.101 S 
ATOM      6  C   UNL     1      -2.338   5.227  -2.051  0.00  0.00    -0.003 A 
ATOM      7  C   UNL     1      -3.320   4.854  -0.989  0.00  0.00    +0.062 C 
ATOM      8  C   UNL     1      -2.590   4.049   0.097  0.00  0.00    +0.114 C 
ATOM      9  N   UNL     1      -1.301   4.704   0.368  0.00  0.00    -0.289 N 
ATOM     10  C   UNL     1      -1.054   5.251   1.575  0.00  0.00    +0.234 C 
ATOM     11  O   UNL     1       0.011   5.790   1.790  0.00  0.00    -0.274 OA
ENDROOT
BRANCH   1  18
ATOM     12  C   UNL     1       2.505   4.302  -0.106  0.00  0.00    +0.044 C 
ATOM     13  C   UNL     1       1.648   3.170  -0.611  0.00  0.00    -0.045 A 
ATOM     14  C   UNL     1       2.198   1.915  -0.793  0.00  0.00    +0.004 A 
ATOM     15  C   UNL     1       1.412   0.876  -1.256  0.00  0.00    +0.000 A 
ATOM     16  C   UNL     1       0.076   1.092  -1.537  0.00  0.00    +0.000 A 
ATOM     17  C   UNL     1      -0.474   2.347  -1.355  0.00  0.00    +0.006 A 
ATOM     18  C   UNL     1       0.312   3.386  -0.892  0.00  0.00    -0.020 A 
ENDBRANCH   1  18
BRANCH  10  19
ATOM     19  C   UNL     1      -2.102   5.194   2.657  0.00  0.00    +0.204 C 
BRANCH  19  20
ATOM     20  N   UNL     1      -1.594   5.853   3.863  0.00  0.00    -0.286 N 
ATOM     21  C   UNL     1      -1.293   5.122   4.955  0.00  0.00    +0.247 C 
ATOM     22  O   UNL     1      -0.950   5.675   5.981  0.00  0.00    -0.270 OA
BRANCH  21  23
ATOM     23  C   UNL     1      -1.379   3.647   4.903  0.00  0.00    +0.039 A 
ATOM     24  C   UNL     1      -1.187   2.976   3.694  0.00  0.00    +0.014 A 
ATOM     25  C   UNL     1      -1.264   1.600   3.654  0.00  0.00    +0.023 A 
ATOM     26  C   UNL     1      -1.542   0.884   4.807  0.00  0.00    +0.071 A 
ATOM     27  C   UNL     1      -1.739   1.545   6.008  0.00  0.00    +0.145 A 
ATOM     28  C   UNL     1      -1.659   2.921   6.062  0.00  0.00    +0.047 A 
ATOM     29 CL   UNL     1      -1.643  -0.848   4.747  0.00  0.00    -0.081 Cl
BRANCH  27  30
ATOM     30  N   UNL     1      -2.035   0.774   7.236  0.00  0.00    +0.058 N 
ATOM     31  O   UNL     1      -2.208   1.354   8.293  0.00  0.00    -0.126 OA
ATOM     32  O   UNL     1      -2.106  -0.441   7.190  0.00  0.00    -0.126 OA
ENDBRANCH  27  30
ENDBRANCH  21  23
BRANCH  20  33
ATOM     33  C   UNL     1      -1.415   7.307   3.883  0.00  0.00    +0.077 C 
ATOM     34  C   UNL     1      -0.530   7.894   4.984  0.00  0.00    +0.024 C 
ATOM     35  C   UNL     1      -2.049   8.081   5.040  0.00  0.00    +0.024 C 
ENDBRANCH  20  33
ENDBRANCH  19  20
ENDBRANCH  10  19
TORSDOF 6
