REMARK  Name = ZINC21609403
REMARK  9 active torsions:
REMARK  status: ('A' for Active; 'I' for Inactive)
REMARK    1  A    between atoms: C_1  and  C_2
REMARK    2  A    between atoms: C_6  and  N_9
REMARK    3  A    between atoms: C_7  and  C_8
REMARK    4  A    between atoms: C_13  and  S_14
REMARK    5  A    between atoms: S_14  and  C_15
REMARK    6  A    between atoms: C_15  and  C_16
REMARK    7  A    between atoms: N_18  and  N_19
REMARK    8  A    between atoms: C_20  and  C_22
REMARK    9  A    between atoms: C_26  and  N_28
REMARK                            x       y       z     vdW  Elec       q    Type
REMARK                         _______ _______ _______ _____ _____    ______ ____
ROOT
ATOM      1  C   UNL     1       2.369   1.025  -0.015  0.00  0.00    +0.239 C 
ATOM      2  O   UNL     1       2.385  -0.188  -0.022  0.00  0.00    -0.273 OA
ATOM      3  N   UNL     1       1.193   1.683  -0.000  0.00  0.00    -0.233 N 
ATOM      4  H   UNL     1       1.178   2.783   0.006  0.00  0.00    +0.173 HD
ENDROOT
BRANCH   3   5
ATOM      5  N   UNL     1      -0.011   0.966   0.007  0.00  0.00    -0.230 N 
ATOM      6  C   UNL     1      -1.187   1.624   0.017  0.00  0.00    +0.260 C 
ATOM      7  O   UNL     1      -1.204   2.839   0.023  0.00  0.00    -0.269 OA
ATOM      8  H   UNL     1       0.004  -0.134   0.006  0.00  0.00    +0.173 HD
BRANCH   6   9
ATOM      9  C   UNL     1      -2.458   0.867   0.018  0.00  0.00    +0.040 A 
ATOM     10  C   UNL     1      -2.442  -0.529   0.005  0.00  0.00    +0.013 A 
ATOM     11  C   UNL     1      -3.631  -1.228   0.012  0.00  0.00    +0.003 A 
ATOM     12  C   UNL     1      -4.837  -0.550   0.021  0.00  0.00    +0.033 A 
ATOM     13  C   UNL     1      -4.859   0.833   0.029  0.00  0.00    +0.127 A 
ATOM     14  C   UNL     1      -3.677   1.545   0.028  0.00  0.00    +0.045 A 
BRANCH  13  15
ATOM     15  N   UNL     1      -6.154   1.551   0.039  0.00  0.00    +0.056 N 
ATOM     16  O   UNL     1      -6.175   2.769   0.045  0.00  0.00    -0.126 OA
ATOM     17  O   UNL     1      -7.198   0.924   0.040  0.00  0.00    -0.126 OA
ENDBRANCH  13  15
ENDBRANCH   6   9
ENDBRANCH   3   5
BRANCH   1  18
ATOM     18  C   UNL     1       3.663   1.796  -0.023  0.00  0.00    +0.174 C 
BRANCH  18  19
ATOM     19  S   UNL     1       5.055   0.639  -0.043  0.00  0.00    -0.078 S 
BRANCH  19  24
ATOM     20  N   UNL     1       7.723   1.449  -0.058  0.00  0.00    -0.294 N 
ATOM     21  C   UNL     1       8.431   2.632  -0.063  0.00  0.00    +0.113 A 
ATOM     22  C   UNL     1       7.528   3.628  -0.049  0.00  0.00    +0.131 A 
ATOM     23  N   UNL     1       6.298   3.086  -0.041  0.00  0.00    -0.230 NA
ATOM     24  C   UNL     1       6.400   1.777  -0.050  0.00  0.00    +0.174 A 
BRANCH  20  30
ATOM     25  C   UNL     1       8.361  -2.862  -2.340  0.00  0.00    +0.044 C 
ATOM     26  C   UNL     1       8.586  -1.955  -1.157  0.00  0.00    -0.046 A 
ATOM     27  C   UNL     1       9.326  -2.400  -0.077  0.00  0.00    +0.004 A 
ATOM     28  C   UNL     1       9.535  -1.570   1.010  0.00  0.00    +0.002 A 
ATOM     29  C   UNL     1       9.005  -0.295   1.019  0.00  0.00    +0.026 A 
ATOM     30  C   UNL     1       8.262   0.155  -0.065  0.00  0.00    +0.052 A 
ATOM     31  C   UNL     1       8.049  -0.682  -1.152  0.00  0.00    -0.024 A 
ATOM     32  C   UNL     1       7.238  -0.201  -2.327  0.00  0.00    +0.046 C 
ENDBRANCH  20  30
ENDBRANCH  19  24
ENDBRANCH  18  19
ENDBRANCH   1  18
TORSDOF 7
