REMARK  Name = ZINC06973945
REMARK  7 active torsions:
REMARK  status: ('A' for Active; 'I' for Inactive)
REMARK    1  A    between atoms: C_1  and  N_2
REMARK    2  A    between atoms: N_2  and  C_3
REMARK    3  A    between atoms: N_2  and  S_13
REMARK    4  A    between atoms: C_3  and  C_4
REMARK    5  A    between atoms: N_6  and  C_7
REMARK    6  A    between atoms: S_13  and  C_16
REMARK    7  A    between atoms: C_19  and  C_21
REMARK                            x       y       z     vdW  Elec       q    Type
REMARK                         _______ _______ _______ _____ _____    ______ ____
ROOT
ATOM      1  S   UNL     1      -5.525  -2.033   0.043  0.00  0.00    +0.067 S 
ATOM      2  O   UNL     1      -6.157  -0.880  -0.496  0.00  0.00    -0.152 OA
ATOM      3  O   UNL     1      -5.701  -3.329  -0.513  0.00  0.00    -0.152 OA
ENDROOT
BRANCH   1   4
ATOM      4  C   UNL     1      -3.792  -1.710   0.029  0.00  0.00    +0.143 A 
ATOM      5  C   UNL     1      -2.760  -2.592   0.015  0.00  0.00    +0.037 A 
ATOM      6  C   UNL     1      -1.468  -2.113  -0.001  0.00  0.00    +0.020 A 
ATOM      7  C   UNL     1      -1.269  -0.758   0.010  0.00  0.00    +0.041 A 
ATOM      8  S   UNL     1      -2.943  -0.140   0.029  0.00  0.00    -0.067 S 
BRANCH   7   9
ATOM      9  C   UNL     1       0.002  -0.004   0.002  0.00  0.00    +0.098 A 
ATOM     10  C   UNL     1      -0.017   1.412   0.010  0.00  0.00    +0.036 A 
ATOM     11  C   UNL     1       1.175   2.073   0.002  0.00  0.00    +0.073 A 
ATOM     12  C   UNL     1       2.359   1.303  -0.014  0.00  0.00    +0.265 A 
ATOM     13  O   UNL     1       3.449   1.852  -0.021  0.00  0.00    -0.266 OA
ATOM     14  N   UNL     1       2.277  -0.041  -0.020  0.00  0.00    -0.243 N 
ATOM     15  H   UNL     1       3.119  -0.579  -0.032  0.00  0.00    +0.192 HD
ATOM     16  N   UNL     1       1.147  -0.650  -0.013  0.00  0.00    -0.170 NA
ENDBRANCH   7   9
ENDBRANCH   1   4
BRANCH   1  18
ATOM     17  C   UNL     1      -6.430  -0.927   2.339  0.00  0.00    +0.132 C 
ATOM     18  N   UNL     1      -5.992  -2.131   1.629  0.00  0.00    -0.170 NA
BRANCH  18  19
ATOM     19  C   UNL     1      -5.966  -3.421   2.321  0.00  0.00    +0.204 C 
BRANCH  19  20
ATOM     20  C   UNL     1      -4.665  -3.564   3.070  0.00  0.00    +0.229 C 
ATOM     21  O   UNL     1      -3.841  -2.675   3.029  0.00  0.00    -0.274 OA
ATOM     22  N   UNL     1      -4.418  -4.679   3.785  0.00  0.00    -0.311 N 
ATOM     23  H   UNL     1      -5.077  -5.390   3.818  0.00  0.00    +0.149 HD
BRANCH  22  24
ATOM     24  C   UNL     1      -3.154  -4.818   4.513  0.00  0.00    +0.073 C 
ATOM     25  C   UNL     1      -2.079  -5.361   3.569  0.00  0.00    +0.022 C 
ATOM     26  C   UNL     1      -0.759  -5.506   4.329  0.00  0.00    +0.002 C 
ATOM     27  C   UNL     1      -0.948  -6.474   5.498  0.00  0.00    +0.000 C 
ATOM     28  C   UNL     1      -2.022  -5.930   6.442  0.00  0.00    +0.002 C 
ATOM     29  C   UNL     1      -3.342  -5.786   5.682  0.00  0.00    +0.022 C 
ENDBRANCH  22  24
ENDBRANCH  19  20
ENDBRANCH  18  19
ENDBRANCH   1  18
TORSDOF 6
