REMARK  Name = ZINC63375134
REMARK  13 active torsions:
REMARK  status: ('A' for Active; 'I' for Inactive)
REMARK    1  A    between atoms: C_1  and  C_2
REMARK    2  A    between atoms: C_2  and  C_3
REMARK    3  A    between atoms: C_2  and  C_4
REMARK    4  A    between atoms: C_4  and  C_5
REMARK    5  A    between atoms: C_5  and  N_6
REMARK    6  A    between atoms: C_12  and  C_28
REMARK    7  A    between atoms: C_24  and  C_27
REMARK    8  A    between atoms: C_31  and  O_36
REMARK    9  A    between atoms: C_32  and  O_34
REMARK   10  A    between atoms: O_34  and  C_35
REMARK   11  A    between atoms: O_36  and  C_37
REMARK   12  A    between atoms: C_37  and  C_38
REMARK   13  A    between atoms: C_37  and  C_39
REMARK                            x       y       z     vdW  Elec       q    Type
REMARK                         _______ _______ _______ _____ _____    ______ ____
ROOT
ATOM      1  N   UNL     1       0.453  -0.552   3.621  0.00  0.00    -0.291 N 
ATOM      2  C   UNL     1       0.255  -1.903   4.181  0.00  0.00    +0.203 C 
ATOM      3  C   UNL     1       1.611  -2.539   4.402  0.00  0.00    +0.234 C 
ATOM      4  O   UNL     1       1.824  -3.697   4.111  0.00  0.00    -0.274 OA
ATOM      5  N   UNL     1       2.588  -1.741   4.947  0.00  0.00    -0.283 N 
ATOM      6  C   UNL     1       3.940  -2.272   4.966  0.00  0.00    +0.121 C 
ATOM      7  C   UNL     1       4.878  -1.512   5.908  0.00  0.00    +0.065 C 
ATOM      8  C   UNL     1       4.543  -0.051   5.745  0.00  0.00    -0.027 C 
ATOM      9  C   UNL     1       5.254   0.997   5.358  0.00  0.00    -0.000 A 
ATOM     10  C   UNL     1       6.686   1.159   5.059  0.00  0.00    +0.010 A 
ATOM     11  C   UNL     1       7.079   2.397   4.657  0.00  0.00    +0.001 A 
ATOM     12  C   UNL     1       6.201   3.477   4.522  0.00  0.00    +0.002 A 
ATOM     13  C   UNL     1       4.871   3.421   4.786  0.00  0.00    +0.026 A 
ATOM     14  C   UNL     1       4.341   2.175   5.230  0.00  0.00    +0.043 A 
ATOM     15  N   UNL     1       3.130   1.852   5.579  0.00  0.00    -0.375 N 
ATOM     16  C   UNL     1       3.141   0.462   6.032  0.00  0.00    +0.139 C 
ATOM     17  C   UNL     1       2.139  -0.425   5.364  0.00  0.00    +0.135 C 
ATOM     18  C   UNL     1       1.396   0.229   4.228  0.00  0.00    +0.242 C 
ATOM     19  O   UNL     1       1.617   1.369   3.879  0.00  0.00    -0.273 OA
ATOM     20  C   UNL     1       1.061  -0.685   6.419  0.00  0.00    +0.044 C 
ATOM     21  H   UNL     1       2.354   2.433   5.545  0.00  0.00    +0.160 HD
ENDROOT
BRANCH   7  22
ATOM     22  C   UNL     1       6.314  -1.763   5.522  0.00  0.00    -0.035 A 
ATOM     23  C   UNL     1       6.763  -1.405   4.265  0.00  0.00    +0.008 A 
ATOM     24  C   UNL     1       8.078  -1.633   3.906  0.00  0.00    +0.050 A 
ATOM     25  C   UNL     1       8.950  -2.221   4.809  0.00  0.00    +0.162 A 
ATOM     26  C   UNL     1       8.498  -2.581   6.074  0.00  0.00    +0.162 A 
ATOM     27  C   UNL     1       7.179  -2.345   6.429  0.00  0.00    +0.053 A 
BRANCH  26  28
ATOM     28  O   UNL     1       9.350  -3.158   6.963  0.00  0.00    -0.491 OA
ATOM     29  C   UNL     1       8.817  -3.501   8.244  0.00  0.00    +0.277 C 
ENDBRANCH  26  28
BRANCH  25  30
ATOM     30  O   UNL     1      10.244  -2.446   4.457  0.00  0.00    -0.486 OA
BRANCH  30  31
ATOM     31  C   UNL     1      10.669  -1.945   3.188  0.00  0.00    +0.167 C 
ATOM     32  C   UNL     1      12.182  -1.718   3.210  0.00  0.00    +0.051 C 
ATOM     33  C   UNL     1      10.321  -2.959   2.097  0.00  0.00    +0.051 C 
ENDBRANCH  30  31
ENDBRANCH  25  30
ENDBRANCH   7  22
BRANCH   1  34
ATOM     34  C   UNL     1      -0.318  -0.076   2.470  0.00  0.00    +0.108 C 
BRANCH  34  35
ATOM     35  C   UNL     1       0.421  -0.433   1.178  0.00  0.00    +0.022 C 
BRANCH  35  37
ATOM     36  C   UNL     1      -0.442   1.594  -0.001  0.00  0.00    +0.007 C 
ATOM     37  C   UNL     1      -0.384   0.065  -0.024  0.00  0.00    -0.016 C 
ATOM     38  C   UNL     1       0.290  -0.401  -1.317  0.00  0.00    +0.007 C 
ENDBRANCH  35  37
ENDBRANCH  34  35
ENDBRANCH   1  34
TORSDOF 7
