REMARK  Name = ZINC64604269
REMARK  11 active torsions:
REMARK  status: ('A' for Active; 'I' for Inactive)
REMARK    1  A    between atoms: C_1  and  C_2
REMARK    2  A    between atoms: C_7  and  S_12
REMARK    3  A    between atoms: S_12  and  C_13
REMARK    4  A    between atoms: C_13  and  C_14
REMARK    5  A    between atoms: C_16  and  C_19
REMARK    6  A    between atoms: C_19  and  C_20
REMARK    7  A    between atoms: C_20  and  C_21
REMARK    8  A    between atoms: N_23  and  C_24
REMARK    9  A    between atoms: C_25  and  C_32
REMARK   10  A    between atoms: C_27  and  C_31
REMARK   11  A    between atoms: C_29  and  C_30
REMARK                            x       y       z     vdW  Elec       q    Type
REMARK                         _______ _______ _______ _____ _____    ______ ____
ROOT
ATOM      1  C   UNL     1       3.527  -5.925   2.010  0.00  0.00    +0.182 A 
ATOM      2  N   UNL     1       3.924  -5.904   3.287  0.00  0.00    -0.195 NA
ATOM      3  C   UNL     1       5.204  -5.663   3.354  0.00  0.00    +0.228 A 
ATOM      4  O   UNL     1       5.670  -5.521   2.107  0.00  0.00    -0.338 OA
ATOM      5  N   UNL     1       4.556  -5.702   1.244  0.00  0.00    -0.060 NA
ENDROOT
BRANCH   1   6
ATOM      6  C   UNL     1       2.119  -6.174   1.534  0.00  0.00    +0.152 C 
BRANCH   6   7
ATOM      7  S   UNL     1       1.871  -7.952   1.279  0.00  0.00    -0.107 S 
BRANCH   7  14
ATOM      8  C   UNL     1      -3.930  -3.678   1.341  0.00  0.00    +0.044 C 
ATOM      9  C   UNL     1      -2.888  -4.633   0.819  0.00  0.00    -0.048 A 
ATOM     10  C   UNL     1      -2.459  -4.502  -0.514  0.00  0.00    +0.005 A 
ATOM     11  C   UNL     1      -1.532  -5.312  -1.062  0.00  0.00    +0.028 A 
ATOM     12  C   UNL     1      -0.932  -6.381  -0.251  0.00  0.00    +0.061 A 
ATOM     13  N   UNL     1      -0.038  -7.291  -0.507  0.00  0.00    -0.355 N 
ATOM     14  C   UNL     1       0.152  -8.080   0.716  0.00  0.00    +0.236 C 
ATOM     15  N   UNL     1      -0.753  -7.509   1.722  0.00  0.00    -0.355 N 
ATOM     16  C   UNL     1      -1.385  -6.519   1.160  0.00  0.00    +0.061 A 
ATOM     17  C   UNL     1      -2.399  -5.574   1.651  0.00  0.00    +0.030 A 
ATOM     18  H   UNL     1       0.420  -7.423  -1.353  0.00  0.00    +0.162 HD
ATOM     19  H   UNL     1      -0.860  -7.813   2.636  0.00  0.00    +0.162 HD
ENDBRANCH   7  14
ENDBRANCH   6   7
ENDBRANCH   1   6
BRANCH   3  20
ATOM     20  C   UNL     1       6.019  -5.562   4.618  0.00  0.00    +0.108 C 
BRANCH  20  21
ATOM     21  C   UNL     1       6.565  -6.944   4.985  0.00  0.00    +0.105 C 
BRANCH  21  22
ATOM     22  C   UNL     1       7.379  -6.842   6.248  0.00  0.00    +0.218 C 
ATOM     23  O   UNL     1       7.511  -5.771   6.801  0.00  0.00    -0.275 OA
ATOM     24  N   UNL     1       7.962  -7.943   6.764  0.00  0.00    -0.285 N 
ATOM     25  H   UNL     1       7.798  -8.811   6.365  0.00  0.00    +0.155 HD
BRANCH  24  26
ATOM     26  C   UNL     1       8.805  -7.832   7.876  0.00  0.00    +0.039 A 
ATOM     27  C   UNL     1       8.567  -8.601   9.008  0.00  0.00    -0.029 A 
ATOM     28  C   UNL     1       9.400  -8.489  10.104  0.00  0.00    +0.008 A 
ATOM     29  C   UNL     1      10.470  -7.614  10.075  0.00  0.00    -0.050 A 
ATOM     30  C   UNL     1      10.709  -6.846   8.950  0.00  0.00    +0.008 A 
ATOM     31  C   UNL     1       9.883  -6.958   7.848  0.00  0.00    -0.029 A 
ATOM     32  C   UNL     1      10.148  -6.127   6.619  0.00  0.00    +0.045 C 
ATOM     33  C   UNL     1      11.377  -7.495  11.273  0.00  0.00    +0.044 C 
ATOM     34  C   UNL     1       7.401  -9.555   9.041  0.00  0.00    +0.045 C 
ENDBRANCH  24  26
ENDBRANCH  21  22
ENDBRANCH  20  21
ENDBRANCH   3  20
TORSDOF 7
