REMARK  Name = ZINC09754198
REMARK  12 active torsions:
REMARK  status: ('A' for Active; 'I' for Inactive)
REMARK    1  A    between atoms: C_1  and  C_2
REMARK    2  A    between atoms: C_2  and  C_3
REMARK    3  A    between atoms: C_2  and  N_4
REMARK    4  A    between atoms: N_4  and  C_5
REMARK    5  A    between atoms: N_4  and  S_6
REMARK    6  A    between atoms: S_6  and  C_9
REMARK    7  A    between atoms: C_13  and  C_15
REMARK    8  A    between atoms: C_15  and  O_17
REMARK    9  A    between atoms: O_17  and  C_18
REMARK   10  A    between atoms: C_18  and  C_20
REMARK   11  A    between atoms: C_18  and  C_26
REMARK   12  A    between atoms: N_31  and  C_32
REMARK                            x       y       z     vdW  Elec       q    Type
REMARK                         _______ _______ _______ _____ _____    ______ ____
ROOT
ATOM      1  O   UNL     1      -0.692   1.554   1.203  0.00  0.00    -0.444 OA
ENDROOT
BRANCH   1   2
ATOM      2  C   UNL     1      -1.658   0.762   1.707  0.00  0.00    +0.340 C 
ATOM      3  O   UNL     1      -1.925  -0.291   1.164  0.00  0.00    -0.245 OA
BRANCH   2   8
ATOM      4  C   UNL     1      -4.077   0.747   4.579  0.00  0.00    +0.106 A 
ATOM      5  C   UNL     1      -3.770   1.947   5.196  0.00  0.00    +0.028 A 
ATOM      6  C   UNL     1      -2.778   2.763   4.681  0.00  0.00    +0.003 A 
ATOM      7  C   UNL     1      -2.088   2.384   3.548  0.00  0.00    +0.015 A 
ATOM      8  C   UNL     1      -2.393   1.174   2.921  0.00  0.00    +0.061 A 
ATOM      9  C   UNL     1      -3.398   0.358   3.443  0.00  0.00    +0.043 A 
BRANCH   4  10
ATOM     10  S   UNL     1      -5.343  -0.283   5.242  0.00  0.00    +0.061 S 
ATOM     11  O   UNL     1      -5.066  -1.605   4.798  0.00  0.00    -0.153 OA
ATOM     12  O   UNL     1      -5.458   0.049   6.619  0.00  0.00    -0.153 OA
BRANCH  10  13
ATOM     13  N   UNL     1      -6.767   0.167   4.526  0.00  0.00    -0.177 NA
ATOM     14  C   UNL     1      -7.197  -0.476   3.282  0.00  0.00    +0.132 C 
BRANCH  13  16
ATOM     15  C   UNL     1      -7.758   2.372   4.156  0.00  0.00    +0.025 C 
ATOM     16  C   UNL     1      -7.596   1.209   5.137  0.00  0.00    +0.073 C 
ATOM     17  C   UNL     1      -8.972   0.632   5.475  0.00  0.00    +0.025 C 
ENDBRANCH  13  16
ENDBRANCH  10  13
ENDBRANCH   4  10
ENDBRANCH   2   8
ENDBRANCH   1   2
BRANCH   1  18
ATOM     18  C   UNL     1      -0.013   1.086   0.008  0.00  0.00    +0.292 C 
BRANCH  18  19
ATOM     19  C   UNL     1       1.401   1.607  -0.003  0.00  0.00    +0.266 C 
ATOM     20  O   UNL     1       1.797   2.305   0.907  0.00  0.00    -0.271 OA
ATOM     21  N   UNL     1       2.226   1.299  -1.023  0.00  0.00    -0.237 N 
ATOM     22  C   UNL     1       3.490   1.765  -1.033  0.00  0.00    +0.306 C 
ATOM     23  O   UNL     1       3.887   2.464  -0.121  0.00  0.00    -0.252 OA
ATOM     24  N   UNL     1       4.315   1.456  -2.053  0.00  0.00    -0.302 N 
ATOM     25  C   UNL     1       5.689   1.963  -2.063  0.00  0.00    +0.129 C 
ATOM     26  H   UNL     1       1.909   0.741  -1.751  0.00  0.00    +0.159 HD
ATOM     27  H   UNL     1       3.998   0.898  -2.781  0.00  0.00    +0.150 HD
ENDBRANCH  18  19
BRANCH  18  28
ATOM     28  C   UNL     1      -0.742   1.585  -1.213  0.00  0.00    +0.002 A 
ATOM     29  C   UNL     1      -1.257   2.868  -1.234  0.00  0.00    +0.008 A 
ATOM     30  C   UNL     1      -1.922   3.327  -2.355  0.00  0.00    +0.000 A 
ATOM     31  C   UNL     1      -2.079   2.501  -3.452  0.00  0.00    +0.000 A 
ATOM     32  C   UNL     1      -1.568   1.216  -3.430  0.00  0.00    +0.000 A 
ATOM     33  C   UNL     1      -0.899   0.759  -2.310  0.00  0.00    +0.008 A 
ENDBRANCH  18  28
ENDBRANCH   1  18
TORSDOF 8
