REMARK  Name = ZINC08993754
REMARK  9 active torsions:
REMARK  status: ('A' for Active; 'I' for Inactive)
REMARK    1  A    between atoms: C_1  and  C_2
REMARK    2  A    between atoms: C_2  and  C_3
REMARK    3  A    between atoms: C_2  and  C_4
REMARK    4  A    between atoms: C_4  and  C_6
REMARK    5  A    between atoms: C_4  and  N_16
REMARK    6  A    between atoms: C_17  and  C_19
REMARK    7  A    between atoms: C_19  and  N_20
REMARK    8  A    between atoms: C_23  and  C_27
REMARK    9  A    between atoms: C_23  and  C_28
REMARK                            x       y       z     vdW  Elec       q    Type
REMARK                         _______ _______ _______ _____ _____    ______ ____
ROOT
ATOM      1  N   UNL     1       3.603  -1.873  -0.940  0.00  0.00    -0.307 N 
ATOM      2  C   UNL     1       4.710  -2.383  -1.517  0.00  0.00    +0.231 C 
ATOM      3  O   UNL     1       5.793  -1.885  -1.295  0.00  0.00    -0.274 OA
ATOM      4  H   UNL     1       2.737  -2.272  -1.117  0.00  0.00    +0.149 HD
ENDROOT
BRANCH   1   5
ATOM      5  C   UNL     1       3.709  -0.717  -0.047  0.00  0.00    +0.106 C 
BRANCH   5   6
ATOM      6  C   UNL     1       2.397   0.024  -0.026  0.00  0.00    -0.023 A 
ATOM      7  C   UNL     1       1.207  -0.680  -0.016  0.00  0.00    +0.009 A 
ATOM      8  C   UNL     1       0.002  -0.004   0.002  0.00  0.00    +0.050 A 
ATOM      9  C   UNL     1      -0.017   1.383   0.010  0.00  0.00    +0.162 A 
ATOM     10  C   UNL     1       1.179   2.090   0.002  0.00  0.00    +0.162 A 
ATOM     11  C   UNL     1       2.386   1.406  -0.017  0.00  0.00    +0.055 A 
ATOM     12  O   UNL     1       1.184   3.451   0.018  0.00  0.00    -0.485 OA
ATOM     13  C   UNL     1      -0.040   4.103  -0.340  0.00  0.00    +0.270 C 
ATOM     14  C   UNL     1      -1.189   3.413   0.408  0.00  0.00    +0.270 C 
ATOM     15  O   UNL     1      -1.212   2.035   0.019  0.00  0.00    -0.485 OA
ENDBRANCH   5   6
BRANCH   5  17
ATOM     16  C   UNL     1       3.009  -2.223   1.820  0.00  0.00    +0.009 C 
ATOM     17  C   UNL     1       4.047  -1.195   1.367  0.00  0.00    +0.008 C 
ATOM     18  C   UNL     1       5.436  -1.837   1.370  0.00  0.00    +0.009 C 
ENDBRANCH   5  17
ENDBRANCH   1   5
BRANCH   2  19
ATOM     19  C   UNL     1       4.601  -3.572  -2.436  0.00  0.00    +0.213 C 
BRANCH  19  20
ATOM     20  N   UNL     1       5.933  -3.932  -2.929  0.00  0.00    -0.215 N 
ATOM     21  C   UNL     1       6.758  -4.802  -2.315  0.00  0.00    +0.251 C 
ATOM     22  O   UNL     1       6.547  -5.411  -1.288  0.00  0.00    -0.272 OA
ATOM     23  C   UNL     1       8.006  -4.860  -3.174  0.00  0.00    +0.135 C 
ATOM     24  N   UNL     1       7.711  -3.929  -4.276  0.00  0.00    -0.281 N 
ATOM     25  C   UNL     1       6.478  -3.441  -4.048  0.00  0.00    +0.310 C 
ATOM     26  O   UNL     1       5.922  -2.641  -4.776  0.00  0.00    -0.252 OA
ATOM     27  C   UNL     1       8.224  -6.277  -3.710  0.00  0.00    +0.047 C 
ATOM     28  H   UNL     1       8.291  -3.711  -5.023  0.00  0.00    +0.152 HD
BRANCH  23  29
ATOM     29  C   UNL     1       9.209  -4.396  -2.395  0.00  0.00    -0.015 A 
ATOM     30  C   UNL     1       9.256  -4.576  -1.025  0.00  0.00    +0.007 A 
ATOM     31  C   UNL     1      10.362  -4.155  -0.310  0.00  0.00    +0.020 A 
ATOM     32  C   UNL     1      11.416  -3.543  -0.964  0.00  0.00    +0.041 A 
ATOM     33  C   UNL     1      11.365  -3.357  -2.334  0.00  0.00    +0.020 A 
ATOM     34  C   UNL     1      10.262  -3.784  -3.049  0.00  0.00    +0.007 A 
ATOM     35 CL   UNL     1      12.802  -3.008  -0.066  0.00  0.00    -0.084 Cl
ENDBRANCH  23  29
ENDBRANCH  19  20
ENDBRANCH   2  19
TORSDOF 6
