REMARK  Name = ZINC09690063
REMARK  7 active torsions:
REMARK  status: ('A' for Active; 'I' for Inactive)
REMARK    1  A    between atoms: C_1  and  N_2
REMARK    2  A    between atoms: C_3  and  C_25
REMARK    3  A    between atoms: C_6  and  S_7
REMARK    4  A    between atoms: S_7  and  C_8
REMARK    5  A    between atoms: C_8  and  C_9
REMARK    6  A    between atoms: N_14  and  C_15
REMARK    7  A    between atoms: C_25  and  C_26
REMARK                            x       y       z     vdW  Elec       q    Type
REMARK                         _______ _______ _______ _____ _____    ______ ____
ROOT
ATOM      1  C   UNL     1       2.721   5.896   7.257  0.00  0.00    +0.231 C 
ATOM      2  O   UNL     1       3.918   5.747   7.376  0.00  0.00    -0.274 OA
ATOM      3  N   UNL     1       1.995   6.375   8.287  0.00  0.00    -0.239 N 
ATOM      4  C   UNL     1       2.601   6.690   9.449  0.00  0.00    +0.306 C 
ATOM      5  O   UNL     1       3.801   6.542   9.568  0.00  0.00    -0.252 OA
ATOM      6  N   UNL     1       1.876   7.170  10.478  0.00  0.00    -0.294 N 
ATOM      7  H   UNL     1       1.037   6.494   8.191  0.00  0.00    +0.159 HD
ATOM      8  H   UNL     1       0.918   7.289  10.383  0.00  0.00    +0.151 HD
ENDROOT
BRANCH   6   9
ATOM      9  C   UNL     1       2.534   7.513  11.741  0.00  0.00    +0.037 C 
ATOM     10  C   UNL     1       3.214   6.268  12.316  0.00  0.00    +0.029 C 
ATOM     11  C   UNL     1       3.901   6.625  13.635  0.00  0.00    -0.008 C 
ATOM     12  C   UNL     1       2.860   7.143  14.630  0.00  0.00    +0.007 C 
ATOM     13  C   UNL     1       2.181   8.388  14.055  0.00  0.00    -0.008 C 
ATOM     14  C   UNL     1       1.493   8.030  12.736  0.00  0.00    +0.029 C 
ATOM     15  C   UNL     1       3.231   9.472  13.805  0.00  0.00    +0.007 C 
ATOM     16  C   UNL     1       4.272   8.955  12.811  0.00  0.00    -0.008 C 
ATOM     17  C   UNL     1       4.951   7.710  13.386  0.00  0.00    +0.007 C 
ATOM     18  C   UNL     1       3.584   8.597  11.492  0.00  0.00    +0.029 C 
ENDBRANCH   6   9
BRANCH   1  19
ATOM     19  C   UNL     1       2.043   5.543   5.958  0.00  0.00    +0.173 C 
BRANCH  19  20
ATOM     20  S   UNL     1       3.275   4.931   4.782  0.00  0.00    -0.077 S 
BRANCH  20  26
ATOM     21  C   UNL     1       3.994   3.752   1.776  0.00  0.00    +0.152 C 
ATOM     22  N   UNL     1       2.634   4.113   2.184  0.00  0.00    -0.309 N 
ATOM     23  C   UNL     1       1.496   4.027   1.430  0.00  0.00    +0.139 A 
ATOM     24  N   UNL     1       0.509   4.452   2.167  0.00  0.00    -0.133 NA
ATOM     25  N   UNL     1       0.940   4.789   3.330  0.00  0.00    -0.122 NA
ATOM     26  C   UNL     1       2.239   4.605   3.395  0.00  0.00    +0.192 A 
BRANCH  23  27
ATOM     27  C   UNL     1       1.402   3.539   0.007  0.00  0.00    +0.118 C 
BRANCH  27  28
ATOM     28  C   UNL     1       1.160   2.051   0.002  0.00  0.00    -0.003 A 
ATOM     29  C   UNL     1      -0.017   1.378   0.010  0.00  0.00    +0.011 A 
ATOM     30  C   UNL     1       0.002  -0.004   0.002  0.00  0.00    +0.008 A 
ATOM     31  C   UNL     1       1.196  -0.645  -0.013  0.00  0.00    +0.045 A 
ATOM     32  S   UNL     1       2.348   0.719  -0.017  0.00  0.00    -0.101 S 
ENDBRANCH  27  28
ENDBRANCH  23  27
ENDBRANCH  20  26
ENDBRANCH  19  20
ENDBRANCH   1  19
TORSDOF 6
