REMARK  Name = ZINC40795164
REMARK  8 active torsions:
REMARK  status: ('A' for Active; 'I' for Inactive)
REMARK    1  A    between atoms: C_1  and  C_2
REMARK    2  A    between atoms: C_3  and  C_7
REMARK    3  A    between atoms: C_7  and  O_8
REMARK    4  A    between atoms: O_8  and  C_9
REMARK    5  A    between atoms: C_12  and  C_15
REMARK    6  A    between atoms: N_17  and  C_18
REMARK    7  A    between atoms: C_19  and  C_27
REMARK    8  A    between atoms: N_29  and  C_30
REMARK                            x       y       z     vdW  Elec       q    Type
REMARK                         _______ _______ _______ _____ _____    ______ ____
ROOT
ATOM      1  C   UNL     1       2.006   2.530  -7.983  0.00  0.00    +0.249 C 
ATOM      2  O   UNL     1       1.034   2.839  -8.645  0.00  0.00    -0.270 OA
ATOM      3  N   UNL     1       3.245   2.764  -8.457  0.00  0.00    -0.275 N 
ATOM      4  H   UNL     1       4.021   2.518  -7.929  0.00  0.00    +0.156 HD
ENDROOT
BRANCH   3   5
ATOM      5  C   UNL     1       3.412   3.357  -9.698  0.00  0.00    +0.085 A 
ATOM      6  C   UNL     1       4.600   3.665 -10.343  0.00  0.00    +0.069 A 
ATOM      7  C   UNL     1       4.503   4.289 -11.651  0.00  0.00    -0.023 A 
ATOM      8  C   UNL     1       3.236   4.490 -12.075  0.00  0.00    -0.004 A 
ATOM      9  S   UNL     1       2.221   3.858 -10.771  0.00  0.00    -0.077 S 
ATOM     10  C   UNL     1       2.808   5.109 -13.369  0.00  0.00    +0.043 C 
ATOM     11  C   UNL     1       4.019   5.826 -13.984  0.00  0.00    +0.005 C 
ATOM     12  C   UNL     1       5.225   4.883 -13.948  0.00  0.00    +0.005 C 
ATOM     13  C   UNL     1       5.696   4.695 -12.504  0.00  0.00    +0.037 C 
BRANCH   6  14
ATOM     14  C   UNL     1       5.900   3.374  -9.730  0.00  0.00    +0.246 C 
ATOM     15  O   UNL     1       6.440   2.302  -9.929  0.00  0.00    -0.270 OA
ATOM     16  N   UNL     1       6.495   4.294  -8.946  0.00  0.00    -0.314 N 
ATOM     17  C   UNL     1       7.794   4.004  -8.333  0.00  0.00    +0.128 C 
ATOM     18  H   UNL     1       6.064   5.149  -8.787  0.00  0.00    +0.149 HD
ENDBRANCH   6  14
ENDBRANCH   3   5
BRANCH   1  22
ATOM     19  C   UNL     1       1.495   0.715  -4.178  0.00  0.00    +0.121 A 
ATOM     20  C   UNL     1       0.382   1.067  -4.933  0.00  0.00    +0.046 A 
ATOM     21  C   UNL     1       0.544   1.656  -6.167  0.00  0.00    +0.016 A 
ATOM     22  C   UNL     1       1.828   1.900  -6.661  0.00  0.00    +0.037 A 
ATOM     23  C   UNL     1       2.945   1.544  -5.899  0.00  0.00    +0.016 A 
ATOM     24  C   UNL     1       2.775   0.961  -4.663  0.00  0.00    +0.046 A 
BRANCH  19  25
ATOM     25  O   UNL     1       1.332   0.135  -2.962  0.00  0.00    -0.486 OA
BRANCH  25  26
ATOM     26  C   UNL     1      -0.010  -0.089  -2.525  0.00  0.00    +0.287 C 
BRANCH  26  29
ATOM     27  C   UNL     1      -0.018   1.503   0.010  0.00  0.00    +0.068 C 
ATOM     28  C   UNL     1       0.002  -0.004   0.002  0.00  0.00    +0.073 A 
ATOM     29  C   UNL     1       0.006  -0.736  -1.164  0.00  0.00    +0.110 A 
ATOM     30  N   UNL     1       0.025  -2.039  -1.005  0.00  0.00    -0.192 NA
ATOM     31  S   UNL     1       0.036  -2.246   0.597  0.00  0.00    +0.116 S 
ATOM     32  N   UNL     1       0.023  -0.714   1.105  0.00  0.00    -0.196 NA
ENDBRANCH  26  29
ENDBRANCH  25  26
ENDBRANCH  19  25
ENDBRANCH   1  22
TORSDOF 6
