REMARK  Name = ZINC46876953
REMARK  7 active torsions:
REMARK  status: ('A' for Active; 'I' for Inactive)
REMARK    1  A    between atoms: C_1  and  C_2
REMARK    2  A    between atoms: N_10  and  C_27
REMARK    3  A    between atoms: C_11  and  S_13
REMARK    4  A    between atoms: S_13  and  C_14
REMARK    5  A    between atoms: C_14  and  C_15
REMARK    6  A    between atoms: N_17  and  C_18
REMARK    7  A    between atoms: C_23  and  N_24
REMARK                            x       y       z     vdW  Elec       q    Type
REMARK                         _______ _______ _______ _____ _____    ______ ____
ROOT
ATOM      1  S   UNL     1       0.063  -6.555   0.969  0.00  0.00    -0.078 S 
ENDROOT
BRANCH   1  12
ATOM      2  C   UNL     1      -0.162   1.507  -0.029  0.00  0.00    +0.044 C 
ATOM      3  C   UNL     1      -0.122   0.001  -0.033  0.00  0.00    -0.050 A 
ATOM      4  C   UNL     1      -0.114  -0.683  -1.242  0.00  0.00    +0.005 A 
ATOM      5  C   UNL     1      -0.078  -2.049  -1.278  0.00  0.00    +0.029 A 
ATOM      6  C   UNL     1      -0.048  -2.771  -0.081  0.00  0.00    +0.079 A 
ATOM      7  C   UNL     1      -0.056  -2.072   1.147  0.00  0.00    +0.065 A 
ATOM      8  C   UNL     1      -0.088  -0.678   1.154  0.00  0.00    +0.018 A 
ATOM      9  C   UNL     1      -0.024  -2.853   2.391  0.00  0.00    +0.262 A 
ATOM     10  O   UNL     1      -0.030  -2.308   3.480  0.00  0.00    -0.267 OA
ATOM     11  N   UNL     1       0.011  -4.202   2.281  0.00  0.00    -0.290 N 
ATOM     12  C   UNL     1       0.016  -4.796   1.051  0.00  0.00    +0.172 A 
ATOM     13  N   UNL     1      -0.012  -4.119  -0.070  0.00  0.00    -0.223 NA
ATOM     14  C   UNL     1       0.044  -5.029   3.489  0.00  0.00    +0.154 C 
ENDBRANCH   1  12
BRANCH   1  15
ATOM     15  C   UNL     1       0.057  -6.912  -0.809  0.00  0.00    +0.173 C 
BRANCH  15  16
ATOM     16  C   UNL     1       0.096  -8.403  -1.023  0.00  0.00    +0.228 C 
ATOM     17  O   UNL     1       0.125  -9.152  -0.069  0.00  0.00    -0.275 OA
ATOM     18  N   UNL     1       0.099  -8.905  -2.274  0.00  0.00    -0.283 N 
ATOM     19  H   UNL     1       0.010  -8.310  -3.035  0.00  0.00    +0.155 HD
BRANCH  18  20
ATOM     20  C   UNL     1       0.229 -10.284  -2.474  0.00  0.00    +0.064 A 
ATOM     21  C   UNL     1      -0.345 -11.175  -1.577  0.00  0.00    +0.025 A 
ATOM     22  C   UNL     1      -0.215 -12.535  -1.778  0.00  0.00    +0.002 A 
ATOM     23  C   UNL     1       0.487 -13.010  -2.871  0.00  0.00    +0.002 A 
ATOM     24  C   UNL     1       1.060 -12.125  -3.765  0.00  0.00    +0.034 A 
ATOM     25  C   UNL     1       0.928 -10.764  -3.574  0.00  0.00    +0.147 A 
BRANCH  25  26
ATOM     26  N   UNL     1       1.536  -9.818  -4.536  0.00  0.00    +0.058 N 
ATOM     27  O   UNL     1       2.060 -10.233  -5.543  0.00  0.00    -0.126 OA
ATOM     28  O   UNL     1       1.508  -8.629  -4.315  0.00  0.00    -0.126 OA
ENDBRANCH  25  26
ENDBRANCH  18  20
ENDBRANCH  15  16
ENDBRANCH   1  15
TORSDOF 5
