REMARK  Name = ZINC08996013
REMARK  4 active torsions:
REMARK  status: ('A' for Active; 'I' for Inactive)
REMARK    1  A    between atoms: C_1  and  O_2
REMARK    2  A    between atoms: O_2  and  C_3
REMARK    3  A    between atoms: C_6  and  N_33
REMARK    4  A    between atoms: C_8  and  N_9
REMARK                            x       y       z     vdW  Elec       q    Type
REMARK                         _______ _______ _______ _____ _____    ______ ____
ROOT
ATOM      1  N   UNL     1       1.738   1.744  -1.314  0.00  0.00    -0.206 N 
ATOM      2  C   UNL     1       1.362   1.702  -0.002  0.00  0.00    +0.229 C 
ATOM      3  O   UNL     1       2.002   2.080   0.956  0.00  0.00    -0.275 OA
ATOM      4  C   UNL     1      -0.013   1.086   0.008  0.00  0.00    +0.074 C 
ATOM      5  C   UNL     1      -1.090   1.670   0.917  0.00  0.00    -0.054 C 
ATOM      6  C   UNL     1      -0.892   3.200   1.089  0.00  0.00    -0.016 C 
ATOM      7  C   UNL     1      -2.354   3.699   1.251  0.00  0.00    -0.020 C 
ATOM      8  C   UNL     1      -3.143   2.784   0.290  0.00  0.00    -0.076 C 
ATOM      9  C   UNL     1      -1.932   1.476  -1.358  0.00  0.00    +0.053 C 
ATOM     10  C   UNL     1      -0.491   1.751  -1.346  0.00  0.00    +0.089 C 
ATOM     11  C   UNL     1       0.681   1.586  -2.176  0.00  0.00    +0.230 C 
ATOM     12  O   UNL     1       0.722   1.358  -3.366  0.00  0.00    -0.275 OA
ATOM     13  C   UNL     1      -2.306   0.119  -1.897  0.00  0.00    -0.027 A 
ATOM     14  C   UNL     1      -1.923  -1.163  -1.572  0.00  0.00    +0.004 A 
ATOM     15  C   UNL     1      -2.454  -2.239  -2.260  0.00  0.00    +0.000 A 
ATOM     16  C   UNL     1      -3.369  -2.024  -3.275  0.00  0.00    +0.002 A 
ATOM     17  C   UNL     1      -3.755  -0.741  -3.604  0.00  0.00    +0.023 A 
ATOM     18  C   UNL     1      -3.225   0.348  -2.915  0.00  0.00    +0.036 A 
ATOM     19  N   UNL     1      -3.456   1.717  -3.058  0.00  0.00    -0.286 N 
ATOM     20  C   UNL     1      -2.741   2.447  -2.183  0.00  0.00    +0.212 C 
ATOM     21  O   UNL     1      -2.746   3.655  -2.078  0.00  0.00    -0.277 OA
ATOM     22  H   UNL     1      -4.061   2.098  -3.713  0.00  0.00    +0.155 HD
ATOM     23  N   UNL     1      -2.327   1.579   0.085  0.00  0.00    +0.395 N 
ATOM     24  H   UNL     1      -2.867   0.749   0.356  0.00  0.00    -0.079 HD
ENDROOT
BRANCH   1  30
ATOM     25  C   UNL     1       3.550   3.217  -1.962  0.00  0.00    +0.142 A 
ATOM     26  C   UNL     1       4.861   3.395  -2.376  0.00  0.00    +0.050 A 
ATOM     27  C   UNL     1       5.679   2.299  -2.572  0.00  0.00    +0.036 A 
ATOM     28  C   UNL     1       5.195   1.022  -2.353  0.00  0.00    +0.128 A 
ATOM     29  C   UNL     1       3.891   0.836  -1.937  0.00  0.00    +0.060 A 
ATOM     30  C   UNL     1       3.063   1.931  -1.737  0.00  0.00    +0.088 A 
BRANCH  28  31
ATOM     31  N   UNL     1       6.076  -0.148  -2.566  0.00  0.00    +0.056 N 
ATOM     32  O   UNL     1       5.652  -1.273  -2.374  0.00  0.00    -0.126 OA
ATOM     33  O   UNL     1       7.226   0.015  -2.933  0.00  0.00    -0.126 OA
ENDBRANCH  28  31
BRANCH  25  35
ATOM     34  C   UNL     1       3.308   5.581  -2.024  0.00  0.00    +0.277 C 
ATOM     35  O   UNL     1       2.742   4.294  -1.774  0.00  0.00    -0.493 OA
ENDBRANCH  25  35
ENDBRANCH   1  30
TORSDOF 3
