REMARK  Name = ZINC64002481
REMARK  8 active torsions:
REMARK  status: ('A' for Active; 'I' for Inactive)
REMARK    1  A    between atoms: C_1  and  C_2
REMARK    2  A    between atoms: C_7  and  C_8
REMARK    3  A    between atoms: C_23  and  C_25
REMARK    4  A    between atoms: C_28  and  C_30
REMARK    5  A    between atoms: C_31  and  C_32
REMARK    6  A    between atoms: C_32  and  C_33
REMARK    7  A    between atoms: C_32  and  C_34
REMARK    8  A    between atoms: C_32  and  O_35
REMARK                            x       y       z     vdW  Elec       q    Type
REMARK                         _______ _______ _______ _____ _____    ______ ____
ROOT
ATOM      1  C   UNL     1       0.209   0.207   2.438  0.00  0.00    +0.133 C 
ATOM      2  C   UNL     1       1.684   0.619   2.398  0.00  0.00    +0.131 C 
ATOM      3  C   UNL     1       2.045   1.078   3.805  0.00  0.00    -0.035 C 
ATOM      4  C   UNL     1       2.518   2.313   3.687  0.00  0.00    -0.001 A 
ATOM      5  C   UNL     1       3.084   3.244   4.676  0.00  0.00    +0.010 A 
ATOM      6  C   UNL     1       3.467   4.460   4.205  0.00  0.00    +0.001 A 
ATOM      7  C   UNL     1       3.345   4.838   2.864  0.00  0.00    +0.002 A 
ATOM      8  C   UNL     1       2.839   4.045   1.886  0.00  0.00    +0.026 A 
ATOM      9  C   UNL     1       2.406   2.739   2.259  0.00  0.00    +0.043 A 
ATOM     10  N   UNL     1       1.906   1.767   1.517  0.00  0.00    -0.375 N 
ATOM     11  C   UNL     1       1.789   0.228   5.026  0.00  0.00    +0.052 C 
ATOM     12  C   UNL     1       0.318  -0.222   4.951  0.00  0.00    +0.113 C 
ATOM     13  N   UNL     1       0.018  -0.684   3.592  0.00  0.00    -0.285 N 
ATOM     14  C   UNL     1      -0.435  -1.939   3.400  0.00  0.00    +0.283 C 
ATOM     15  O   UNL     1      -0.542  -2.381   2.270  0.00  0.00    -0.267 OA
ATOM     16  H   UNL     1       1.713   1.798   0.567  0.00  0.00    +0.160 HD
ENDROOT
BRANCH   1  23
ATOM     17  C   UNL     1      -2.537   0.140   1.541  0.00  0.00    +0.044 C 
ATOM     18  C   UNL     1      -1.466  -0.551   0.739  0.00  0.00    -0.045 A 
ATOM     19  C   UNL     1      -1.796  -1.213  -0.429  0.00  0.00    +0.004 A 
ATOM     20  C   UNL     1      -0.813  -1.848  -1.166  0.00  0.00    +0.000 A 
ATOM     21  C   UNL     1       0.500  -1.820  -0.734  0.00  0.00    +0.000 A 
ATOM     22  C   UNL     1       0.831  -1.158   0.433  0.00  0.00    +0.006 A 
ATOM     23  C   UNL     1      -0.152  -0.520   1.167  0.00  0.00    -0.022 A 
ENDBRANCH   1  23
BRANCH  14  24
ATOM     24  C   UNL     1      -0.799  -2.771   4.549  0.00  0.00    +0.191 A 
ATOM     25  C   UNL     1      -1.130  -4.108   4.505  0.00  0.00    +0.056 A 
ATOM     26  C   UNL     1      -1.406  -4.501   5.817  0.00  0.00    +0.059 A 
ATOM     27  C   UNL     1      -1.234  -3.390   6.614  0.00  0.00    +0.179 A 
ATOM     28  O   UNL     1      -0.863  -2.360   5.833  0.00  0.00    -0.442 OA
BRANCH  27  29
ATOM     29  C   UNL     1      -1.414  -3.342   8.034  0.00  0.00    -0.026 C 
ATOM     30  C   UNL     1      -1.561  -3.302   9.197  0.00  0.00    -0.060 C 
BRANCH  30  31
ATOM     31  C   UNL     1      -1.746  -3.253  10.657  0.00  0.00    +0.121 C 
ATOM     32  C   UNL     1      -1.458  -1.837  11.160  0.00  0.00    +0.055 C 
ATOM     33  C   UNL     1      -3.188  -3.632  11.002  0.00  0.00    +0.055 C 
BRANCH  31  34
ATOM     34  O   UNL     1      -0.849  -4.172  11.282  0.00  0.00    -0.377 OA
ATOM     35  H   UNL     1       0.085  -3.992  11.107  0.00  0.00    +0.211 HD
ENDBRANCH  31  34
ENDBRANCH  30  31
ENDBRANCH  27  29
ENDBRANCH  14  24
TORSDOF 5
