REMARK  Name = ZINC32093315
REMARK  6 active torsions:
REMARK  status: ('A' for Active; 'I' for Inactive)
REMARK    1  A    between atoms: C_1  and  C_2
REMARK    2  A    between atoms: C_18  and  C_20
REMARK    3  A    between atoms: C_23  and  O_26
REMARK    4  A    between atoms: O_26  and  C_27
REMARK    5  A    between atoms: C_27  and  C_28
REMARK    6  A    between atoms: C_27  and  C_29
REMARK                            x       y       z     vdW  Elec       q    Type
REMARK                         _______ _______ _______ _____ _____    ______ ____
ROOT
ATOM      1  C   UNL     1      -0.696   1.976   0.568  0.00  0.00    +0.068 C 
ATOM      2  C   UNL     1      -0.690   0.477   0.720  0.00  0.00    +0.066 A 
ATOM      3  C   UNL     1      -0.527  -0.443  -0.307  0.00  0.00    +0.023 A 
ATOM      4  C   UNL     1      -0.576  -1.698   0.239  0.00  0.00    +0.134 A 
ATOM      5  N   UNL     1      -0.773  -1.558   1.567  0.00  0.00    -0.198 N 
ATOM      6  N   UNL     1      -0.831  -0.183   1.845  0.00  0.00    -0.168 NA
ATOM      7  C   UNL     1      -0.892  -2.595   2.497  0.00  0.00    +0.178 A 
ATOM      8  C   UNL     1      -0.583  -2.372   3.837  0.00  0.00    +0.053 A 
ATOM      9  C   UNL     1      -0.718  -3.431   4.721  0.00  0.00    +0.045 A 
ATOM     10  C   UNL     1      -1.153  -4.650   4.216  0.00  0.00    +0.152 A 
ATOM     11  N   UNL     1      -1.424  -4.771   2.930  0.00  0.00    -0.136 NA
ATOM     12  N   UNL     1      -1.305  -3.792   2.110  0.00  0.00    -0.128 NA
ATOM     13 CL   UNL     1      -1.340  -6.012   5.275  0.00  0.00    -0.060 Cl
ATOM     14  N   UNL     1      -0.423  -2.846  -0.538  0.00  0.00    -0.270 N 
ATOM     15  C   UNL     1      -0.023  -2.698  -1.818  0.00  0.00    +0.219 C 
ATOM     16  O   UNL     1      -0.065  -3.656  -2.561  0.00  0.00    -0.275 OA
ATOM     17  C   UNL     1       0.474  -1.384  -2.352  0.00  0.00    +0.109 C 
ATOM     18  C   UNL     1      -0.332  -0.212  -1.784  0.00  0.00    +0.063 C 
ATOM     19  H   UNL     1      -0.600  -3.725  -0.168  0.00  0.00    +0.156 HD
ENDROOT
BRANCH  18  20
ATOM     20  C   UNL     1      -1.673  -0.139  -2.468  0.00  0.00    -0.039 A 
ATOM     21  C   UNL     1      -2.538  -1.216  -2.407  0.00  0.00    +0.008 A 
ATOM     22  C   UNL     1      -3.768  -1.152  -3.033  0.00  0.00    +0.046 A 
ATOM     23  C   UNL     1      -4.134  -0.006  -3.724  0.00  0.00    +0.121 A 
ATOM     24  C   UNL     1      -3.265   1.074  -3.783  0.00  0.00    +0.046 A 
ATOM     25  C   UNL     1      -2.038   1.006  -3.150  0.00  0.00    +0.008 A 
BRANCH  23  26
ATOM     26  O   UNL     1      -5.343   0.060  -4.341  0.00  0.00    -0.489 OA
BRANCH  26  27
ATOM     27  C   UNL     1      -6.137  -1.128  -4.340  0.00  0.00    +0.167 C 
ATOM     28  C   UNL     1      -6.937  -1.206  -3.038  0.00  0.00    +0.051 C 
ATOM     29  C   UNL     1      -7.100  -1.099  -5.529  0.00  0.00    +0.051 C 
ENDBRANCH  26  27
ENDBRANCH  23  26
ENDBRANCH  18  20
TORSDOF 3
