REMARK  Name = ZINC38806392
REMARK  12 active torsions:
REMARK  status: ('A' for Active; 'I' for Inactive)
REMARK    1  A    between atoms: C_1  and  C_2
REMARK    2  A    between atoms: C_2  and  O_3
REMARK    3  A    between atoms: O_3  and  C_4
REMARK    4  A    between atoms: C_4  and  C_6
REMARK    5  A    between atoms: C_10  and  N_11
REMARK    6  A    between atoms: C_12  and  C_14
REMARK    7  A    between atoms: N_17  and  C_20
REMARK    8  A    between atoms: C_18  and  C_19
REMARK    9  A    between atoms: C_26  and  C_32
REMARK   10  A    between atoms: C_26  and  C_33
REMARK   11  A    between atoms: C_28  and  C_30
REMARK   12  A    between atoms: C_28  and  C_31
REMARK                            x       y       z     vdW  Elec       q    Type
REMARK                         _______ _______ _______ _____ _____    ______ ____
ROOT
ATOM      1  C   UNL     1       1.343  -3.231  -2.441  0.00  0.00    +0.091 A 
ATOM      2  C   UNL     1       2.740  -3.601  -2.475  0.00  0.00    -0.024 A 
ATOM      3  C   UNL     1       3.207  -3.933  -3.702  0.00  0.00    -0.016 A 
ATOM      4  S   UNL     1       1.806  -3.760  -4.766  0.00  0.00    -0.079 S 
ATOM      5  C   UNL     1       0.655  -3.260  -3.649  0.00  0.00    +0.086 A 
ATOM      6  C   UNL     1       4.603  -4.339  -4.037  0.00  0.00    -0.041 C 
ATOM      7  N   UNL     1       5.420  -4.558  -2.846  0.00  0.00    +0.389 N 
ATOM      8  C   UNL     1       4.709  -4.775  -1.594  0.00  0.00    -0.069 C 
ATOM      9  C   UNL     1       3.703  -3.655  -1.299  0.00  0.00    +0.024 C 
ATOM     10  C   UNL     1       3.983  -6.122  -1.598  0.00  0.00    -0.010 C 
ATOM     11  C   UNL     1       5.738  -4.797  -0.448  0.00  0.00    -0.010 C 
ATOM     12  C   UNL     1       4.571  -5.609  -4.899  0.00  0.00    -0.005 C 
ATOM     13  C   UNL     1       5.244  -3.216  -4.875  0.00  0.00    -0.005 C 
ATOM     14  H   UNL     1       6.030  -5.363  -3.015  0.00  0.00    -0.084 HD
ATOM     15  H   UNL     1       6.047  -3.760  -2.729  0.00  0.00    -0.084 HD
ENDROOT
BRANCH   5  16
ATOM     16  N   UNL     1      -0.674  -2.948  -3.877  0.00  0.00    -0.275 N 
ATOM     17  C   UNL     1      -1.183  -3.032  -5.122  0.00  0.00    +0.252 C 
ATOM     18  O   UNL     1      -0.473  -3.382  -6.046  0.00  0.00    -0.270 OA
ATOM     19  H   UNL     1      -1.240  -2.669  -3.140  0.00  0.00    +0.156 HD
BRANCH  17  20
ATOM     20  C   UNL     1      -2.598  -2.700  -5.365  0.00  0.00    +0.078 A 
ATOM     21  C   UNL     1      -3.537  -2.274  -4.398  0.00  0.00    +0.148 A 
ATOM     22  N   UNL     1      -4.678  -2.080  -5.001  0.00  0.00    -0.174 NA
ATOM     23  N   UNL     1      -4.527  -2.367  -6.362  0.00  0.00    -0.236 N 
ATOM     24  C   UNL     1      -3.252  -2.739  -6.580  0.00  0.00    +0.054 A 
ATOM     25  C   UNL     1      -2.651  -3.131  -7.905  0.00  0.00    +0.066 C 
BRANCH  23  26
ATOM     26  C   UNL     1      -5.532  -2.276  -7.335  0.00  0.00    +0.066 A 
ATOM     27  C   UNL     1      -5.657  -3.266  -8.300  0.00  0.00    +0.028 A 
ATOM     28  C   UNL     1      -6.648  -3.174  -9.258  0.00  0.00    +0.002 A 
ATOM     29  C   UNL     1      -7.516  -2.097  -9.255  0.00  0.00    +0.000 A 
ATOM     30  C   UNL     1      -7.394  -1.110  -8.295  0.00  0.00    +0.002 A 
ATOM     31  C   UNL     1      -6.408  -1.199  -7.332  0.00  0.00    +0.028 A 
ENDBRANCH  23  26
ENDBRANCH  17  20
ENDBRANCH   5  16
BRANCH   1  32
ATOM     32  C   UNL     1       0.673  -2.839  -1.200  0.00  0.00    +0.342 C 
ATOM     33  O   UNL     1       0.131  -3.681  -0.509  0.00  0.00    -0.245 OA
BRANCH  32  34
ATOM     34  O   UNL     1       0.657  -1.544  -0.821  0.00  0.00    -0.461 OA
BRANCH  34  36
ATOM     35  C   UNL     1       0.071   0.271   0.663  0.00  0.00    +0.048 C 
ATOM     36  C   UNL     1      -0.015  -1.234   0.401  0.00  0.00    +0.229 C 
ENDBRANCH  34  36
ENDBRANCH  32  34
ENDBRANCH   1  32
TORSDOF 6
