REMARK  Name = ZINC39769035
REMARK  5 active torsions:
REMARK  status: ('A' for Active; 'I' for Inactive)
REMARK    1  A    between atoms: C_7  and  C_10
REMARK    2  A    between atoms: C_13  and  S_22
REMARK    3  A    between atoms: N_15  and  C_16
REMARK    4  A    between atoms: C_16  and  C_17
REMARK    5  A    between atoms: S_22  and  C_23
REMARK                            x       y       z     vdW  Elec       q    Type
REMARK                         _______ _______ _______ _____ _____    ______ ____
ROOT
ATOM      1  C   UNL     1       0.675  -3.130  -0.022  0.00  0.00    +0.147 C 
ATOM      2  N   UNL     1      -0.627  -3.017  -0.015  0.00  0.00    -0.169 NA
ATOM      3  N   UNL     1      -1.246  -4.273  -0.014  0.00  0.00    -0.237 N 
ATOM      4  C   UNL     1      -0.165  -5.272  -0.022  0.00  0.00    +0.238 C 
ATOM      5  N   UNL     1       1.069  -4.471  -0.033  0.00  0.00    -0.278 N 
ATOM      6  H   UNL     1      -2.200  -4.449  -0.010  0.00  0.00    +0.171 HD
ENDROOT
BRANCH   1  13
ATOM      7  C   UNL     1      -0.016   1.354   0.009  0.00  0.00    +0.001 A 
ATOM      8  C   UNL     1       1.163   2.101   0.002  0.00  0.00    +0.002 A 
ATOM      9  C   UNL     1       2.384   1.511  -0.013  0.00  0.00    +0.026 A 
ATOM     10  C   UNL     1       2.483   0.096  -0.021  0.00  0.00    +0.043 A 
ATOM     11  N   UNL     1       3.531  -0.705  -0.035  0.00  0.00    -0.380 N 
ATOM     12  C   UNL     1       3.075  -2.099  -0.039  0.00  0.00    +0.152 C 
ATOM     13  C   UNL     1       1.563  -2.044  -0.024  0.00  0.00    +0.022 C 
ATOM     14  C   UNL     1       1.237  -0.687  -0.013  0.00  0.00    +0.006 A 
ATOM     15  C   UNL     1       0.002  -0.004   0.002  0.00  0.00    +0.010 A 
ATOM     16  H   UNL     1       4.457  -0.418  -0.043  0.00  0.00    +0.160 HD
ENDBRANCH   1  13
BRANCH   5  17
ATOM     17  C   UNL     1       2.443  -4.979  -0.049  0.00  0.00    +0.183 C 
BRANCH  17  18
ATOM     18  C   UNL     1       2.928  -5.161   1.366  0.00  0.00    +0.122 A 
ATOM     19  C   UNL     1       2.807  -6.282   2.101  0.00  0.00    +0.046 A 
ATOM     20  C   UNL     1       3.395  -6.012   3.358  0.00  0.00    +0.041 A 
ATOM     21  C   UNL     1       3.840  -4.743   3.317  0.00  0.00    +0.195 A 
ATOM     22  O   UNL     1       3.559  -4.235   2.106  0.00  0.00    -0.466 OA
ENDBRANCH  17  18
ENDBRANCH   5  17
BRANCH   4  23
ATOM     23  S   UNL     1      -0.248  -6.308   1.465  0.00  0.00    -0.103 S 
BRANCH  23  24
ATOM     24  C   UNL     1      -0.107  -5.124   2.832  0.00  0.00    +0.161 C 
ATOM     25  C   UNL     1      -0.084  -5.866   4.193  0.00  0.00    +0.066 C 
ATOM     26  C   UNL     1      -1.009  -4.949   5.038  0.00  0.00    +0.234 C 
ATOM     27  O   UNL     1      -1.984  -4.505   4.071  0.00  0.00    -0.464 OA
ATOM     28  C   UNL     1      -1.344  -4.250   2.909  0.00  0.00    +0.320 C 
ATOM     29  O   UNL     1      -1.696  -3.457   2.069  0.00  0.00    -0.250 OA
ENDBRANCH  23  24
ENDBRANCH   4  23
TORSDOF 5
