REMARK  Name = ZINC05292187
REMARK  4 active torsions:
REMARK  status: ('A' for Active; 'I' for Inactive)
REMARK    1  A    between atoms: C_1  and  C_2
REMARK    2  A    between atoms: C_2  and  C_4
REMARK    3  A    between atoms: C_2  and  N_16
REMARK    4  A    between atoms: N_6  and  C_7
REMARK                            x       y       z     vdW  Elec       q    Type
REMARK                         _______ _______ _______ _____ _____    ______ ____
ROOT
ATOM      1  C   UNL     1      -0.009   1.521   0.022  0.00  0.00    +0.038 C 
ATOM      2  C   UNL     1       0.004  -0.009   0.005  0.00  0.00    +0.167 C 
ENDROOT
BRANCH   2   3
ATOM      3  N   UNL     1       0.689  -0.478  -1.202  0.00  0.00    -0.230 N 
ATOM      4  C   UNL     1       0.273  -0.176  -2.447  0.00  0.00    +0.227 C 
ATOM      5  O   UNL     1      -0.558   0.654  -2.746  0.00  0.00    -0.275 OA
ATOM      6  C   UNL     1       1.050  -1.081  -3.418  0.00  0.00    +0.091 C 
ATOM      7  C   UNL     1       0.208  -2.355  -3.524  0.00  0.00    +0.040 C 
ATOM      8  C   UNL     1       1.025  -3.591  -3.680  0.00  0.00    -0.030 C 
ATOM      9  C   UNL     1       2.284  -3.683  -3.409  0.00  0.00    -0.030 C 
ATOM     10  C   UNL     1       3.111  -2.526  -2.942  0.00  0.00    +0.040 C 
ATOM     11  C   UNL     1       2.316  -1.307  -2.576  0.00  0.00    +0.091 C 
ATOM     12  C   UNL     1       1.799  -1.249  -1.168  0.00  0.00    +0.227 C 
ATOM     13  O   UNL     1       2.280  -1.788  -0.195  0.00  0.00    -0.275 OA
ENDBRANCH   2   3
BRANCH   2  14
ATOM     14  C   UNL     1      -1.412  -0.524   0.012  0.00  0.00    +0.238 C 
ATOM     15  O   UNL     1      -1.810  -1.215  -0.902  0.00  0.00    -0.273 OA
ATOM     16  N   UNL     1      -2.236  -0.217   1.033  0.00  0.00    -0.284 N 
ATOM     17  H   UNL     1      -1.899   0.279   1.796  0.00  0.00    +0.155 HD
BRANCH  16  18
ATOM     18  C   UNL     1      -3.579  -0.613   0.993  0.00  0.00    +0.037 A 
ATOM     19  C   UNL     1      -4.562   0.207   1.533  0.00  0.00    +0.027 A 
ATOM     20  C   UNL     1      -5.887  -0.183   1.493  0.00  0.00    +0.051 A 
ATOM     21  C   UNL     1      -6.239  -1.392   0.916  0.00  0.00    +0.166 A 
ATOM     22  C   UNL     1      -5.256  -2.216   0.374  0.00  0.00    +0.168 A 
ATOM     23  C   UNL     1      -3.929  -1.823   0.409  0.00  0.00    +0.072 A 
ATOM     24  O   UNL     1      -5.854  -3.337  -0.127  0.00  0.00    -0.453 OA
ATOM     25  C   UNL     1      -7.160  -3.378   0.477  0.00  0.00    +0.466 C 
ATOM     26  O   UNL     1      -7.454  -1.996   0.754  0.00  0.00    -0.453 OA
ENDBRANCH  16  18
ENDBRANCH   2  14
TORSDOF 3
