REMARK  Name = ZINC09187228
REMARK  10 active torsions:
REMARK  status: ('A' for Active; 'I' for Inactive)
REMARK    1  A    between atoms: C_1  and  C_2
REMARK    2  A    between atoms: C_2  and  O_3
REMARK    3  A    between atoms: O_3  and  C_4
REMARK    4  A    between atoms: C_7  and  C_12
REMARK    5  A    between atoms: C_9  and  O_10
REMARK    6  A    between atoms: O_10  and  C_11
REMARK    7  A    between atoms: C_18  and  C_33
REMARK    8  A    between atoms: C_23  and  C_25
REMARK    9  A    between atoms: C_28  and  O_31
REMARK   10  A    between atoms: O_31  and  C_32
REMARK                            x       y       z     vdW  Elec       q    Type
REMARK                         _______ _______ _______ _____ _____    ______ ____
ROOT
ATOM      1  C   UNL     1       1.148  -5.886  -2.084  0.00  0.00    +0.159 C 
ATOM      2  C   UNL     1       2.305  -6.410  -1.262  0.00  0.00    +0.027 C 
ATOM      3  C   UNL     1       2.038  -7.304  -0.288  0.00  0.00    +0.083 C 
ATOM      4  C   UNL     1       3.185  -7.817   0.504  0.00  0.00    +0.043 A 
ATOM      5  C   UNL     1       2.996  -8.475   1.711  0.00  0.00    +0.017 A 
ATOM      6  C   UNL     1       4.091  -8.934   2.417  0.00  0.00    -0.050 A 
ATOM      7  C   UNL     1       5.370  -8.739   1.924  0.00  0.00    +0.007 A 
ATOM      8  C   UNL     1       5.566  -8.085   0.721  0.00  0.00    +0.046 A 
ATOM      9  C   UNL     1       4.478  -7.621   0.003  0.00  0.00    +0.131 A 
ATOM     10  O   UNL     1       4.642  -6.981  -1.183  0.00  0.00    -0.479 OA
ATOM     11  C   UNL     1       3.711  -5.948  -1.512  0.00  0.00    +0.234 C 
ATOM     12  C   UNL     1       3.894  -9.650   3.728  0.00  0.00    +0.044 C 
ATOM     13  N   UNL     1       0.773  -7.722  -0.036  0.00  0.00    -0.213 NA
ATOM     14  C   UNL     1      -0.285  -7.318  -0.699  0.00  0.00    +0.237 C 
ATOM     15  N   UNL     1      -0.177  -6.408  -1.727  0.00  0.00    -0.208 N 
ATOM     16  N   UNL     1      -1.470  -6.198  -2.210  0.00  0.00    -0.251 N 
ATOM     17  C   UNL     1      -2.295  -6.978  -1.457  0.00  0.00    +0.203 C 
ATOM     18  N   UNL     1      -1.595  -7.629  -0.583  0.00  0.00    -0.205 NA
ATOM     19  H   UNL     1      -1.730  -5.612  -2.938  0.00  0.00    +0.171 HD
ENDROOT
BRANCH   1  23
ATOM     20  C   UNL     1       1.053  -1.629  -1.688  0.00  0.00    +0.162 A 
ATOM     21  C   UNL     1       0.565  -2.434  -0.670  0.00  0.00    +0.050 A 
ATOM     22  C   UNL     1       0.597  -3.809  -0.801  0.00  0.00    +0.009 A 
ATOM     23  C   UNL     1       1.115  -4.386  -1.946  0.00  0.00    -0.017 A 
ATOM     24  C   UNL     1       1.603  -3.589  -2.965  0.00  0.00    +0.055 A 
ATOM     25  C   UNL     1       1.569  -2.209  -2.843  0.00  0.00    +0.162 A 
BRANCH  25  26
ATOM     26  O   UNL     1       2.043  -1.424  -3.846  0.00  0.00    -0.491 OA
ATOM     27  C   UNL     1       2.558  -2.089  -5.002  0.00  0.00    +0.277 C 
ENDBRANCH  25  26
BRANCH  20  28
ATOM     28  O   UNL     1       1.022  -0.276  -1.561  0.00  0.00    -0.489 OA
BRANCH  28  30
ATOM     29  C   UNL     1       0.526   1.778  -0.388  0.00  0.00    +0.048 C 
ATOM     30  C   UNL     1       0.478   0.250  -0.348  0.00  0.00    +0.226 C 
ENDBRANCH  28  30
ENDBRANCH  20  28
ENDBRANCH   1  23
BRANCH  11  31
ATOM     31  C   UNL     1       3.994  -4.734  -0.664  0.00  0.00    -0.003 A 
ATOM     32  C   UNL     1       4.149  -4.868   0.703  0.00  0.00    +0.011 A 
ATOM     33  C   UNL     1       4.408  -3.757   1.482  0.00  0.00    +0.046 A 
ATOM     34  C   UNL     1       4.513  -2.506   0.891  0.00  0.00    +0.120 A 
ATOM     35  C   UNL     1       4.358  -2.375  -0.481  0.00  0.00    +0.046 A 
ATOM     36  C   UNL     1       4.104  -3.490  -1.257  0.00  0.00    +0.011 A 
BRANCH  34  37
ATOM     37  O   UNL     1       4.768  -1.412   1.655  0.00  0.00    -0.495 OA
ATOM     38  C   UNL     1       4.863  -0.156   0.979  0.00  0.00    +0.277 C 
ENDBRANCH  34  37
ENDBRANCH  11  31
TORSDOF 6
