REMARK  Name = ZINC01421787
REMARK  7 active torsions:
REMARK  status: ('A' for Active; 'I' for Inactive)
REMARK    1  A    between atoms: C_1  and  O_2
REMARK    2  A    between atoms: O_2  and  C_3
REMARK    3  A    between atoms: C_3  and  C_5
REMARK    4  A    between atoms: C_6  and  N_24
REMARK    5  A    between atoms: C_12  and  C_22
REMARK    6  A    between atoms: C_15  and  C_17
REMARK    7  A    between atoms: C_22  and  O_23
REMARK                            x       y       z     vdW  Elec       q    Type
REMARK                         _______ _______ _______ _____ _____    ______ ____
ROOT
ATOM      1  C   UNL     1       3.658   3.152   0.338  0.00  0.00    +0.109 C 
ATOM      2  C   UNL     1       3.333   1.859   0.603  0.00  0.00    +0.196 C 
ATOM      3  O   UNL     1       2.125   1.365   0.287  0.00  0.00    -0.435 OA
ATOM      4  C   UNL     1       1.085   2.208   0.071  0.00  0.00    +0.215 A 
ATOM      5  C   UNL     1      -0.245   1.708   0.154  0.00  0.00    +0.228 A 
ATOM      6  O   UNL     1      -0.458   0.534   0.417  0.00  0.00    -0.284 OA
ATOM      7  C   UNL     1      -1.316   2.605  -0.082  0.00  0.00    +0.098 A 
ATOM      8  C   UNL     1      -1.034   3.893  -0.363  0.00  0.00    +0.134 A 
ATOM      9  O   UNL     1       0.229   4.324  -0.431  0.00  0.00    -0.457 OA
ATOM     10  C   UNL     1       1.279   3.510  -0.222  0.00  0.00    +0.164 A 
ATOM     11  C   UNL     1       2.672   4.076  -0.319  0.00  0.00    +0.137 C 
ENDROOT
BRANCH  11  12
ATOM     12  C   UNL     1       3.042   4.244  -1.771  0.00  0.00    +0.005 A 
ATOM     13  C   UNL     1       3.379   5.372  -2.441  0.00  0.00    +0.012 A 
ATOM     14  C   UNL     1       3.685   5.287  -3.786  0.00  0.00    +0.008 A 
ATOM     15  C   UNL     1       3.638   4.077  -4.396  0.00  0.00    +0.045 A 
ATOM     16  S   UNL     1       3.157   3.006  -3.052  0.00  0.00    -0.101 S 
ENDBRANCH  11  12
BRANCH   2  17
ATOM     17  N   UNL     1       4.256   1.044   1.202  0.00  0.00    -0.329 N 
ATOM     18  H   UNL     1       4.806   1.384   1.926  0.00  0.00    +0.145 HD
ATOM     19  H   UNL     1       4.360   0.127   0.904  0.00  0.00    +0.145 HD
ENDBRANCH   2  17
BRANCH   1  20
ATOM     20  C   UNL     1       4.930   3.630   0.683  0.00  0.00    +0.341 C 
ATOM     21  O   UNL     1       5.775   2.862   1.108  0.00  0.00    -0.245 OA
BRANCH  20  23
ATOM     22  C   UNL     1       6.534   5.360   0.917  0.00  0.00    +0.280 C 
ATOM     23  O   UNL     1       5.218   4.942   0.546  0.00  0.00    -0.465 OA
ENDBRANCH  20  23
ENDBRANCH   1  20
BRANCH   8  24
ATOM     24  C   UNL     1      -2.162   4.862  -0.611  0.00  0.00    +0.230 C 
BRANCH  24  25
ATOM     25  O   UNL     1      -2.549   5.468   0.625  0.00  0.00    -0.387 OA
ATOM     26  H   UNL     1      -3.272   6.104   0.540  0.00  0.00    +0.210 HD
ENDBRANCH  24  25
ENDBRANCH   8  24
TORSDOF 6
