REMARK  Name = ZINC35968433
REMARK  7 active torsions:
REMARK  status: ('A' for Active; 'I' for Inactive)
REMARK    1  A    between atoms: C_1  and  N_2
REMARK    2  A    between atoms: C_5  and  C_10
REMARK    3  A    between atoms: C_14  and  O_16
REMARK    4  A    between atoms: O_16  and  C_17
REMARK    5  A    between atoms: N_25  and  C_27
REMARK    6  A    between atoms: C_27  and  C_29
REMARK    7  A    between atoms: C_27  and  C_35
REMARK                            x       y       z     vdW  Elec       q    Type
REMARK                         _______ _______ _______ _____ _____    ______ ____
ROOT
ATOM      1  C   UNL     1      -2.678   2.687   1.242  0.00  0.00    +0.139 C 
ATOM      2  N   UNL     1      -2.269   1.353   0.798  0.00  0.00    -0.260 N 
ATOM      3  C   UNL     1      -3.242   0.425   0.558  0.00  0.00    +0.042 C 
ATOM      4  C   UNL     1      -2.933  -0.821   0.146  0.00  0.00    +0.058 C 
ATOM      5  C   UNL     1      -1.468  -1.159  -0.041  0.00  0.00    +0.142 C 
ATOM      6  N   UNL     1      -0.496  -0.090   0.244  0.00  0.00    -0.288 N 
ATOM      7  C   UNL     1      -0.960   1.110   0.644  0.00  0.00    +0.307 C 
ATOM      8  O   UNL     1      -0.166   2.000   0.878  0.00  0.00    -0.252 OA
ATOM      9  C   UNL     1      -4.106  -1.584  -0.030  0.00  0.00    +0.247 C 
ATOM     10  O   UNL     1      -4.123  -2.745  -0.397  0.00  0.00    -0.270 OA
ATOM     11  N   UNL     1      -5.204  -0.861   0.259  0.00  0.00    -0.277 N 
ATOM     12  C   UNL     1      -4.750   0.479   0.658  0.00  0.00    +0.160 C 
ATOM     13  H   UNL     1       0.456  -0.245   0.142  0.00  0.00    +0.151 HD
ENDROOT
BRANCH   5  14
ATOM     14  C   UNL     1      -1.144  -2.331   0.849  0.00  0.00    -0.019 A 
ATOM     15  C   UNL     1      -0.915  -2.131   2.198  0.00  0.00    +0.006 A 
ATOM     16  C   UNL     1      -0.618  -3.204   3.018  0.00  0.00    +0.004 A 
ATOM     17  C   UNL     1      -0.548  -4.479   2.491  0.00  0.00    +0.046 A 
ATOM     18  C   UNL     1      -0.777  -4.682   1.138  0.00  0.00    +0.129 A 
ATOM     19  C   UNL     1      -1.081  -3.604   0.318  0.00  0.00    +0.052 A 
BRANCH  18  20
ATOM     20  O   UNL     1      -0.708  -5.935   0.617  0.00  0.00    -0.456 OA
BRANCH  20  21
ATOM     21  C   UNL     1       0.405  -6.275  -0.085  0.00  0.00    +0.128 A 
ATOM     22  C   UNL     1       1.468  -5.387  -0.174  0.00  0.00    +0.046 A 
ATOM     23  C   UNL     1       2.598  -5.735  -0.888  0.00  0.00    +0.004 A 
ATOM     24  C   UNL     1       2.671  -6.966  -1.513  0.00  0.00    +0.000 A 
ATOM     25  C   UNL     1       1.613  -7.852  -1.426  0.00  0.00    +0.004 A 
ATOM     26  C   UNL     1       0.483  -7.512  -0.708  0.00  0.00    +0.046 A 
ENDBRANCH  20  21
ENDBRANCH  18  20
ENDBRANCH   5  14
BRANCH  11  27
ATOM     27  C   UNL     1      -6.592  -1.324   0.189  0.00  0.00    +0.193 C 
BRANCH  27  28
ATOM     28  C   UNL     1      -6.953  -1.614  -1.245  0.00  0.00    +0.241 C 
ATOM     29  O   UNL     1      -6.079  -1.744  -2.076  0.00  0.00    -0.273 OA
ATOM     30  N   UNL     1      -8.247  -1.729  -1.605  0.00  0.00    -0.300 N 
ATOM     31  C   UNL     1      -9.404  -1.485  -0.731  0.00  0.00    +0.108 C 
ATOM     32  C   UNL     1     -10.673  -1.764  -1.563  0.00  0.00    +0.020 C 
ATOM     33  C   UNL     1     -10.153  -2.695  -2.689  0.00  0.00    +0.020 C 
ATOM     34  C   UNL     1      -8.737  -2.114  -2.941  0.00  0.00    +0.108 C 
ENDBRANCH  27  28
BRANCH  27  35
ATOM     35  C   UNL     1      -6.745  -2.579   1.009  0.00  0.00    -0.018 A 
ATOM     36  C   UNL     1      -6.567  -3.816   0.419  0.00  0.00    +0.006 A 
ATOM     37  C   UNL     1      -6.708  -4.967   1.172  0.00  0.00    +0.000 A 
ATOM     38  C   UNL     1      -7.027  -4.881   2.514  0.00  0.00    +0.000 A 
ATOM     39  C   UNL     1      -7.204  -3.643   3.104  0.00  0.00    +0.000 A 
ATOM     40  C   UNL     1      -7.059  -2.492   2.353  0.00  0.00    +0.006 A 
ENDBRANCH  27  35
ENDBRANCH  11  27
TORSDOF 6
