REMARK  Name = ZINC22525054
REMARK  5 active torsions:
REMARK  status: ('A' for Active; 'I' for Inactive)
REMARK    1  A    between atoms: C_4  and  N_7
REMARK    2  A    between atoms: C_9  and  C_12
REMARK    3  A    between atoms: C_13  and  C_21
REMARK    4  A    between atoms: C_16  and  C_17
REMARK    5  A    between atoms: C_26  and  O_27
REMARK                            x       y       z     vdW  Elec       q    Type
REMARK                         _______ _______ _______ _____ _____    ______ ____
ROOT
ATOM      1  C   UNL     1       5.724  -3.613  -0.054  0.00  0.00    +0.064 A 
ATOM      2  C   UNL     1       6.624  -4.100   0.876  0.00  0.00    +0.179 A 
ATOM      3  O   UNL     1       7.015  -5.319   0.457  0.00  0.00    -0.353 OA
ATOM      4  N   UNL     1       6.348  -5.602  -0.758  0.00  0.00    -0.073 NA
ATOM      5  C   UNL     1       5.579  -4.595  -1.058  0.00  0.00    +0.194 A 
ENDROOT
BRANCH   2   6
ATOM      6  C   UNL     1       7.074  -3.412   2.100  0.00  0.00    +0.066 A 
ATOM      7  C   UNL     1       6.141  -2.818   2.954  0.00  0.00    +0.019 A 
ATOM      8  C   UNL     1       6.563  -2.176   4.097  0.00  0.00    +0.050 A 
ATOM      9  C   UNL     1       7.916  -2.114   4.408  0.00  0.00    +0.170 A 
ATOM     10  C   UNL     1       8.854  -2.701   3.564  0.00  0.00    +0.208 A 
ATOM     11  C   UNL     1       8.438  -3.355   2.414  0.00  0.00    +0.173 A 
ATOM     12  O   UNL     1      10.100  -2.501   4.089  0.00  0.00    -0.449 OA
ATOM     13  C   UNL     1       9.946  -1.436   5.046  0.00  0.00    +0.467 C 
ATOM     14  O   UNL     1       8.572  -1.546   5.462  0.00  0.00    -0.452 OA
BRANCH  11  15
ATOM     15  O   UNL     1       9.351  -3.935   1.591  0.00  0.00    -0.503 OA
ATOM     16  H   UNL     1       9.689  -3.347   0.902  0.00  0.00    +0.292 HD
ENDBRANCH  11  15
ENDBRANCH   2   6
BRANCH   1  19
ATOM     17  N   UNL     1       3.477  -0.762   0.176  0.00  0.00    -0.239 N 
ATOM     18  C   UNL     1       3.697  -2.102   0.199  0.00  0.00    +0.123 A 
ATOM     19  C   UNL     1       5.032  -2.301  -0.002  0.00  0.00    +0.026 A 
ATOM     20  C   UNL     1       5.634  -1.036  -0.150  0.00  0.00    +0.143 A 
ATOM     21  N   UNL     1       4.703  -0.124  -0.049  0.00  0.00    -0.174 NA
BRANCH  17  25
ATOM     22  C   UNL     1      -0.208   1.123   0.671  0.00  0.00    +0.000 A 
ATOM     23  C   UNL     1       0.930   1.879   0.455  0.00  0.00    +0.002 A 
ATOM     24  C   UNL     1       2.153   1.257   0.291  0.00  0.00    +0.028 A 
ATOM     25  C   UNL     1       2.238  -0.128   0.343  0.00  0.00    +0.065 A 
ATOM     26  C   UNL     1       1.094  -0.884   0.560  0.00  0.00    +0.028 A 
ATOM     27  C   UNL     1      -0.126  -0.256   0.723  0.00  0.00    +0.002 A 
ENDBRANCH  17  25
ENDBRANCH   1  19
BRANCH   5  28
ATOM     28  C   UNL     1       4.691  -4.492  -2.271  0.00  0.00    +0.438 C 
ATOM     29  F   UNL     1       5.406  -3.912  -3.324  0.00  0.00    -0.164 F 
ATOM     30  F   UNL     1       4.263  -5.770  -2.645  0.00  0.00    -0.164 F 
ATOM     31  F   UNL     1       3.579  -3.698  -1.969  0.00  0.00    -0.164 F 
ENDBRANCH   5  28
TORSDOF 5
