REMARK  Name = ZINC13005805
REMARK  6 active torsions:
REMARK  status: ('A' for Active; 'I' for Inactive)
REMARK    1  A    between atoms: C_1  and  C_2
REMARK    2  A    between atoms: C_2  and  C_4
REMARK    3  A    between atoms: C_2  and  S_14
REMARK    4  A    between atoms: N_10  and  C_11
REMARK    5  A    between atoms: N_10  and  C_12
REMARK    6  A    between atoms: S_14  and  C_15
REMARK                            x       y       z     vdW  Elec       q    Type
REMARK                         _______ _______ _______ _____ _____    ______ ____
ROOT
ATOM      1  C   UNL     1      -0.729   1.579   1.267  0.00  0.00    +0.027 C 
ATOM      2  C   UNL     1      -0.013   1.086   0.008  0.00  0.00    +0.118 C 
ENDROOT
BRANCH   2   3
ATOM      3  C   UNL     1      -0.742   1.585  -1.213  0.00  0.00    +0.149 A 
ATOM      4  N   UNL     1      -0.636   2.853  -1.571  0.00  0.00    -0.198 NA
ATOM      5  C   UNL     1      -1.275   3.296  -2.651  0.00  0.00    +0.217 A 
ATOM      6  N   UNL     1      -2.027   2.465  -3.364  0.00  0.00    -0.181 NA
ATOM      7  C   UNL     1      -2.135   1.193  -2.998  0.00  0.00    +0.222 A 
ATOM      8  N   UNL     1      -1.489   0.755  -1.919  0.00  0.00    -0.198 NA
ATOM      9  N   UNL     1      -2.914   0.325  -3.736  0.00  0.00    -0.306 N 
ATOM     10  C   UNL     1      -3.032  -1.078  -3.332  0.00  0.00    +0.132 C 
ATOM     11  C   UNL     1      -3.624   0.808  -4.923  0.00  0.00    +0.132 C 
ATOM     12  N   UNL     1      -1.160   4.619  -3.027  0.00  0.00    -0.327 N 
ATOM     13  H   UNL     1      -1.628   4.943  -3.813  0.00  0.00    +0.145 HD
ATOM     14  H   UNL     1      -0.610   5.226  -2.506  0.00  0.00    +0.145 HD
ENDBRANCH   2   3
BRANCH   2  15
ATOM     15  S   UNL     1       1.685   1.712  -0.005  0.00  0.00    -0.093 S 
BRANCH  15  16
ATOM     16  C   UNL     1       2.330   0.877   1.406  0.00  0.00    +0.128 A 
ATOM     17  C   UNL     1       3.677   1.060   1.799  0.00  0.00    +0.017 A 
ATOM     18  C   UNL     1       4.556   1.905   1.115  0.00  0.00    +0.011 A 
ATOM     19  C   UNL     1       5.840   2.037   1.558  0.00  0.00    +0.001 A 
ATOM     20  C   UNL     1       6.285   1.346   2.683  0.00  0.00    +0.001 A 
ATOM     21  C   UNL     1       5.453   0.517   3.375  0.00  0.00    +0.010 A 
ATOM     22  C   UNL     1       4.128   0.360   2.947  0.00  0.00    +0.005 A 
ATOM     23  C   UNL     1       3.209  -0.476   3.609  0.00  0.00    +0.143 A 
ATOM     24  N   UNL     1       1.984  -0.570   3.147  0.00  0.00    -0.156 NA
ATOM     25  N   UNL     1       1.567   0.062   2.114  0.00  0.00    -0.142 NA
ENDBRANCH  15  16
ENDBRANCH   2  15
TORSDOF 3
