REMARK  Name = ZINC64921246
REMARK  7 active torsions:
REMARK  status: ('A' for Active; 'I' for Inactive)
REMARK    1  A    between atoms: C_1  and  C_2
REMARK    2  A    between atoms: C_2  and  O_3
REMARK    3  A    between atoms: O_3  and  C_4
REMARK    4  A    between atoms: C_9  and  N_10
REMARK    5  A    between atoms: C_11  and  C_13
REMARK    6  A    between atoms: N_18  and  S_19
REMARK    7  A    between atoms: S_19  and  C_22
REMARK                            x       y       z     vdW  Elec       q    Type
REMARK                         _______ _______ _______ _____ _____    ______ ____
ROOT
ATOM      1  C   UNL     1       3.243  -1.107  -5.372  0.00  0.00    +0.166 C 
ATOM      2  C   UNL     1       4.244  -0.197  -4.630  0.00  0.00    +0.031 C 
ATOM      3  C   UNL     1       5.614  -0.850  -4.954  0.00  0.00    +0.019 C 
ATOM      4  C   UNL     1       5.388  -1.342  -6.406  0.00  0.00    +0.110 C 
ATOM      5  N   UNL     1       3.983  -1.798  -6.438  0.00  0.00    -0.165 NA
ENDROOT
BRANCH   1   7
ATOM      6  N   UNL     1       1.945  -1.701  -3.352  0.00  0.00    -0.281 N 
ATOM      7  C   UNL     1       2.661  -2.116  -4.415  0.00  0.00    +0.236 C 
ATOM      8  O   UNL     1       2.838  -3.301  -4.602  0.00  0.00    -0.274 OA
ATOM      9  H   UNL     1       1.734  -0.760  -3.246  0.00  0.00    +0.155 HD
BRANCH   6  15
ATOM     10  C   UNL     1       0.404  -2.336  -1.595  0.00  0.00    +0.142 A 
ATOM     11  C   UNL     1      -0.031  -3.259  -0.659  0.00  0.00    +0.047 A 
ATOM     12  C   UNL     1       0.629  -4.466  -0.519  0.00  0.00    +0.004 A 
ATOM     13  C   UNL     1       1.723  -4.756  -1.313  0.00  0.00    +0.002 A 
ATOM     14  C   UNL     1       2.163  -3.840  -2.250  0.00  0.00    +0.027 A 
ATOM     15  C   UNL     1       1.503  -2.629  -2.399  0.00  0.00    +0.076 A 
BRANCH  10  16
ATOM     16  O   UNL     1      -0.243  -1.148  -1.733  0.00  0.00    -0.490 OA
BRANCH  16  18
ATOM     17  C   UNL     1      -1.957   0.462  -1.175  0.00  0.00    +0.048 C 
ATOM     18  C   UNL     1      -1.362  -0.916  -0.875  0.00  0.00    +0.226 C 
ENDBRANCH  16  18
ENDBRANCH  10  16
ENDBRANCH   6  15
ENDBRANCH   1   7
BRANCH   5  19
ATOM     19  S   UNL     1       3.347  -2.903  -7.495  0.00  0.00    +0.063 S 
ATOM     20  O   UNL     1       4.386  -3.826  -7.791  0.00  0.00    -0.153 OA
ATOM     21  O   UNL     1       2.097  -3.310  -6.954  0.00  0.00    -0.153 OA
BRANCH  19  22
ATOM     22  C   UNL     1       2.992  -2.047  -8.993  0.00  0.00    +0.127 A 
ATOM     23  C   UNL     1       3.715  -2.332 -10.138  0.00  0.00    +0.077 A 
ATOM     24  C   UNL     1       3.436  -1.660 -11.315  0.00  0.00    +0.144 A 
ATOM     25  C   UNL     1       2.429  -0.697 -11.343  0.00  0.00    +0.077 A 
ATOM     26  C   UNL     1       1.708  -0.415 -10.194  0.00  0.00    +0.049 A 
ATOM     27  C   UNL     1       1.988  -1.095  -9.022  0.00  0.00    +0.069 A 
ATOM     28 CL   UNL     1       1.081  -0.750  -7.583  0.00  0.00    -0.081 Cl
ATOM     29  N   UNL     1       2.158  -0.022 -12.542  0.00  0.00    -0.280 N 
ATOM     30  C   UNL     1       2.642  -0.524 -13.699  0.00  0.00    +0.255 C 
ATOM     31  O   UNL     1       2.447   0.058 -14.745  0.00  0.00    -0.272 OA
ATOM     32  C   UNL     1       3.427  -1.812 -13.685  0.00  0.00    +0.325 C 
ATOM     33  O   UNL     1       4.136  -1.929 -12.449  0.00  0.00    -0.481 OA
ATOM     34  H   UNL     1       1.631   0.792 -12.541  0.00  0.00    +0.155 HD
ENDBRANCH  19  22
ENDBRANCH   5  19
TORSDOF 6
