REMARK  Name = ZINC09018747
REMARK  12 active torsions:
REMARK  status: ('A' for Active; 'I' for Inactive)
REMARK    1  A    between atoms: C_1  and  C_2
REMARK    2  A    between atoms: C_2  and  C_3
REMARK    3  A    between atoms: C_2  and  C_4
REMARK    4  A    between atoms: C_2  and  C_5
REMARK    5  A    between atoms: C_13  and  S_16
REMARK    6  A    between atoms: S_16  and  C_17
REMARK    7  A    between atoms: C_17  and  C_18
REMARK    8  A    between atoms: N_20  and  C_21
REMARK    9  A    between atoms: C_24  and  O_29
REMARK   10  A    between atoms: C_26  and  O_27
REMARK   11  A    between atoms: O_27  and  C_28
REMARK   12  A    between atoms: O_29  and  C_30
REMARK                            x       y       z     vdW  Elec       q    Type
REMARK                         _______ _______ _______ _____ _____    ______ ____
ROOT
ATOM      1  S   UNL     1      -4.490  -0.199  -0.654  0.00  0.00    -0.076 S 
ENDROOT
BRANCH   1  10
ATOM      2  C   UNL     1      -7.745   0.477  -0.251  0.00  0.00    +0.039 A 
ATOM      3  C   UNL     1      -9.023   0.859  -0.074  0.00  0.00    +0.092 A 
ATOM      4  C   UNL     1      -9.326   2.221   0.170  0.00  0.00    +0.253 A 
ATOM      5  O   UNL     1     -10.482   2.571   0.331  0.00  0.00    -0.268 OA
ATOM      6  N   UNL     1      -8.332   3.130   0.224  0.00  0.00    -0.291 N 
ATOM      7  H   UNL     1      -8.535   4.064   0.390  0.00  0.00    +0.172 HD
ATOM      8  C   UNL     1      -7.019   2.727   0.040  0.00  0.00    +0.237 A 
ATOM      9  N   UNL     1      -6.733   1.408  -0.201  0.00  0.00    -0.260 N 
ATOM     10  C   UNL     1      -5.375   1.291  -0.337  0.00  0.00    +0.198 A 
ATOM     11  N   UNL     1      -4.850   2.484  -0.196  0.00  0.00    -0.120 NA
ATOM     12  N   UNL     1      -5.889   3.392   0.043  0.00  0.00    -0.109 NA
BRANCH   2  14
ATOM     13  C   UNL     1      -8.720  -1.778  -0.588  0.00  0.00    +0.017 C 
ATOM     14  C   UNL     1      -7.422  -0.972  -0.509  0.00  0.00    +0.003 C 
ATOM     15  C   UNL     1      -6.664  -1.097  -1.832  0.00  0.00    +0.017 C 
ATOM     16  C   UNL     1      -6.554  -1.512   0.629  0.00  0.00    +0.017 C 
ENDBRANCH   2  14
ENDBRANCH   1  10
BRANCH   1  17
ATOM     17  C   UNL     1      -2.756   0.328  -0.728  0.00  0.00    +0.173 C 
BRANCH  17  18
ATOM     18  C   UNL     1      -1.879  -0.868  -0.997  0.00  0.00    +0.228 C 
ATOM     19  O   UNL     1      -2.375  -1.967  -1.127  0.00  0.00    -0.275 OA
ATOM     20  N   UNL     1      -0.543  -0.715  -1.094  0.00  0.00    -0.282 N 
ATOM     21  H   UNL     1      -0.139   0.148  -0.914  0.00  0.00    +0.155 HD
BRANCH  20  22
ATOM     22  C   UNL     1       0.263  -1.806  -1.455  0.00  0.00    +0.076 A 
ATOM     23  C   UNL     1      -0.295  -2.897  -2.104  0.00  0.00    +0.030 A 
ATOM     24  C   UNL     1       0.499  -3.968  -2.465  0.00  0.00    +0.047 A 
ATOM     25  C   UNL     1       1.857  -3.954  -2.180  0.00  0.00    +0.124 A 
ATOM     26  C   UNL     1       2.420  -2.865  -1.532  0.00  0.00    +0.093 A 
ATOM     27  C   UNL     1       1.626  -1.790  -1.168  0.00  0.00    +0.145 A 
BRANCH  27  28
ATOM     28  O   UNL     1       2.176  -0.722  -0.533  0.00  0.00    -0.493 OA
ATOM     29  C   UNL     1       3.580  -0.775  -0.270  0.00  0.00    +0.277 C 
ENDBRANCH  27  28
BRANCH  25  30
ATOM     30  O   UNL     1       2.636  -5.009  -2.538  0.00  0.00    -0.495 OA
ATOM     31  C   UNL     1       1.991  -6.097  -3.203  0.00  0.00    +0.277 C 
ENDBRANCH  25  30
ENDBRANCH  20  22
ENDBRANCH  17  18
ENDBRANCH   1  17
TORSDOF 7
