REMARK  Name = ZINC09353684
REMARK  7 active torsions:
REMARK  status: ('A' for Active; 'I' for Inactive)
REMARK    1  A    between atoms: C_1  and  C_2
REMARK    2  A    between atoms: C_8  and  N_10
REMARK    3  A    between atoms: C_14  and  C_16
REMARK    4  A    between atoms: C_16  and  S_17
REMARK    5  A    between atoms: S_17  and  C_18
REMARK    6  A    between atoms: N_28  and  C_29
REMARK    7  A    between atoms: C_29  and  C_30
REMARK                            x       y       z     vdW  Elec       q    Type
REMARK                         _______ _______ _______ _____ _____    ______ ____
ROOT
ATOM      1  C   UNL     1       6.708   5.514  -2.268  0.00  0.00    +0.173 C 
ENDROOT
BRANCH   1   6
ATOM      2  N   UNL     1       3.507   2.069  -1.270  0.00  0.00    -0.296 N 
ATOM      3  C   UNL     1       3.769   3.297  -1.759  0.00  0.00    +0.306 C 
ATOM      4  O   UNL     1       2.864   3.984  -2.191  0.00  0.00    -0.252 OA
ATOM      5  N   UNL     1       5.033   3.764  -1.768  0.00  0.00    -0.239 N 
ATOM      6  C   UNL     1       5.295   4.992  -2.258  0.00  0.00    +0.231 C 
ATOM      7  O   UNL     1       4.392   5.678  -2.689  0.00  0.00    -0.274 OA
ATOM      8  H   UNL     1       4.229   1.521  -0.924  0.00  0.00    +0.151 HD
ATOM      9  H   UNL     1       5.755   3.216  -1.423  0.00  0.00    +0.159 HD
BRANCH   2  16
ATOM     10  C   UNL     1       2.870  -0.461  -2.526  0.00  0.00    +0.009 C 
ATOM     11  C   UNL     1       2.154   0.032  -1.268  0.00  0.00    +0.006 C 
ATOM     12  C   UNL     1       0.718  -0.497  -1.257  0.00  0.00    +0.005 C 
ATOM     13  C   UNL     1       0.002  -0.004   0.002  0.00  0.00    +0.000 C 
ATOM     14  C   UNL     1      -0.019   1.526   0.010  0.00  0.00    +0.002 C 
ATOM     15  C   UNL     1       1.417   2.055  -0.000  0.00  0.00    +0.022 C 
ATOM     16  C   UNL     1       2.133   1.562  -1.259  0.00  0.00    +0.077 C 
ENDBRANCH   2  16
ENDBRANCH   1   6
BRANCH   1  17
ATOM     17  S   UNL     1       6.732   7.178  -2.981  0.00  0.00    -0.078 S 
BRANCH  17  18
ATOM     18  C   UNL     1       8.455   7.532  -2.873  0.00  0.00    +0.173 A 
ATOM     19  N   UNL     1       9.249   6.623  -2.362  0.00  0.00    -0.223 NA
ATOM     20  C   UNL     1      10.582   6.831  -2.250  0.00  0.00    +0.080 A 
ATOM     21  C   UNL     1      11.430   5.863  -1.704  0.00  0.00    +0.048 A 
ATOM     22  C   UNL     1      12.780   6.119  -1.610  0.00  0.00    +0.043 A 
ATOM     23  C   UNL     1      13.308   7.327  -2.051  0.00  0.00    +0.021 A 
ATOM     24  C   UNL     1      12.499   8.289  -2.588  0.00  0.00    +0.017 A 
ATOM     25  C   UNL     1      11.128   8.056  -2.695  0.00  0.00    +0.065 A 
ATOM     26  C   UNL     1      10.215   9.056  -3.264  0.00  0.00    +0.263 A 
ATOM     27  O   UNL     1      10.625  10.130  -3.664  0.00  0.00    -0.267 OA
ATOM     28  N   UNL     1       8.901   8.739  -3.331  0.00  0.00    -0.283 N 
ATOM     29 CL   UNL     1      13.835   4.918  -0.933  0.00  0.00    -0.083 Cl
BRANCH  28  30
ATOM     30  C   UNL     1       7.949   9.699  -3.895  0.00  0.00    +0.154 C 
BRANCH  30  31
ATOM     31  C   UNL     1       7.427  10.591  -2.798  0.00  0.00    -0.013 C 
ATOM     32  C   UNL     1       7.525  11.892  -2.909  0.00  0.00    +0.005 C 
ENDBRANCH  30  31
ENDBRANCH  28  30
ENDBRANCH  17  18
ENDBRANCH   1  17
TORSDOF 6
