REMARK  Name = ZINC58279197
REMARK  7 active torsions:
REMARK  status: ('A' for Active; 'I' for Inactive)
REMARK    1  A    between atoms: C_1  and  C_2
REMARK    2  A    between atoms: C_5  and  O_25
REMARK    3  A    between atoms: C_6  and  C_8
REMARK    4  A    between atoms: N_10  and  C_11
REMARK    5  A    between atoms: C_15  and  C_17
REMARK    6  A    between atoms: C_17  and  C_24
REMARK    7  A    between atoms: O_25  and  C_26
REMARK                            x       y       z     vdW  Elec       q    Type
REMARK                         _______ _______ _______ _____ _____    ______ ____
ROOT
ATOM      1  C   UNL     1      -0.029  -2.837   4.861  0.00  0.00    +0.034 A 
ATOM      2  C   UNL     1       0.001  -4.225   4.909  0.00  0.00    +0.023 A 
ATOM      3  C   UNL     1      -0.074  -4.874   6.126  0.00  0.00    +0.002 A 
ATOM      4  C   UNL     1      -0.179  -4.144   7.296  0.00  0.00    +0.006 A 
ATOM      5  C   UNL     1      -0.210  -2.762   7.251  0.00  0.00    -0.014 A 
ATOM      6  C   UNL     1      -0.129  -2.106   6.038  0.00  0.00    +0.029 A 
ENDROOT
BRANCH   5   7
ATOM      7  C   UNL     1      -0.325  -1.970   8.528  0.00  0.00    +0.135 C 
ATOM      8  C   UNL     1      -1.645  -1.228   8.578  0.00  0.00    +0.248 C 
ATOM      9  O   UNL     1      -2.036  -0.376   7.809  0.00  0.00    -0.273 OA
ATOM     10  N   UNL     1      -2.295  -1.711   9.655  0.00  0.00    -0.238 N 
ATOM     11  C   UNL     1      -1.577  -2.647  10.286  0.00  0.00    +0.307 C 
ATOM     12  O   UNL     1      -1.953  -3.229  11.284  0.00  0.00    -0.252 OA
ATOM     13  N   UNL     1      -0.390  -2.871   9.692  0.00  0.00    -0.282 N 
ATOM     14  C   UNL     1       0.849  -0.999   8.665  0.00  0.00    +0.047 C 
ATOM     15  H   UNL     1      -3.175  -1.417   9.938  0.00  0.00    +0.159 HD
ATOM     16  H   UNL     1       0.289  -3.503   9.975  0.00  0.00    +0.152 HD
ENDBRANCH   5   7
BRANCH   1  19
ATOM     17  C   UNL     1      -0.535  -2.713   2.541  0.00  0.00    +0.252 C 
ATOM     18  O   UNL     1      -1.054  -3.811   2.607  0.00  0.00    -0.270 OA
ATOM     19  N   UNL     1       0.047  -2.176   3.631  0.00  0.00    -0.281 N 
ATOM     20  H   UNL     1       0.520  -1.332   3.562  0.00  0.00    +0.155 HD
BRANCH  17  26
ATOM     21  C   UNL     1       0.680   1.345  -0.091  0.00  0.00    +0.044 C 
ATOM     22  C   UNL     1       0.039  -0.016  -0.006  0.00  0.00    -0.050 A 
ATOM     23  C   UNL     1      -0.560  -0.568  -1.127  0.00  0.00    +0.007 A 
ATOM     24  C   UNL     1      -1.151  -1.814  -1.061  0.00  0.00    +0.046 A 
ATOM     25  C   UNL     1      -1.148  -2.523   0.131  0.00  0.00    +0.132 A 
ATOM     26  C   UNL     1      -0.544  -1.969   1.267  0.00  0.00    +0.079 A 
ATOM     27  C   UNL     1       0.056  -0.709   1.185  0.00  0.00    +0.020 A 
BRANCH  25  28
ATOM     28  O   UNL     1      -1.729  -3.747   0.197  0.00  0.00    -0.494 OA
ATOM     29  C   UNL     1      -2.326  -4.247  -1.002  0.00  0.00    +0.277 C 
ENDBRANCH  25  28
ENDBRANCH  17  26
ENDBRANCH   1  19
TORSDOF 4
