REMARK  Name = ZINC13272249
REMARK  12 active torsions:
REMARK  status: ('A' for Active; 'I' for Inactive)
REMARK    1  A    between atoms: C_1  and  C_2
REMARK    2  A    between atoms: C_2  and  C_4
REMARK    3  A    between atoms: C_2  and  S_16
REMARK    4  A    between atoms: N_6  and  C_7
REMARK    5  A    between atoms: C_10  and  C_14
REMARK    6  A    between atoms: S_16  and  C_17
REMARK    7  A    between atoms: C_20  and  C_30
REMARK    8  A    between atoms: N_21  and  C_22
REMARK    9  A    between atoms: C_22  and  C_24
REMARK   10  A    between atoms: C_22  and  C_27
REMARK   11  A    between atoms: C_24  and  C_25
REMARK   12  A    between atoms: C_24  and  C_26
REMARK                            x       y       z     vdW  Elec       q    Type
REMARK                         _______ _______ _______ _____ _____    ______ ____
ROOT
ATOM      1  C   UNL     1       2.510  -0.042  -1.286  0.00  0.00    +0.193 A 
ATOM      2  N   UNL     1       2.987   0.628  -0.262  0.00  0.00    -0.122 NA
ATOM      3  N   UNL     1       4.238   0.868  -0.433  0.00  0.00    -0.128 NA
ATOM      4  C   UNL     1       4.638   0.365  -1.580  0.00  0.00    +0.172 A 
ATOM      5  N   UNL     1       3.544  -0.239  -2.159  0.00  0.00    -0.287 N 
ENDROOT
BRANCH   4   6
ATOM      6  C   UNL     1       5.999   0.430  -2.137  0.00  0.00    +0.056 A 
ATOM      7  C   UNL     1       7.176   0.748  -1.508  0.00  0.00    +0.019 A 
ATOM      8  C   UNL     1       8.340   0.741  -2.243  0.00  0.00    +0.008 A 
ATOM      9  C   UNL     1       8.289   0.422  -3.562  0.00  0.00    +0.046 A 
ATOM     10  S   UNL     1       6.549   0.107  -3.805  0.00  0.00    -0.094 S 
ENDBRANCH   4   6
BRANCH   1  11
ATOM     11  S   UNL     1       0.849  -0.592  -1.493  0.00  0.00    -0.073 S 
BRANCH  11  13
ATOM     12  C   UNL     1      -0.007   1.520   0.020  0.00  0.00    +0.029 C 
ATOM     13  C   UNL     1       0.004  -0.010   0.003  0.00  0.00    +0.137 C 
BRANCH  13  14
ATOM     14  C   UNL     1      -1.412  -0.523   0.012  0.00  0.00    +0.230 C 
ATOM     15  O   UNL     1      -1.931  -0.890  -1.021  0.00  0.00    -0.274 OA
ATOM     16  N   UNL     1      -2.103  -0.575   1.169  0.00  0.00    -0.285 N 
ATOM     17  H   UNL     1      -1.668  -0.345   2.004  0.00  0.00    +0.155 HD
BRANCH  16  18
ATOM     18  C   UNL     1      -3.445  -0.959   1.163  0.00  0.00    +0.035 A 
ATOM     19  C   UNL     1      -3.885  -1.929   0.269  0.00  0.00    +0.024 A 
ATOM     20  C   UNL     1      -5.208  -2.311   0.259  0.00  0.00    +0.022 A 
ATOM     21  C   UNL     1      -6.110  -1.722   1.151  0.00  0.00    +0.070 A 
ATOM     22  C   UNL     1      -5.664  -0.748   2.050  0.00  0.00    +0.060 A 
ATOM     23  C   UNL     1      -4.336  -0.375   2.056  0.00  0.00    +0.044 A 
ATOM     24 CL   UNL     1      -6.779  -0.013   3.159  0.00  0.00    -0.082 Cl
BRANCH  21  25
ATOM     25  C   UNL     1      -7.487  -2.116   1.144  0.00  0.00    +0.101 C 
ATOM     26  N   UNL     1      -8.579  -2.429   1.139  0.00  0.00    -0.191 NA
ENDBRANCH  21  25
ENDBRANCH  16  18
ENDBRANCH  13  14
ENDBRANCH  11  13
ENDBRANCH   1  11
BRANCH   5  27
ATOM     27  C   UNL     1       3.497  -0.943  -3.443  0.00  0.00    +0.206 C 
BRANCH  27  28
ATOM     28  C   UNL     1       2.496  -0.249  -4.369  0.00  0.00    +0.017 C 
ATOM     29  C   UNL     1       2.932   1.200  -4.597  0.00  0.00    +0.010 C 
ATOM     30  C   UNL     1       2.447  -0.984  -5.710  0.00  0.00    +0.010 C 
ENDBRANCH  27  28
BRANCH  27  31
ATOM     31  C   UNL     1       3.068  -2.370  -3.218  0.00  0.00    +0.379 C 
ATOM     32  O   UNL     1       2.824  -2.763  -2.090  0.00  0.00    -0.244 OA
ATOM     33  O   UNL     1       2.965  -3.131  -4.165  0.00  0.00    -0.244 OA
ENDBRANCH  27  31
ENDBRANCH   5  27
TORSDOF 9
