REMARK  Name = ZINC00816047
REMARK  2 active torsions:
REMARK  status: ('A' for Active; 'I' for Inactive)
REMARK    1  A    between atoms: C_8  and  C_24
REMARK    2  A    between atoms: C_14  and  C_19
REMARK                            x       y       z     vdW  Elec       q    Type
REMARK                         _______ _______ _______ _____ _____    ______ ____
ROOT
ATOM      1  C   UNL     1       3.654   2.897  -0.190  0.00  0.00    +0.002 A 
ATOM      2  C   UNL     1       3.343   2.164   0.940  0.00  0.00    +0.002 A 
ATOM      3  C   UNL     1       2.119   1.522   1.040  0.00  0.00    +0.025 A 
ATOM      4  C   UNL     1       1.214   1.625  -0.001  0.00  0.00    +0.052 A 
ATOM      5  C   UNL     1       1.506   2.396  -1.116  0.00  0.00    +0.049 A 
ATOM      6  C   UNL     1       2.741   3.017  -1.222  0.00  0.00    +0.025 A 
ATOM      7  N   UNL     1       0.527   2.558  -2.094  0.00  0.00    -0.331 N 
ATOM      8  C   UNL     1      -0.701   3.266  -1.805  0.00  0.00    +0.143 C 
ATOM      9  C   UNL     1      -1.579   2.600  -0.772  0.00  0.00    +0.037 C 
ATOM     10  C   UNL     1      -1.224   1.577   0.017  0.00  0.00    +0.017 C 
ATOM     11  N   UNL     1      -0.011   0.966   0.007  0.00  0.00    -0.316 N 
ATOM     12  C   UNL     1      -2.212   0.996   1.020  0.00  0.00    +0.063 C 
ATOM     13  C   UNL     1      -3.157   2.088   1.517  0.00  0.00    +0.068 C 
ATOM     14  C   UNL     1      -3.896   2.655   0.298  0.00  0.00    +0.091 C 
ATOM     15  C   UNL     1      -2.878   3.154  -0.683  0.00  0.00    +0.163 C 
ATOM     16  O   UNL     1      -3.179   4.066  -1.428  0.00  0.00    -0.292 OA
ATOM     17  H   UNL     1       0.671   2.191  -2.980  0.00  0.00    +0.147 HD
ATOM     18  H   UNL     1       0.002  -0.004   0.002  0.00  0.00    +0.152 HD
ENDROOT
BRANCH  13  19
ATOM     19  C   UNL     1      -4.149   1.502   2.488  0.00  0.00    +0.109 A 
ATOM     20  C   UNL     1      -4.329   1.895   3.762  0.00  0.00    +0.045 A 
ATOM     21  C   UNL     1      -5.351   1.080   4.301  0.00  0.00    +0.041 A 
ATOM     22  C   UNL     1      -5.735   0.238   3.325  0.00  0.00    +0.195 A 
ATOM     23  O   UNL     1      -5.007   0.502   2.227  0.00  0.00    -0.468 OA
ENDBRANCH  13  19
BRANCH   8  24
ATOM     24  C   UNL     1      -0.352   4.649  -1.316  0.00  0.00    +0.014 A 
ATOM     25  C   UNL     1      -0.957   5.830  -1.594  0.00  0.00    +0.013 A 
ATOM     26  C   UNL     1      -0.459   6.987  -1.025  0.00  0.00    +0.008 A 
ATOM     27  C   UNL     1       0.618   6.907  -0.207  0.00  0.00    +0.045 A 
ATOM     28  S   UNL     1       0.959   5.154  -0.215  0.00  0.00    -0.099 S 
ENDBRANCH   8  24
TORSDOF 2
