REMARK  Name = ZINC06333791
REMARK  8 active torsions:
REMARK  status: ('A' for Active; 'I' for Inactive)
REMARK    1  A    between atoms: C_3  and  C_7
REMARK    2  A    between atoms: C_10  and  S_13
REMARK    3  A    between atoms: N_11  and  N_12
REMARK    4  A    between atoms: S_13  and  C_14
REMARK    5  A    between atoms: C_14  and  C_15
REMARK    6  A    between atoms: C_15  and  C_16
REMARK    7  A    between atoms: C_16  and  C_17
REMARK    8  A    between atoms: N_19  and  N_20
REMARK                            x       y       z     vdW  Elec       q    Type
REMARK                         _______ _______ _______ _____ _____    ______ ____
ROOT
ATOM      1  S   UNL     1       7.474   2.565   0.997  0.00  0.00    -0.084 S 
ENDROOT
BRANCH   1   5
ATOM      2  C   UNL     1       3.602   2.234   0.594  0.00  0.00    +0.183 A 
ATOM      3  N   UNL     1       3.842   3.425   0.098  0.00  0.00    -0.127 NA
ATOM      4  N   UNL     1       5.100   3.682   0.162  0.00  0.00    -0.121 NA
ATOM      5  C   UNL     1       5.739   2.669   0.704  0.00  0.00    +0.209 A 
ATOM      6  N   UNL     1       4.809   1.716   1.003  0.00  0.00    -0.224 N 
BRANCH   2   9
ATOM      7  C   UNL     1      -0.106   1.651   0.647  0.00  0.00    +0.020 A 
ATOM      8  C   UNL     1       1.104   2.315   0.540  0.00  0.00    +0.014 A 
ATOM      9  C   UNL     1       2.282   1.576   0.699  0.00  0.00    +0.039 A 
ATOM     10  C   UNL     1       2.190   0.208   0.958  0.00  0.00    +0.122 A 
ATOM     11  N   UNL     1       1.015  -0.379   1.051  0.00  0.00    -0.263 NA
ATOM     12  C   UNL     1      -0.112   0.292   0.906  0.00  0.00    +0.111 A 
ENDBRANCH   2   9
BRANCH   6  13
ATOM     13  N   UNL     1       5.030   0.499   1.584  0.00  0.00    -0.295 N 
ATOM     14  H   UNL     1       5.213  -0.206   0.886  0.00  0.00    +0.163 HD
ATOM     15  H   UNL     1       5.784   0.550   2.252  0.00  0.00    +0.163 HD
ENDBRANCH   6  13
ENDBRANCH   1   5
BRANCH   1  16
ATOM     16  C   UNL     1       8.118   4.146   0.385  0.00  0.00    +0.078 C 
BRANCH  16  17
ATOM     17  C   UNL     1       9.635   4.189   0.581  0.00  0.00    +0.020 C 
BRANCH  17  18
ATOM     18  C   UNL     1      10.178   5.523   0.064  0.00  0.00    +0.098 C 
BRANCH  18  19
ATOM     19  C   UNL     1      11.672   5.566   0.258  0.00  0.00    +0.232 C 
ATOM     20  O   UNL     1      12.246   4.622   0.759  0.00  0.00    -0.274 OA
ATOM     21  N   UNL     1      12.371   6.652  -0.127  0.00  0.00    -0.207 N 
ATOM     22  H   UNL     1      11.912   7.407  -0.527  0.00  0.00    +0.177 HD
BRANCH  21  23
ATOM     23  N   UNL     1      13.760   6.692   0.053  0.00  0.00    -0.189 NA
ATOM     24  C   UNL     1      14.410   7.761  -0.215  0.00  0.00    +0.037 C 
ATOM     25  C   UNL     1      13.685   9.038  -0.581  0.00  0.00    +0.052 C 
ATOM     26  C   UNL     1      14.215  10.170   0.306  0.00  0.00    +0.006 C 
ATOM     27  C   UNL     1      15.737  10.249   0.174  0.00  0.00    +0.001 C 
ATOM     28  C   UNL     1      16.371   8.958   0.697  0.00  0.00    +0.006 C 
ATOM     29  C   UNL     1      15.922   7.782  -0.170  0.00  0.00    +0.052 C 
ENDBRANCH  21  23
ENDBRANCH  18  19
ENDBRANCH  17  18
ENDBRANCH  16  17
ENDBRANCH   1  16
TORSDOF 8
