REMARK  Name = ZINC48962077
REMARK  4 active torsions:
REMARK  status: ('A' for Active; 'I' for Inactive)
REMARK    1  A    between atoms: C_1  and  N_2
REMARK    2  A    between atoms: N_5  and  N_6
REMARK    3  A    between atoms: N_6  and  S_7
REMARK    4  A    between atoms: S_7  and  C_10
REMARK                            x       y       z     vdW  Elec       q    Type
REMARK                         _______ _______ _______ _____ _____    ______ ____
ROOT
ATOM      1  S   UNL     1       0.887  -3.836  -0.919  0.00  0.00    +0.074 S 
ATOM      2  O   UNL     1      -0.028  -4.473  -1.800  0.00  0.00    -0.152 OA
ATOM      3  O   UNL     1       2.050  -3.165  -1.384  0.00  0.00    -0.152 OA
ENDROOT
BRANCH   1   4
ATOM      4  C   UNL     1       1.435  -5.068   0.215  0.00  0.00    +0.107 A 
ATOM      5  C   UNL     1       2.647  -4.922   0.865  0.00  0.00    +0.032 A 
ATOM      6  C   UNL     1       3.079  -5.882   1.757  0.00  0.00    +0.048 A 
ATOM      7  C   UNL     1       2.299  -7.007   2.010  0.00  0.00    +0.124 A 
ATOM      8  C   UNL     1       1.087  -7.146   1.345  0.00  0.00    -0.001 A 
ATOM      9  C   UNL     1       0.653  -6.182   0.462  0.00  0.00    +0.036 A 
ATOM     10  C   UNL     1       0.480  -8.460   1.796  0.00  0.00    +0.080 C 
ATOM     11  C   UNL     1       1.691  -9.161   2.457  0.00  0.00    +0.234 C 
ATOM     12  O   UNL     1       2.524  -8.056   2.848  0.00  0.00    -0.491 OA
ENDBRANCH   1   4
BRANCH   1  13
ATOM     13  N   UNL     1       0.016  -2.726  -0.053  0.00  0.00    -0.107 NA
ATOM     14  H   UNL     1      -0.915  -2.563  -0.271  0.00  0.00    +0.172 HD
BRANCH  13  19
ATOM     15  C   UNL     1      -0.018   1.461   0.010  0.00  0.00    +0.129 C 
ATOM     16  N   UNL     1       0.002  -0.004   0.002  0.00  0.00    -0.301 N 
ATOM     17  C   UNL     1       0.604  -0.675   1.004  0.00  0.00    +0.314 C 
ATOM     18  O   UNL     1       1.131  -0.065   1.914  0.00  0.00    -0.251 OA
ATOM     19  N   UNL     1       0.623  -2.023   0.996  0.00  0.00    -0.216 N 
ATOM     20  H   UNL     1      -0.418  -0.491  -0.724  0.00  0.00    +0.150 HD
ATOM     21  H   UNL     1       1.056  -2.506   1.717  0.00  0.00    +0.172 HD
ENDBRANCH  13  19
ENDBRANCH   1  13
TORSDOF 3
