REMARK  Name = ZINC25353619
REMARK  7 active torsions:
REMARK  status: ('A' for Active; 'I' for Inactive)
REMARK    1  A    between atoms: C_2  and  C_3
REMARK    2  A    between atoms: C_3  and  N_4
REMARK    3  A    between atoms: C_5  and  C_24
REMARK    4  A    between atoms: C_8  and  S_9
REMARK    5  A    between atoms: S_9  and  C_10
REMARK    6  A    between atoms: C_10  and  C_12
REMARK    7  A    between atoms: C_10  and  C_18
REMARK                            x       y       z     vdW  Elec       q    Type
REMARK                         _______ _______ _______ _____ _____    ______ ____
ROOT
ATOM      1  C   UNL     1       1.772   2.102  -0.014  0.00  0.00    +0.170 C 
ENDROOT
BRANCH   1   2
ATOM      2  C   UNL     1       1.766   1.708   1.441  0.00  0.00    +0.238 C 
ATOM      3  O   UNL     1       2.502   0.829   1.834  0.00  0.00    -0.274 OA
ATOM      4  N   UNL     1       0.943   2.334   2.305  0.00  0.00    -0.239 N 
ATOM      5  C   UNL     1       1.016   2.062   3.623  0.00  0.00    +0.303 C 
ATOM      6  O   UNL     1       1.824   1.252   4.032  0.00  0.00    -0.253 OA
ATOM      7  N   UNL     1       0.192   2.688   4.487  0.00  0.00    -0.313 N 
ATOM      8  H   UNL     1       0.211   3.067   1.934  0.00  0.00    +0.159 HD
ATOM      9  H   UNL     1       0.251   2.466   5.562  0.00  0.00    +0.146 HD
ATOM     10  H   UNL     1      -0.540   3.421   4.116  0.00  0.00    +0.146 HD
ENDBRANCH   1   2
BRANCH   1  11
ATOM     11  C   UNL     1       2.080   3.572  -0.135  0.00  0.00    -0.025 A 
ATOM     12  C   UNL     1       1.159   4.509   0.293  0.00  0.00    +0.005 A 
ATOM     13  C   UNL     1       1.443   5.858   0.186  0.00  0.00    +0.000 A 
ATOM     14  C   UNL     1       2.645   6.270  -0.358  0.00  0.00    +0.000 A 
ATOM     15  C   UNL     1       3.565   5.333  -0.791  0.00  0.00    +0.000 A 
ATOM     16  C   UNL     1       3.282   3.984  -0.680  0.00  0.00    +0.005 A 
ENDBRANCH   1  11
BRANCH   1  17
ATOM     17  S   UNL     1       0.148   1.764  -0.737  0.00  0.00    -0.068 S 
BRANCH  17  22
ATOM     18  N   UNL     1      -0.903  -0.815  -1.002  0.00  0.00    -0.296 N 
ATOM     19  C   UNL     1      -0.486  -2.092  -0.699  0.00  0.00    +0.201 A 
ATOM     20  N   UNL     1       0.707  -1.989  -0.155  0.00  0.00    -0.125 NA
ATOM     21  N   UNL     1       1.059  -0.754  -0.104  0.00  0.00    -0.122 NA
ATOM     22  C   UNL     1       0.112   0.008  -0.602  0.00  0.00    +0.193 A 
BRANCH  19  23
ATOM     23  C   UNL     1      -1.234  -3.337  -0.938  0.00  0.00    +0.172 A 
ATOM     24  C   UNL     1      -0.719  -4.598  -0.912  0.00  0.00    +0.053 A 
ATOM     25  C   UNL     1      -1.783  -5.477  -1.191  0.00  0.00    +0.042 A 
ATOM     26  C   UNL     1      -2.882  -4.720  -1.380  0.00  0.00    +0.196 A 
ATOM     27  O   UNL     1      -2.547  -3.428  -1.227  0.00  0.00    -0.460 OA
ENDBRANCH  19  23
BRANCH  18  28
ATOM     28  C   UNL     1      -2.170  -0.420  -1.622  0.00  0.00    +0.152 C 
BRANCH  28  30
ATOM     29  C   UNL     1      -2.818  -1.095  -3.878  0.00  0.00    +0.005 C 
ATOM     30  C   UNL     1      -2.010  -0.395  -3.121  0.00  0.00    -0.013 C 
ENDBRANCH  28  30
ENDBRANCH  18  28
ENDBRANCH  17  22
ENDBRANCH   1  17
TORSDOF 7
