REMARK  Name = ZINC20573050
REMARK  5 active torsions:
REMARK  status: ('A' for Active; 'I' for Inactive)
REMARK    1  A    between atoms: C_6  and  C_7
REMARK    2  A    between atoms: C_7  and  C_8
REMARK    3  A    between atoms: N_10  and  C_11
REMARK    4  A    between atoms: C_11  and  C_12
REMARK    5  A    between atoms: C_12  and  C_13
REMARK                            x       y       z     vdW  Elec       q    Type
REMARK                         _______ _______ _______ _____ _____    ______ ____
ROOT
ATOM      1  C   UNL     1      -5.073  -2.975  -4.433  0.00  0.00    +0.217 C 
ATOM      2  O   UNL     1      -4.405  -2.567  -5.359  0.00  0.00    -0.276 OA
ATOM      3  N   UNL     1      -6.214  -3.652  -4.672  0.00  0.00    -0.301 N 
ATOM      4  C   UNL     1      -7.037  -4.147  -3.560  0.00  0.00    +0.110 C 
ATOM      5  C   UNL     1      -8.470  -3.637  -3.743  0.00  0.00    +0.047 C 
ATOM      6  C   UNL     1      -8.978  -4.034  -5.129  0.00  0.00    +0.064 C 
ATOM      7  C   UNL     1      -8.096  -3.400  -6.205  0.00  0.00    +0.047 C 
ATOM      8  C   UNL     1      -6.662  -3.903  -6.048  0.00  0.00    +0.110 C 
ATOM      9  C   UNL     1     -10.401  -3.568  -5.301  0.00  0.00    +0.057 A 
ATOM     10  C   UNL     1     -11.372  -4.336  -5.845  0.00  0.00    +0.039 A 
ATOM     11  N   UNL     1     -12.515  -3.602  -5.838  0.00  0.00    -0.349 N 
ATOM     12  H   UNL     1     -13.384  -3.885  -6.163  0.00  0.00    +0.166 HD
ATOM     13  C   UNL     1     -12.211  -2.402  -5.291  0.00  0.00    +0.171 A 
ATOM     14  N   UNL     1     -10.942  -2.393  -4.973  0.00  0.00    -0.348 N 
ATOM     15  C   UNL     1     -11.139  -5.739  -6.345  0.00  0.00    +0.070 C 
ATOM     16  C   UNL     1      -9.624  -5.941  -6.492  0.00  0.00    +0.088 C 
ATOM     17  N   UNL     1      -8.946  -5.499  -5.265  0.00  0.00    -0.305 NA
ATOM     18  H   UNL     1      -7.999  -5.845  -5.230  0.00  0.00    +0.123 HD
ATOM     19  H   UNL     1     -10.469  -1.651  -4.565  0.00  0.00    +0.166 HD
ENDROOT
BRANCH   1  20
ATOM     20  C   UNL     1      -4.627  -2.726  -3.015  0.00  0.00    +0.114 C 
BRANCH  20  21
ATOM     21  C   UNL     1      -3.313  -1.943  -3.024  0.00  0.00    +0.113 C 
BRANCH  21  24
ATOM     22  C   UNL     1      -1.738  -1.024  -1.407  0.00  0.00    +0.217 C 
ATOM     23  O   UNL     1      -1.070  -0.616  -2.333  0.00  0.00    -0.275 OA
ATOM     24  N   UNL     1      -2.880  -1.701  -1.646  0.00  0.00    -0.315 N 
ATOM     25  H   UNL     1      -3.414  -2.027  -0.905  0.00  0.00    +0.149 HD
BRANCH  22  26
ATOM     26  C   UNL     1      -1.293  -0.775   0.011  0.00  0.00    +0.130 C 
BRANCH  26  32
ATOM     27  C   UNL     1      -0.017   1.378   0.010  0.00  0.00    +0.005 A 
ATOM     28  C   UNL     1       1.171   2.086   0.002  0.00  0.00    +0.020 A 
ATOM     29  C   UNL     1       2.378   1.410  -0.013  0.00  0.00    +0.041 A 
ATOM     30  C   UNL     1       2.396   0.027  -0.021  0.00  0.00    +0.020 A 
ATOM     31  C   UNL     1       1.208  -0.679  -0.013  0.00  0.00    +0.005 A 
ATOM     32  C   UNL     1       0.002  -0.004   0.002  0.00  0.00    -0.039 A 
ATOM     33 CL   UNL     1       3.870   2.298  -0.023  0.00  0.00    -0.084 Cl
ENDBRANCH  26  32
ENDBRANCH  22  26
ENDBRANCH  21  24
ENDBRANCH  20  21
ENDBRANCH   1  20
TORSDOF 5
