REMARK  Name = ZINC30588549
REMARK  8 active torsions:
REMARK  status: ('A' for Active; 'I' for Inactive)
REMARK    1  A    between atoms: C_1  and  C_2
REMARK    2  A    between atoms: C_7  and  C_13
REMARK    3  A    between atoms: C_13  and  N_14
REMARK    4  A    between atoms: C_17  and  O_28
REMARK    5  A    between atoms: C_20  and  O_26
REMARK    6  A    between atoms: C_22  and  O_25
REMARK    7  A    between atoms: O_26  and  C_27
REMARK    8  A    between atoms: O_28  and  C_29
REMARK                            x       y       z     vdW  Elec       q    Type
REMARK                         _______ _______ _______ _____ _____    ______ ____
ROOT
ATOM      1  N   UNL     1      -1.157  -6.768   0.523  0.00  0.00    -0.290 NA
ATOM      2  C   UNL     1      -2.300  -6.474   1.393  0.00  0.00    +0.124 C 
ATOM      3  C   UNL     1      -3.561  -7.070   0.826  0.00  0.00    +0.017 A 
ATOM      4  C   UNL     1      -4.785  -6.597   1.291  0.00  0.00    +0.125 A 
ATOM      5  C   UNL     1      -5.970  -7.119   0.801  0.00  0.00    +0.049 A 
ATOM      6  C   UNL     1      -5.939  -8.116  -0.155  0.00  0.00    +0.049 A 
ATOM      7  C   UNL     1      -4.723  -8.587  -0.620  0.00  0.00    +0.126 A 
ATOM      8  C   UNL     1      -3.531  -8.061  -0.130  0.00  0.00    +0.032 A 
ATOM      9  C   UNL     1      -2.232  -8.597  -0.673  0.00  0.00    +0.162 C 
ATOM     10  C   UNL     1      -1.079  -8.213   0.255  0.00  0.00    +0.121 C 
ENDROOT
BRANCH   9  11
ATOM     11  O   UNL     1      -2.308 -10.021  -0.767  0.00  0.00    -0.386 OA
ATOM     12  H   UNL     1      -1.505 -10.436  -1.110  0.00  0.00    +0.210 HD
ENDBRANCH   9  11
BRANCH   7  13
ATOM     13  O   UNL     1      -4.692  -9.569  -1.560  0.00  0.00    -0.495 OA
ATOM     14  C   UNL     1      -5.951 -10.065  -2.021  0.00  0.00    +0.277 C 
ENDBRANCH   7  13
BRANCH   4  15
ATOM     15  O   UNL     1      -4.817  -5.616   2.233  0.00  0.00    -0.495 OA
ATOM     16  C   UNL     1      -6.105  -5.175   2.667  0.00  0.00    +0.277 C 
ENDBRANCH   4  15
BRANCH   1  17
ATOM     17  C   UNL     1       0.095  -6.274   1.112  0.00  0.00    +0.138 C 
BRANCH  17  24
ATOM     18  C   UNL     1      -0.018   1.503   0.010  0.00  0.00    +0.045 C 
ATOM     19  C   UNL     1       0.002  -0.004   0.002  0.00  0.00    -0.034 A 
ATOM     20  C   UNL     1       0.006  -0.697  -1.217  0.00  0.00    +0.008 A 
ATOM     21  C   UNL     1       0.025  -2.059  -1.216  0.00  0.00    +0.045 A 
ATOM     22  C   UNL     1       0.040  -2.750   0.010  0.00  0.00    +0.118 A 
ATOM     23  N   UNL     1       0.059  -4.082   0.013  0.00  0.00    -0.343 N 
ATOM     24  C   UNL     1       0.074  -4.768   1.145  0.00  0.00    +0.037 A 
ATOM     25  C   UNL     1       0.071  -4.104   2.356  0.00  0.00    +0.093 A 
ATOM     26  C   UNL     1       0.051  -2.704   2.361  0.00  0.00    +0.258 A 
ATOM     27  O   UNL     1       0.048  -2.088   3.415  0.00  0.00    -0.267 OA
ATOM     28  N   UNL     1       0.037  -2.046   1.182  0.00  0.00    -0.269 N 
ATOM     29  C   UNL     1       0.022  -0.685   1.170  0.00  0.00    +0.099 A 
ATOM     30  H   UNL     1       0.061  -4.559  -0.832  0.00  0.00    +0.167 HD
ENDBRANCH  17  24
ENDBRANCH   1  17
TORSDOF 5
