REMARK  Name = ZINC12661385
REMARK  5 active torsions:
REMARK  status: ('A' for Active; 'I' for Inactive)
REMARK    1  A    between atoms: C_1  and  C_2
REMARK    2  A    between atoms: C_18  and  C_20
REMARK    3  A    between atoms: C_20  and  N_66
REMARK    4  A    between atoms: N_23  and  C_26
REMARK    5  A    between atoms: C_29  and  N_32
REMARK                            x       y       z     vdW  Elec       q    Type
REMARK                         _______ _______ _______ _____ _____    ______ ____
ROOT
ATOM      1  C   UNL     1     -10.061  10.161  -2.833  0.00  0.00    +0.011 C 
ATOM      2  C   UNL     1     -11.426   9.481  -2.703  0.00  0.00    -0.023 C 
ATOM      3  C   UNL     1     -12.536  10.521  -2.857  0.00  0.00    +0.007 C 
ATOM      4  C   UNL     1     -12.385  11.603  -1.788  0.00  0.00    +0.003 C 
ATOM      5  C   UNL     1     -12.523  10.988  -0.391  0.00  0.00    +0.037 C 
ATOM      6  C   UNL     1     -11.496   9.863  -0.240  0.00  0.00    +0.096 C 
ATOM      7  C   UNL     1     -11.534   8.795  -1.334  0.00  0.00    +0.030 C 
ATOM      8  C   UNL     1     -10.344   7.852  -1.179  0.00  0.00    +0.014 C 
ATOM      9  C   UNL     1     -10.386   6.771  -2.232  0.00  0.00    +0.042 C 
ATOM     10  C   UNL     1     -10.495   7.355  -3.656  0.00  0.00    +0.181 C 
ATOM     11  C   UNL     1     -11.570   8.406  -3.780  0.00  0.00    +0.052 C 
ATOM     12  O   UNL     1      -9.157   7.866  -3.920  0.00  0.00    -0.461 OA
ATOM     13  C   UNL     1      -8.281   6.961  -3.428  0.00  0.00    +0.309 C 
ATOM     14  O   UNL     1      -7.153   6.791  -3.825  0.00  0.00    -0.251 OA
ATOM     15  C   UNL     1      -8.940   6.195  -2.297  0.00  0.00    +0.088 C 
ATOM     16  C   UNL     1     -10.143  10.208   0.378  0.00  0.00    +0.196 C 
ATOM     17  O   UNL     1     -11.138   9.458   1.080  0.00  0.00    -0.368 OA
ENDROOT
BRANCH  15  18
ATOM     18  C   UNL     1      -8.204   6.446  -0.979  0.00  0.00    -0.064 C 
BRANCH  18  24
ATOM     19  C   UNL     1      -6.036   6.295   0.090  0.00  0.00    -0.060 C 
ATOM     20  C   UNL     1      -4.618   5.742  -0.067  0.00  0.00    +0.086 C 
ATOM     21  N   UNL     1      -4.673   4.277  -0.159  0.00  0.00    -0.333 N 
ATOM     22  C   UNL     1      -5.490   3.854  -1.305  0.00  0.00    +0.086 C 
ATOM     23  C   UNL     1      -6.909   4.407  -1.147  0.00  0.00    -0.060 C 
ATOM     24  N   UNL     1      -6.841   5.881  -1.079  0.00  0.00    +0.382 N 
ATOM     25  H   UNL     1      -6.395   6.235  -1.933  0.00  0.00    -0.082 HD
BRANCH  21  26
ATOM     26  C   UNL     1      -3.389   3.731  -0.232  0.00  0.00    +0.030 A 
ATOM     27  C   UNL     1      -3.222   2.355  -0.324  0.00  0.00    +0.025 A 
ATOM     28  C   UNL     1      -1.951   1.819  -0.396  0.00  0.00    +0.034 A 
ATOM     29  C   UNL     1      -0.846   2.650  -0.375  0.00  0.00    +0.126 A 
ATOM     30  C   UNL     1      -1.009   4.020  -0.277  0.00  0.00    +0.034 A 
ATOM     31  C   UNL     1      -2.277   4.563  -0.211  0.00  0.00    +0.025 A 
BRANCH  29  32
ATOM     32  N   UNL     1       0.514   2.072  -0.451  0.00  0.00    +0.056 N 
ATOM     33  O   UNL     1       0.660   0.865  -0.531  0.00  0.00    -0.126 OA
ATOM     34  O   UNL     1       1.488   2.803  -0.438  0.00  0.00    -0.126 OA
ENDBRANCH  29  32
ENDBRANCH  21  26
ENDBRANCH  18  24
ENDBRANCH  15  18
TORSDOF 4
