REMARK  Name = ZINC50865411
REMARK  4 active torsions:
REMARK  status: ('A' for Active; 'I' for Inactive)
REMARK    1  A    between atoms: C_1  and  C_2
REMARK    2  A    between atoms: C_2  and  N_3
REMARK    3  A    between atoms: C_8  and  C_10
REMARK    4  A    between atoms: C_14  and  O_16
REMARK                            x       y       z     vdW  Elec       q    Type
REMARK                         _______ _______ _______ _____ _____    ______ ____
ROOT
ATOM      1  N   UNL     1      -1.372  -0.511   0.012  0.00  0.00    -0.329 N 
ATOM      2  C   UNL     1      -1.607  -1.877   0.007  0.00  0.00    +0.126 A 
ATOM      3  C   UNL     1      -2.919  -2.370   0.011  0.00  0.00    +0.014 A 
ATOM      4  C   UNL     1      -3.108  -3.731   0.003  0.00  0.00    +0.050 A 
ATOM      5  N   UNL     1      -2.045  -4.531  -0.003  0.00  0.00    -0.232 NA
ATOM      6  C   UNL     1      -0.817  -4.039  -0.005  0.00  0.00    +0.162 A 
ATOM      7  N   UNL     1      -0.593  -2.732  -0.007  0.00  0.00    -0.213 NA
ATOM      8  C   UNL     1      -4.476  -4.359  -0.009  0.00  0.00    +0.056 C 
ATOM      9  C   UNL     1      -5.533  -3.347   0.428  0.00  0.00    +0.006 C 
ATOM     10  C   UNL     1      -5.356  -2.070  -0.402  0.00  0.00    +0.005 C 
ATOM     11  C   UNL     1      -4.058  -1.389   0.029  0.00  0.00    +0.040 C 
ATOM     12  H   UNL     1      -2.118   0.109   0.023  0.00  0.00    +0.147 HD
ENDROOT
BRANCH   6  13
ATOM     13  C   UNL     1       0.337  -4.971  -0.012  0.00  0.00    +0.023 A 
ATOM     14  C   UNL     1       0.122  -6.348  -0.021  0.00  0.00    +0.012 A 
ATOM     15  C   UNL     1       1.198  -7.214  -0.027  0.00  0.00    +0.004 A 
ATOM     16  C   UNL     1       2.488  -6.719  -0.024  0.00  0.00    +0.045 A 
ATOM     17  C   UNL     1       2.711  -5.349  -0.015  0.00  0.00    +0.118 A 
ATOM     18  C   UNL     1       1.638  -4.473  -0.015  0.00  0.00    +0.057 A 
BRANCH  17  19
ATOM     19  O   UNL     1       3.982  -4.867  -0.011  0.00  0.00    -0.507 OA
ATOM     20  H   UNL     1       4.349  -4.722  -0.894  0.00  0.00    +0.292 HD
ENDBRANCH  17  19
ENDBRANCH   6  13
BRANCH   1  22
ATOM     21  C   UNL     1      -0.019   1.526   0.010  0.00  0.00    +0.024 C 
ATOM     22  C   UNL     1       0.002  -0.004   0.002  0.00  0.00    +0.099 C 
ENDBRANCH   1  22
TORSDOF 3
