REMARK  Name = ZINC14545383
REMARK  6 active torsions:
REMARK  status: ('A' for Active; 'I' for Inactive)
REMARK    1  A    between atoms: C_1  and  C_2
REMARK    2  A    between atoms: C_2  and  O_3
REMARK    3  A    between atoms: O_3  and  C_4
REMARK    4  A    between atoms: C_9  and  C_10
REMARK    5  A    between atoms: C_21  and  N_27
REMARK    6  A    between atoms: C_23  and  O_26
REMARK                            x       y       z     vdW  Elec       q    Type
REMARK                         _______ _______ _______ _____ _____    ______ ____
ROOT
ATOM      1  C   UNL     1      -1.292  -0.776   0.010  0.00  0.00    +0.109 C 
ATOM      2  C   UNL     1      -1.871  -0.816  -1.406  0.00  0.00    +0.029 C 
ATOM      3  C   UNL     1      -2.315   0.625  -1.782  0.00  0.00    +0.033 C 
ATOM      4  C   UNL     1      -3.685   0.753  -1.146  0.00  0.00    -0.030 C 
ATOM      5  C   UNL     1      -4.200  -0.430  -0.922  0.00  0.00    -0.023 C 
ATOM      6  C   UNL     1      -3.247  -1.515  -1.367  0.00  0.00    +0.049 C 
ATOM      7  C   UNL     1      -3.257  -2.658  -0.395  0.00  0.00    -0.014 A 
ATOM      8  C   UNL     1      -4.382  -3.475  -0.362  0.00  0.00    +0.039 A 
ATOM      9  C   UNL     1      -4.456  -4.537   0.514  0.00  0.00    +0.130 A 
ATOM     10  C   UNL     1      -3.405  -4.802   1.373  0.00  0.00    +0.080 A 
ATOM     11  C   UNL     1      -2.280  -3.999   1.347  0.00  0.00    +0.140 A 
ATOM     12  C   UNL     1      -2.203  -2.921   0.459  0.00  0.00    +0.074 A 
ATOM     13  N   UNL     1      -1.043  -2.142   0.472  0.00  0.00    -0.334 N 
ATOM     14  H   UNL     1      -0.618  -2.142   1.387  0.00  0.00    +0.147 HD
ENDROOT
BRANCH   1  20
ATOM     15  C   UNL     1       1.146  -0.573  -0.538  0.00  0.00    +0.125 A 
ATOM     16  C   UNL     1       2.337   0.140  -0.543  0.00  0.00    +0.046 A 
ATOM     17  C   UNL     1       2.380   1.414  -0.011  0.00  0.00    +0.004 A 
ATOM     18  C   UNL     1       1.237   1.979   0.527  0.00  0.00    +0.001 A 
ATOM     19  C   UNL     1       0.050   1.270   0.533  0.00  0.00    +0.009 A 
ATOM     20  C   UNL     1       0.002  -0.004   0.002  0.00  0.00    +0.015 A 
BRANCH  15  21
ATOM     21  O   UNL     1       1.103  -1.828  -1.056  0.00  0.00    -0.492 OA
BRANCH  21  23
ATOM     22  C   UNL     1       2.076  -3.764  -2.127  0.00  0.00    +0.048 C 
ATOM     23  C   UNL     1       2.319  -2.350  -1.595  0.00  0.00    +0.225 C 
ENDBRANCH  21  23
ENDBRANCH  15  21
ENDBRANCH   1  20
BRANCH   9  24
ATOM     24  N   UNL     1      -5.662  -5.395   0.535  0.00  0.00    +0.057 N 
ATOM     25  O   UNL     1      -6.588  -5.162  -0.221  0.00  0.00    -0.126 OA
ATOM     26  O   UNL     1      -5.729  -6.333   1.309  0.00  0.00    -0.126 OA
ENDBRANCH   9  24
BRANCH  11  27
ATOM     27  O   UNL     1      -1.243  -4.258   2.189  0.00  0.00    -0.505 OA
ATOM     28  H   UNL     1      -1.306  -3.805   3.041  0.00  0.00    +0.292 HD
ENDBRANCH  11  27
TORSDOF 5
