REMARK  Name = ZINC64151344
REMARK  6 active torsions:
REMARK  status: ('A' for Active; 'I' for Inactive)
REMARK    1  A    between atoms: C_1  and  C_2
REMARK    2  A    between atoms: C_12  and  O_14
REMARK    3  A    between atoms: O_14  and  C_15
REMARK    4  A    between atoms: C_15  and  C_16
REMARK    5  A    between atoms: N_18  and  C_19
REMARK    6  A    between atoms: C_23  and  C_25
REMARK                            x       y       z     vdW  Elec       q    Type
REMARK                         _______ _______ _______ _____ _____    ______ ____
ROOT
ATOM      1  C   UNL     1       4.889  -2.294   5.705  0.00  0.00    +0.287 C 
ATOM      2  O   UNL     1       6.227  -2.350   5.848  0.00  0.00    -0.267 OA
ATOM      3  N   UNL     1       4.114  -2.682   6.677  0.00  0.00    -0.173 NA
ENDROOT
BRANCH   3   4
ATOM      4  C   UNL     1       4.657  -3.146   7.838  0.00  0.00    +0.250 A 
ATOM      5  N   UNL     1       3.967  -3.586   8.925  0.00  0.00    -0.243 N 
ATOM      6  H   UNL     1       3.003  -3.631   9.023  0.00  0.00    +0.192 HD
ATOM      7  N   UNL     1       4.928  -3.963   9.877  0.00  0.00    -0.151 NA
ATOM      8  C   UNL     1       6.108  -3.742   9.341  0.00  0.00    +0.184 A 
ATOM      9  N   UNL     1       5.943  -3.252   8.106  0.00  0.00    -0.190 NA
BRANCH   8  10
ATOM     10  C   UNL     1       7.413  -3.999   9.998  0.00  0.00    +0.035 A 
ATOM     11  C   UNL     1       8.601  -3.716   9.328  0.00  0.00    +0.013 A 
ATOM     12  C   UNL     1       9.813  -3.957   9.944  0.00  0.00    +0.001 A 
ATOM     13  C   UNL     1       9.849  -4.477  11.225  0.00  0.00    +0.001 A 
ATOM     14  C   UNL     1       8.674  -4.760  11.896  0.00  0.00    +0.016 A 
ATOM     15  C   UNL     1       7.455  -4.519  11.291  0.00  0.00    +0.029 A 
ATOM     16 BR   UNL     1       5.848  -4.898  12.213  0.00  0.00    -0.050 Br
ENDBRANCH   8  10
ENDBRANCH   3   4
BRANCH   1  17
ATOM     17  C   UNL     1       4.289  -1.781   4.421  0.00  0.00    +0.329 C 
BRANCH  17  18
ATOM     18  O   UNL     1       2.864  -1.819   4.513  0.00  0.00    -0.482 OA
BRANCH  18  29
ATOM     19  C   UNL     1      -0.019   1.526   0.010  0.00  0.00    +0.013 C 
ATOM     20  C   UNL     1       0.002  -0.004   0.002  0.00  0.00    +0.030 C 
ATOM     21  C   UNL     1      -1.436  -0.533   0.009  0.00  0.00    +0.129 C 
ATOM     22  C   UNL     1      -1.975  -0.373   1.416  0.00  0.00    +0.313 C 
ATOM     23  O   UNL     1      -2.969   0.275   1.643  0.00  0.00    -0.250 OA
ATOM     24  O   UNL     1      -1.294  -0.990   2.402  0.00  0.00    -0.425 OA
ATOM     25  C   UNL     1       0.066  -0.957   2.343  0.00  0.00    +0.139 A 
ATOM     26  C   UNL     1       0.735  -0.502   1.222  0.00  0.00    -0.001 A 
ATOM     27  C   UNL     1       2.121  -0.497   1.207  0.00  0.00    +0.011 A 
ATOM     28  C   UNL     1       2.835  -0.937   2.303  0.00  0.00    +0.046 A 
ATOM     29  C   UNL     1       2.164  -1.388   3.431  0.00  0.00    +0.125 A 
ATOM     30  C   UNL     1       0.784  -1.397   3.449  0.00  0.00    +0.092 A 
ENDBRANCH  18  29
ENDBRANCH  17  18
ENDBRANCH   1  17
TORSDOF 5
