REMARK  Name = ZINC40658741
REMARK  4 active torsions:
REMARK  status: ('A' for Active; 'I' for Inactive)
REMARK    1  A    between atoms: C_10  and  C_11
REMARK    2  A    between atoms: N_13  and  N_14
REMARK    3  A    between atoms: C_16  and  N_33
REMARK    4  A    between atoms: C_17  and  N_21
REMARK                            x       y       z     vdW  Elec       q    Type
REMARK                         _______ _______ _______ _____ _____    ______ ____
ROOT
ATOM      1  N   UNL     1       7.335   0.206   0.098  0.00  0.00    -0.246 N 
ATOM      2  C   UNL     1       8.540  -0.476   0.167  0.00  0.00    +0.171 A 
ATOM      3  C   UNL     1       9.746   0.219   0.166  0.00  0.00    +0.207 A 
ATOM      4  C   UNL     1      10.928  -0.512   0.236  0.00  0.00    +0.157 A 
ATOM      5  N   UNL     1      10.863  -1.841   0.301  0.00  0.00    -0.218 NA
ATOM      6  C   UNL     1       9.702  -2.462   0.299  0.00  0.00    +0.225 A 
ATOM      7  N   UNL     1       8.561  -1.806   0.239  0.00  0.00    -0.217 NA
ATOM      8  H   UNL     1       7.329   1.175   0.045  0.00  0.00    +0.172 HD
ENDROOT
BRANCH   4   9
ATOM      9  N   UNL     1      12.155   0.134   0.239  0.00  0.00    -0.310 N 
ATOM     10  C   UNL     1      12.835   0.444   1.504  0.00  0.00    +0.125 C 
ATOM     11  C   UNL     1      14.242  -0.164   1.466  0.00  0.00    +0.125 C 
ATOM     12  N   UNL     1      14.886   0.222   0.203  0.00  0.00    -0.314 N 
ATOM     13  C   UNL     1      14.207  -0.088  -1.063  0.00  0.00    +0.125 C 
ATOM     14  C   UNL     1      12.802   0.515  -1.025  0.00  0.00    +0.125 C 
ATOM     15  C   UNL     1      16.116   0.869   0.205  0.00  0.00    +0.099 A 
ATOM     16  C   UNL     1      16.688   1.260   1.412  0.00  0.00    +0.042 A 
ATOM     17  C   UNL     1      17.912   1.904   1.399  0.00  0.00    +0.005 A 
ATOM     18  C   UNL     1      18.527   2.135   0.176  0.00  0.00    +0.018 A 
ATOM     19  C   UNL     1      17.903   1.719  -0.983  0.00  0.00    +0.084 A 
ATOM     20  N   UNL     1      16.737   1.103  -0.941  0.00  0.00    -0.350 N 
ATOM     21  H   UNL     1      16.322   0.818  -1.770  0.00  0.00    +0.166 HD
ENDBRANCH   4   9
BRANCH   1  24
ATOM     22  C   UNL     1       4.956   0.159   0.038  0.00  0.00    +0.261 C 
ATOM     23  O   UNL     1       4.947   1.373  -0.028  0.00  0.00    -0.269 OA
ATOM     24  N   UNL     1       6.127  -0.504   0.105  0.00  0.00    -0.231 N 
ATOM     25  H   UNL     1       6.134  -1.472   0.158  0.00  0.00    +0.173 HD
BRANCH  22  35
ATOM     26  C   UNL     1       0.004   1.406   0.228  0.00  0.00    +0.001 A 
ATOM     27  C   UNL     1       1.192   2.133   0.223  0.00  0.00    +0.001 A 
ATOM     28  C   UNL     1       2.398   1.502   0.164  0.00  0.00    +0.009 A 
ATOM     29  C   UNL     1       2.448   0.102   0.107  0.00  0.00    -0.006 A 
ATOM     30  C   UNL     1       1.241  -0.638   0.113  0.00  0.00    -0.017 A 
ATOM     31  C   UNL     1       0.015   0.046   0.174  0.00  0.00    +0.008 A 
ATOM     32  C   UNL     1       1.290  -2.042   0.057  0.00  0.00    +0.008 A 
ATOM     33  C   UNL     1       2.491  -2.683  -0.001  0.00  0.00    +0.001 A 
ATOM     34  C   UNL     1       3.685  -1.974  -0.007  0.00  0.00    +0.014 A 
ATOM     35  C   UNL     1       3.684  -0.588   0.045  0.00  0.00    +0.046 A 
ENDBRANCH  22  35
ENDBRANCH   1  24
BRANCH   3  36
ATOM     36  N   UNL     1       9.770   1.697   0.092  0.00  0.00    +0.063 N 
ATOM     37  O   UNL     1       9.841   2.352   1.106  0.00  0.00    -0.126 OA
ATOM     38  O   UNL     1       9.720   2.250  -0.982  0.00  0.00    -0.126 OA
ENDBRANCH   3  36
TORSDOF 4
