REMARK  Name = ZINC65381032
REMARK  5 active torsions:
REMARK  status: ('A' for Active; 'I' for Inactive)
REMARK    1  A    between atoms: C_1  and  C_2
REMARK    2  A    between atoms: C_2  and  C_3
REMARK    3  A    between atoms: C_6  and  C_10
REMARK    4  A    between atoms: C_7  and  C_9
REMARK    5  A    between atoms: C_18  and  C_22
REMARK                            x       y       z     vdW  Elec       q    Type
REMARK                         _______ _______ _______ _____ _____    ______ ____
ROOT
ATOM      1  C   UNL     1       4.119  -1.060   4.608  0.00  0.00    +0.081 C 
ATOM      2  C   UNL     1       4.612  -2.505   4.491  0.00  0.00    +0.110 C 
ATOM      3  C   UNL     1       6.105  -2.570   4.350  0.00  0.00    +0.219 C 
ATOM      4  O   UNL     1       6.707  -3.448   4.931  0.00  0.00    -0.275 OA
ATOM      5  N   UNL     1       6.804  -1.690   3.603  0.00  0.00    -0.269 N 
ATOM      6  C   UNL     1       6.127  -0.562   3.111  0.00  0.00    +0.151 A 
ATOM      7  C   UNL     1       4.835  -0.231   3.573  0.00  0.00    +0.029 A 
ATOM      8  C   UNL     1       4.435   0.902   2.922  0.00  0.00    +0.078 A 
ATOM      9  N   UNL     1       5.458   1.267   2.090  0.00  0.00    -0.274 N 
ATOM     10  N   UNL     1       6.497   0.334   2.244  0.00  0.00    -0.158 NA
ATOM     11  H   UNL     1       5.464   2.035   1.497  0.00  0.00    +0.189 HD
ATOM     12  H   UNL     1       7.744  -1.832   3.411  0.00  0.00    +0.156 HD
ENDROOT
BRANCH   1  16
ATOM     13  C   UNL     1       0.654  -1.259   3.461  0.00  0.00    +0.084 A 
ATOM     14  N   UNL     1       1.966  -1.525   3.284  0.00  0.00    -0.346 N 
ATOM     15  H   UNL     1       2.362  -1.995   2.533  0.00  0.00    +0.167 HD
ATOM     16  C   UNL     1       2.633  -1.008   4.362  0.00  0.00    +0.044 A 
ATOM     17  C   UNL     1       1.706  -0.444   5.160  0.00  0.00    +0.034 A 
ATOM     18  N   UNL     1       0.506  -0.608   4.582  0.00  0.00    -0.347 N 
ATOM     19  C   UNL     1       1.971   0.253   6.470  0.00  0.00    +0.065 C 
ATOM     20  H   UNL     1      -0.338  -0.294   4.942  0.00  0.00    +0.167 HD
BRANCH  13  22
ATOM     21  C   UNL     1      -0.667  -0.528   1.494  0.00  0.00    +0.012 C 
ATOM     22  C   UNL     1      -0.456  -1.646   2.518  0.00  0.00    +0.069 C 
ENDBRANCH  13  22
ENDBRANCH   1  16
BRANCH   8  23
ATOM     23  C   UNL     1       3.147   1.598   3.086  0.00  0.00    +0.037 A 
ATOM     24  C   UNL     1       2.869   2.752   3.772  0.00  0.00    +0.017 A 
ATOM     25  C   UNL     1       1.574   3.219   3.785  0.00  0.00    +0.008 A 
ATOM     26  C   UNL     1       0.614   2.525   3.121  0.00  0.00    +0.046 A 
ATOM     27  S   UNL     1       1.542   1.162   2.436  0.00  0.00    -0.095 S 
ENDBRANCH   8  23
TORSDOF 3
