REMARK  Name = ZINC11607948
REMARK  10 active torsions:
REMARK  status: ('A' for Active; 'I' for Inactive)
REMARK    1  A    between atoms: C_1  and  C_2
REMARK    2  A    between atoms: C_7  and  C_37
REMARK    3  A    between atoms: C_10  and  C_12
REMARK    4  A    between atoms: C_12  and  O_13
REMARK    5  A    between atoms: O_13  and  C_14
REMARK    6  A    between atoms: C_17  and  C_20
REMARK    7  A    between atoms: C_20  and  O_22
REMARK    8  A    between atoms: O_22  and  C_23
REMARK    9  A    between atoms: C_23  and  C_24
REMARK   10  A    between atoms: N_29  and  C_32
REMARK                            x       y       z     vdW  Elec       q    Type
REMARK                         _______ _______ _______ _____ _____    ______ ____
ROOT
ATOM      1  C   UNL     1      -6.293   4.876  -4.417  0.00  0.00    +0.340 C 
ATOM      2  O   UNL     1      -6.527   3.713  -4.682  0.00  0.00    -0.245 OA
ENDROOT
BRANCH   1   6
ATOM      3  C   UNL     1      -8.308   7.976  -6.503  0.00  0.00    +0.121 A 
ATOM      4  C   UNL     1      -8.577   6.646  -6.808  0.00  0.00    +0.046 A 
ATOM      5  C   UNL     1      -7.926   5.638  -6.134  0.00  0.00    +0.018 A 
ATOM      6  C   UNL     1      -6.993   5.952  -5.142  0.00  0.00    +0.059 A 
ATOM      7  C   UNL     1      -6.729   7.290  -4.835  0.00  0.00    +0.018 A 
ATOM      8  C   UNL     1      -7.381   8.293  -5.517  0.00  0.00    +0.046 A 
BRANCH   3   9
ATOM      9  O   UNL     1      -8.953   8.967  -7.169  0.00  0.00    -0.483 OA
BRANCH   9  10
ATOM     10  C   UNL     1      -8.629  10.310  -6.806  0.00  0.00    +0.324 C 
BRANCH  10  18
ATOM     11  C   UNL     1      -9.342  13.865  -5.380  0.00  0.00    +0.028 C 
ATOM     12  C   UNL     1      -8.461  13.128  -6.390  0.00  0.00    +0.073 C 
ATOM     13  C   UNL     1      -7.438  14.102  -6.994  0.00  0.00    +0.022 C 
ATOM     14  C   UNL     1      -8.176  15.173  -7.801  0.00  0.00    +0.004 C 
ATOM     15  C   UNL     1      -8.943  14.510  -8.948  0.00  0.00    +0.022 C 
ATOM     16  C   UNL     1      -9.979  13.541  -8.370  0.00  0.00    +0.073 C 
ATOM     17  N   UNL     1      -9.296  12.596  -7.476  0.00  0.00    -0.293 N 
ATOM     18  C   UNL     1      -9.437  11.266  -7.645  0.00  0.00    +0.254 C 
ATOM     19  O   UNL     1     -10.213  10.839  -8.473  0.00  0.00    -0.272 OA
ATOM     20  C   UNL     1     -10.654  12.773  -9.508  0.00  0.00    +0.028 C 
ENDBRANCH  10  18
ENDBRANCH   9  10
ENDBRANCH   3   9
ENDBRANCH   1   6
BRANCH   1  21
ATOM     21  O   UNL     1      -5.393   5.181  -3.462  0.00  0.00    -0.452 OA
BRANCH  21  22
ATOM     22  C   UNL     1      -4.742   4.070  -2.790  0.00  0.00    +0.328 C 
BRANCH  22  23
ATOM     23  C   UNL     1      -3.777   4.601  -1.761  0.00  0.00    +0.253 C 
ATOM     24  O   UNL     1      -3.651   5.797  -1.609  0.00  0.00    -0.272 OA
ATOM     25  N   UNL     1      -3.055   3.746  -1.010  0.00  0.00    -0.296 N 
ATOM     26  C   UNL     1      -2.108   4.242  -0.001  0.00  0.00    +0.127 C 
ATOM     27  C   UNL     1      -0.754   3.561  -0.227  0.00  0.00    +0.125 C 
ATOM     28  N   UNL     1      -0.940   2.104  -0.241  0.00  0.00    -0.314 N 
ATOM     29  C   UNL     1      -1.798   1.686  -1.357  0.00  0.00    +0.125 C 
ATOM     30  C   UNL     1      -3.194   2.291  -1.178  0.00  0.00    +0.127 C 
BRANCH  28  31
ATOM     31  C   UNL     1       0.284   1.446  -0.280  0.00  0.00    +0.099 A 
ATOM     32  C   UNL     1       0.320   0.055  -0.299  0.00  0.00    +0.042 A 
ATOM     33  C   UNL     1       1.544  -0.586  -0.344  0.00  0.00    +0.005 A 
ATOM     34  C   UNL     1       2.697   0.188  -0.369  0.00  0.00    +0.018 A 
ATOM     35  C   UNL     1       2.588   1.564  -0.348  0.00  0.00    +0.084 A 
ATOM     36  N   UNL     1       1.402   2.228  -0.304  0.00  0.00    -0.350 N 
ATOM     37  H   UNL     1       1.351   3.253  -0.289  0.00  0.00    +0.166 HD
ENDBRANCH  28  31
ENDBRANCH  22  23
ENDBRANCH  21  22
ENDBRANCH   1  21
TORSDOF 8
