REMARK  Name = ZINC63376182
REMARK  7 active torsions:
REMARK  status: ('A' for Active; 'I' for Inactive)
REMARK    1  A    between atoms: C_1  and  C_2
REMARK    2  A    between atoms: C_2  and  C_4
REMARK    3  A    between atoms: C_2  and  N_15
REMARK    4  A    between atoms: N_6  and  C_7
REMARK    5  A    between atoms: C_7  and  C_8
REMARK    6  A    between atoms: C_8  and  C_9
REMARK    7  A    between atoms: C_16  and  C_18
REMARK                            x       y       z     vdW  Elec       q    Type
REMARK                         _______ _______ _______ _____ _____    ______ ____
ROOT
ATOM      1  C   UNL     1      -3.465  -1.164  -1.134  0.00  0.00    +0.167 C 
ATOM      2  C   UNL     1      -3.488  -2.585  -0.537  0.00  0.00    +0.065 C 
ATOM      3  C   UNL     1      -2.984  -3.525  -1.605  0.00  0.00    -0.034 C 
ATOM      4  C   UNL     1      -2.017  -4.436  -1.574  0.00  0.00    -0.001 A 
ATOM      5  C   UNL     1      -1.164  -4.920  -0.476  0.00  0.00    +0.010 A 
ATOM      6  C   UNL     1      -0.245  -5.867  -0.805  0.00  0.00    +0.001 A 
ATOM      7  C   UNL     1      -0.092  -6.374  -2.099  0.00  0.00    +0.002 A 
ATOM      8  C   UNL     1      -0.839  -5.993  -3.165  0.00  0.00    +0.026 A 
ATOM      9  C   UNL     1      -1.844  -5.007  -2.943  0.00  0.00    +0.043 A 
ATOM     10  N   UNL     1      -2.701  -4.482  -3.767  0.00  0.00    -0.375 N 
ATOM     11  C   UNL     1      -3.556  -3.558  -3.018  0.00  0.00    +0.131 C 
ATOM     12  C   UNL     1      -3.454  -2.128  -3.560  0.00  0.00    +0.134 C 
ATOM     13  N   UNL     1      -3.979  -1.224  -2.508  0.00  0.00    -0.276 N 
ATOM     14  C   UNL     1      -4.992  -0.501  -3.020  0.00  0.00    +0.248 C 
ATOM     15  O   UNL     1      -5.582   0.384  -2.430  0.00  0.00    -0.270 OA
ATOM     16  C   UNL     1      -5.279  -0.932  -4.389  0.00  0.00    +0.042 A 
ATOM     17  C   UNL     1      -4.337  -1.946  -4.751  0.00  0.00    -0.013 A 
ATOM     18  C   UNL     1      -4.349  -2.556  -5.986  0.00  0.00    +0.006 A 
ATOM     19  C   UNL     1      -5.325  -2.139  -6.887  0.00  0.00    +0.000 A 
ATOM     20  C   UNL     1      -6.242  -1.159  -6.564  0.00  0.00    +0.001 A 
ATOM     21  C   UNL     1      -6.260  -0.512  -5.292  0.00  0.00    +0.013 A 
ATOM     22  H   UNL     1      -2.765  -4.669  -4.716  0.00  0.00    +0.160 HD
ENDROOT
BRANCH   1  24
ATOM     23  N   UNL     1      -1.372  -0.511   0.012  0.00  0.00    -0.303 N 
ATOM     24  C   UNL     1      -2.051  -0.643  -1.145  0.00  0.00    +0.234 C 
ATOM     25  O   UNL     1      -1.524  -0.341  -2.194  0.00  0.00    -0.274 OA
ATOM     26  H   UNL     1      -1.794  -0.752   0.852  0.00  0.00    +0.149 HD
BRANCH  23  28
ATOM     27  C   UNL     1      -0.019   1.526   0.010  0.00  0.00    +0.038 C 
ATOM     28  C   UNL     1       0.002  -0.004   0.002  0.00  0.00    +0.156 C 
BRANCH  28  29
ATOM     29  C   UNL     1       0.731  -0.503   1.223  0.00  0.00    +0.233 C 
ATOM     30  O   UNL     1       0.159  -1.213   2.023  0.00  0.00    -0.274 OA
ATOM     31  N   UNL     1       2.019  -0.161   1.426  0.00  0.00    -0.313 N 
ATOM     32  H   UNL     1       2.476   0.406   0.786  0.00  0.00    +0.149 HD
BRANCH  31  33
ATOM     33  C   UNL     1       2.727  -0.647   2.613  0.00  0.00    +0.109 C 
BRANCH  33  34
ATOM     34  C   UNL     1       4.163  -0.117   2.602  0.00  0.00    +0.054 C 
BRANCH  34  35
ATOM     35  C   UNL     1       4.891  -0.616   3.823  0.00  0.00    -0.046 A 
ATOM     36  C   UNL     1       4.868   0.121   4.992  0.00  0.00    +0.004 A 
ATOM     37  C   UNL     1       5.537  -0.336   6.111  0.00  0.00    +0.000 A 
ATOM     38  C   UNL     1       6.228  -1.532   6.063  0.00  0.00    +0.000 A 
ATOM     39  C   UNL     1       6.251  -2.271   4.894  0.00  0.00    +0.000 A 
ATOM     40  C   UNL     1       5.579  -1.815   3.775  0.00  0.00    +0.004 A 
ENDBRANCH  34  35
ENDBRANCH  33  34
ENDBRANCH  31  33
ENDBRANCH  28  29
ENDBRANCH  23  28
ENDBRANCH   1  24
TORSDOF 6
