REMARK  Name = ZINC37606579
REMARK  7 active torsions:
REMARK  status: ('A' for Active; 'I' for Inactive)
REMARK    1  A    between atoms: C_1  and  C_2
REMARK    2  A    between atoms: C_10  and  C_12
REMARK    3  A    between atoms: C_15  and  C_17
REMARK    4  A    between atoms: C_17  and  O_18
REMARK    5  A    between atoms: O_18  and  C_19
REMARK    6  A    between atoms: C_25  and  C_33
REMARK    7  A    between atoms: C_30  and  C_32
REMARK                            x       y       z     vdW  Elec       q    Type
REMARK                         _______ _______ _______ _____ _____    ______ ____
ROOT
ATOM      1  C   UNL     1      -0.602  -8.816  -2.608  0.00  0.00    +0.121 A 
ATOM      2  C   UNL     1       0.013  -9.728  -1.761  0.00  0.00    +0.046 A 
ATOM      3  C   UNL     1       0.642 -10.834  -2.288  0.00  0.00    +0.007 A 
ATOM      4  C   UNL     1       0.665 -11.050  -3.662  0.00  0.00    -0.040 A 
ATOM      5  C   UNL     1       0.047 -10.150  -4.502  0.00  0.00    -0.016 A 
ATOM      6  C   UNL     1      -0.586  -9.034  -3.975  0.00  0.00    +0.051 A 
ATOM      7  C   UNL     1       0.010 -10.338  -5.998  0.00  0.00    +0.137 C 
ATOM      8  N   UNL     1       0.935 -11.409  -6.385  0.00  0.00    -0.290 N 
ATOM      9  C   UNL     1       0.925 -12.637  -5.574  0.00  0.00    +0.113 C 
ATOM     10  C   UNL     1       1.386 -12.274  -4.163  0.00  0.00    +0.054 C 
ATOM     11  C   UNL     1       1.762 -11.273  -7.441  0.00  0.00    +0.213 C 
ATOM     12  O   UNL     1       1.692 -10.287  -8.143  0.00  0.00    -0.276 OA
ATOM     13  C   UNL     1       2.773 -12.347  -7.748  0.00  0.00    +0.109 C 
ENDROOT
BRANCH   7  14
ATOM     14  C   UNL     1       0.417  -9.055  -6.675  0.00  0.00    -0.022 A 
ATOM     15  C   UNL     1       1.724  -8.612  -6.585  0.00  0.00    +0.008 A 
ATOM     16  C   UNL     1       2.099  -7.436  -7.206  0.00  0.00    +0.038 A 
ATOM     17  C   UNL     1       1.166  -6.701  -7.918  0.00  0.00    +0.123 A 
ATOM     18  C   UNL     1      -0.142  -7.146  -8.007  0.00  0.00    +0.038 A 
ATOM     19  C   UNL     1      -0.514  -8.325  -7.390  0.00  0.00    +0.008 A 
ATOM     20  F   UNL     1       1.531  -5.551  -8.525  0.00  0.00    -0.205 F 
ENDBRANCH   7  14
BRANCH   1  21
ATOM     21  O   UNL     1      -1.221  -7.719  -2.098  0.00  0.00    -0.484 OA
BRANCH  21  22
ATOM     22  C   UNL     1      -1.196  -7.561  -0.678  0.00  0.00    +0.303 C 
BRANCH  22  26
ATOM     23  C   UNL     1      -2.323  -4.193   0.172  0.00  0.00    +0.190 A 
ATOM     24  C   UNL     1      -3.510  -4.860   0.280  0.00  0.00    +0.055 A 
ATOM     25  C   UNL     1      -3.245  -6.205  -0.023  0.00  0.00    +0.049 A 
ATOM     26  C   UNL     1      -1.926  -6.299  -0.299  0.00  0.00    +0.143 A 
ATOM     27  O   UNL     1      -1.375  -5.083  -0.186  0.00  0.00    -0.452 OA
BRANCH  23  37
ATOM     28  C   UNL     1       3.296  -1.350  -2.200  0.00  0.00    +0.109 C 
ATOM     29  C   UNL     1       2.139  -0.485  -1.771  0.00  0.00    +0.213 C 
ATOM     30  O   UNL     1       2.284   0.715  -1.666  0.00  0.00    -0.276 OA
ATOM     31  N   UNL     1       0.943  -1.045  -1.503  0.00  0.00    -0.299 N 
ATOM     32  C   UNL     1       0.753  -2.497  -1.619  0.00  0.00    +0.126 C 
ATOM     33  C   UNL     1       0.218  -3.030  -0.285  0.00  0.00    +0.127 C 
ATOM     34  N   UNL     1      -0.921  -2.199   0.130  0.00  0.00    -0.292 N 
ATOM     35  C   UNL     1      -0.732  -0.746   0.246  0.00  0.00    +0.127 C 
ATOM     36  C   UNL     1      -0.195  -0.214  -1.083  0.00  0.00    +0.126 C 
ATOM     37  C   UNL     1      -2.117  -2.759   0.398  0.00  0.00    +0.282 C 
ATOM     38  O   UNL     1      -3.027  -2.074   0.828  0.00  0.00    -0.267 OA
ENDBRANCH  23  37
ENDBRANCH  22  26
ENDBRANCH  21  22
ENDBRANCH   1  21
TORSDOF 5
