REMARK  Name = ZINC20477672
REMARK  8 active torsions:
REMARK  status: ('A' for Active; 'I' for Inactive)
REMARK    1  A    between atoms: C_1  and  C_2
REMARK    2  A    between atoms: C_3  and  C_40
REMARK    3  A    between atoms: C_5  and  N_11
REMARK    4  A    between atoms: C_6  and  C_7
REMARK    5  A    between atoms: C_7  and  O_9
REMARK    6  A    between atoms: O_9  and  C_10
REMARK    7  A    between atoms: C_27  and  C_33
REMARK    8  A    between atoms: C_33  and  C_35
REMARK                            x       y       z     vdW  Elec       q    Type
REMARK                         _______ _______ _______ _____ _____    ______ ____
ROOT
ATOM      1  N   UNL     1       0.054  -3.119   2.085  0.00  0.00    -0.203 N 
ATOM      2  C   UNL     1      -0.022  -4.462   1.848  0.00  0.00    +0.233 C 
ATOM      3  O   UNL     1       0.165  -5.029   0.793  0.00  0.00    -0.274 OA
ATOM      4  C   UNL     1      -0.386  -5.093   3.166  0.00  0.00    +0.115 C 
ATOM      5  C   UNL     1       0.314  -6.366   3.615  0.00  0.00    +0.117 C 
ATOM      6  C   UNL     1      -0.459  -7.609   3.326  0.00  0.00    -0.019 A 
ATOM      7  C   UNL     1      -1.083  -7.784   2.107  0.00  0.00    +0.006 A 
ATOM      8  C   UNL     1      -1.783  -8.945   1.838  0.00  0.00    +0.000 A 
ATOM      9  C   UNL     1      -1.863  -9.948   2.789  0.00  0.00    +0.001 A 
ATOM     10  C   UNL     1      -1.252  -9.788   4.014  0.00  0.00    +0.008 A 
ATOM     11  C   UNL     1      -0.551  -8.613   4.298  0.00  0.00    -0.019 A 
ATOM     12  C   UNL     1       0.060  -8.429   5.627  0.00  0.00    +0.023 C 
ATOM     13  C   UNL     1       0.556  -7.233   5.982  0.00  0.00    +0.072 C 
ATOM     14  N   UNL     1       0.461  -6.196   5.081  0.00  0.00    -0.317 N 
ATOM     15  C   UNL     1       0.472  -4.738   5.380  0.00  0.00    +0.158 C 
ATOM     16  C   UNL     1       0.451  -4.083   4.054  0.00  0.00    +0.118 C 
ATOM     17  C   UNL     1       0.156  -2.821   3.422  0.00  0.00    +0.233 C 
ATOM     18  O   UNL     1       0.025  -1.739   3.952  0.00  0.00    -0.274 OA
ENDROOT
BRANCH   1  23
ATOM     19  C   UNL     1      -1.907   0.140  -1.262  0.00  0.00    +0.045 C 
ATOM     20  C   UNL     1      -0.800  -0.584  -0.539  0.00  0.00    -0.025 A 
ATOM     21  C   UNL     1       0.498  -0.360  -0.813  0.00  0.00    -0.008 A 
ATOM     22  S   UNL     1       1.347  -1.454   0.305  0.00  0.00    -0.077 S 
ATOM     23  C   UNL     1       0.037  -2.158   1.081  0.00  0.00    +0.096 A 
ATOM     24  C   UNL     1      -1.067  -1.557   0.495  0.00  0.00    +0.091 A 
ATOM     25  C   UNL     1       1.091   0.588  -1.823  0.00  0.00    +0.052 C 
BRANCH  24  26
ATOM     26  C   UNL     1      -2.434  -1.896   0.900  0.00  0.00    +0.342 C 
ATOM     27  O   UNL     1      -3.027  -2.800   0.343  0.00  0.00    -0.245 OA
BRANCH  26  28
ATOM     28  O   UNL     1      -3.035  -1.205   1.890  0.00  0.00    -0.464 OA
ATOM     29  C   UNL     1      -4.368  -1.589   2.232  0.00  0.00    +0.280 C 
ENDBRANCH  26  28
ENDBRANCH  24  26
ENDBRANCH   1  23
BRANCH  15  30
ATOM     30  C   UNL     1      -0.762  -4.347   6.152  0.00  0.00    +0.191 C 
ATOM     31  O   UNL     1      -1.699  -5.115   6.228  0.00  0.00    -0.289 OA
BRANCH  30  32
ATOM     32  C   UNL     1      -0.828  -3.087   6.786  0.00  0.00    +0.056 A 
ATOM     33  C   UNL     1      -1.860  -2.539   7.543  0.00  0.00    +0.019 A 
ATOM     34  C   UNL     1      -1.631  -1.279   8.036  0.00  0.00    +0.008 A 
ATOM     35  C   UNL     1      -0.451  -0.667   7.761  0.00  0.00    +0.046 A 
ATOM     36  S   UNL     1       0.390  -1.786   6.832  0.00  0.00    -0.094 S 
ENDBRANCH  30  32
ENDBRANCH  15  30
TORSDOF 5
