REMARK  Name = ZINC16973529
REMARK  24 active torsions:
REMARK  status: ('A' for Active; 'I' for Inactive)
REMARK    1  A    between atoms: C_1  and  C_2
REMARK    2  A    between atoms: C_2  and  C_3
REMARK    3  A    between atoms: C_2  and  C_4
REMARK    4  A    between atoms: C_2  and  N_5
REMARK    5  A    between atoms: N_5  and  C_6
REMARK    6  A    between atoms: C_6  and  C_7
REMARK    7  A    between atoms: C_7  and  C_9
REMARK    8  A    between atoms: C_7  and  C_32
REMARK    9  A    between atoms: C_9  and  N_10
REMARK   10  A    between atoms: N_10  and  C_11
REMARK   11  A    between atoms: N_10  and  C_28
REMARK   12  A    between atoms: C_11  and  C_12
REMARK   13  A    between atoms: C_12  and  C_14
REMARK   14  A    between atoms: C_12  and  C_20
REMARK   15  A    between atoms: C_14  and  N_15
REMARK   16  A    between atoms: N_15  and  C_16
REMARK   17  A    between atoms: C_16  and  C_17
REMARK   18  A    between atoms: C_16  and  C_18
REMARK   19  A    between atoms: C_16  and  C_19
REMARK   20  A    between atoms: C_20  and  C_22
REMARK   21  A    between atoms: C_28  and  C_29
REMARK   22  A    between atoms: C_28  and  C_30
REMARK   23  A    between atoms: C_28  and  C_31
REMARK   24  A    between atoms: C_32  and  C_34
REMARK                            x       y       z     vdW  Elec       q    Type
REMARK                         _______ _______ _______ _____ _____    ______ ____
ROOT
ATOM      1  N   UNL     1      -6.495   0.784   0.138  0.00  0.00    -0.296 NA
ENDROOT
BRANCH   1   2
ATOM      2  C   UNL     1      -5.948   1.917   0.897  0.00  0.00    +0.014 C 
ATOM      3  C   UNL     1      -5.018   2.732  -0.004  0.00  0.00    +0.027 C 
ATOM      4  C   UNL     1      -7.095   2.806   1.383  0.00  0.00    +0.027 C 
ATOM      5  C   UNL     1      -5.163   1.394   2.101  0.00  0.00    +0.027 C 
ENDBRANCH   1   2
BRANCH   1   6
ATOM      6  C   UNL     1      -7.548   0.100   0.901  0.00  0.00    +0.094 C 
BRANCH   6   7
ATOM      7  C   UNL     1      -8.885   0.808   0.674  0.00  0.00    +0.057 C 
BRANCH   7   8
ATOM      8  C   UNL     1      -9.946   0.163   1.527  0.00  0.00    +0.166 C 
ATOM      9  O   UNL     1      -9.822  -0.990   1.881  0.00  0.00    -0.292 OA
BRANCH   8  10
ATOM     10  C   UNL     1     -11.134   0.933   1.931  0.00  0.00    +0.018 A 
ATOM     11  C   UNL     1     -11.279   2.265   1.529  0.00  0.00    +0.011 A 
ATOM     12  C   UNL     1     -12.397   2.977   1.906  0.00  0.00    +0.001 A 
ATOM     13  C   UNL     1     -13.370   2.381   2.690  0.00  0.00    +0.000 A 
ATOM     14  C   UNL     1     -13.231   1.066   3.096  0.00  0.00    +0.001 A 
ATOM     15  C   UNL     1     -12.121   0.338   2.723  0.00  0.00    +0.011 A 
ENDBRANCH   8  10
ENDBRANCH   7   8
BRANCH   7  16
ATOM     16  C   UNL     1      -9.278   0.695  -0.801  0.00  0.00    -0.069 C 
BRANCH  16  17
ATOM     17  N   UNL     1     -10.516   1.450  -1.037  0.00  0.00    +0.383 N 
ATOM     18  H   UNL     1     -10.315   2.518  -0.870  0.00  0.00    -0.085 HD
ATOM     19  H   UNL     1     -11.280   1.105  -0.325  0.00  0.00    -0.085 HD
BRANCH  17  21
ATOM     20  C   UNL     1     -11.190  -0.243  -2.672  0.00  0.00    -0.011 C 
ATOM     21  C   UNL     1     -10.999   1.252  -2.410  0.00  0.00    -0.077 C 
ATOM     22  C   UNL     1     -12.336   1.975  -2.589  0.00  0.00    -0.011 C 
ATOM     23  C   UNL     1      -9.977   1.817  -3.397  0.00  0.00    -0.011 C 
ENDBRANCH  17  21
ENDBRANCH  16  17
ENDBRANCH   7  16
ENDBRANCH   6   7
ENDBRANCH   1   6
BRANCH   1  24
ATOM     24  C   UNL     1      -5.432  -0.152  -0.249  0.00  0.00    +0.094 C 
BRANCH  24  25
ATOM     25  C   UNL     1      -5.911  -1.011  -1.421  0.00  0.00    +0.057 C 
BRANCH  25  26
ATOM     26  C   UNL     1      -6.122  -0.138  -2.631  0.00  0.00    +0.166 C 
ATOM     27  O   UNL     1      -5.451   0.861  -2.782  0.00  0.00    -0.292 OA
BRANCH  26  28
ATOM     28  C   UNL     1      -7.141  -0.498  -3.629  0.00  0.00    +0.018 A 
ATOM     29  C   UNL     1      -7.340   0.310  -4.753  0.00  0.00    +0.011 A 
ATOM     30  C   UNL     1      -8.294  -0.036  -5.687  0.00  0.00    +0.001 A 
ATOM     31  C   UNL     1      -9.057  -1.177  -5.511  0.00  0.00    +0.000 A 
ATOM     32  C   UNL     1      -8.870  -1.979  -4.399  0.00  0.00    +0.001 A 
ATOM     33  C   UNL     1      -7.920  -1.647  -3.457  0.00  0.00    +0.011 A 
ENDBRANCH  26  28
ENDBRANCH  25  26
BRANCH  25  34
ATOM     34  C   UNL     1      -4.858  -2.075  -1.737  0.00  0.00    -0.069 C 
BRANCH  34  35
ATOM     35  N   UNL     1      -4.763  -3.019  -0.615  0.00  0.00    +0.383 N 
ATOM     36  H   UNL     1      -4.502  -2.472   0.303  0.00  0.00    -0.085 HD
ATOM     37  H   UNL     1      -5.730  -3.525  -0.478  0.00  0.00    -0.085 HD
BRANCH  35  38
ATOM     38  C   UNL     1      -3.732  -4.035  -0.867  0.00  0.00    -0.077 C 
ATOM     39  C   UNL     1      -2.389  -3.346  -1.120  0.00  0.00    -0.011 C 
ATOM     40  C   UNL     1      -3.613  -4.954   0.350  0.00  0.00    -0.011 C 
ATOM     41  C   UNL     1      -4.120  -4.861  -2.095  0.00  0.00    -0.011 C 
ENDBRANCH  35  38
ENDBRANCH  34  35
ENDBRANCH  25  34
ENDBRANCH  24  25
ENDBRANCH   1  24
TORSDOF 15
