REMARK  Name = ZINC47239542
REMARK  6 active torsions:
REMARK  status: ('A' for Active; 'I' for Inactive)
REMARK    1  A    between atoms: C_1  and  C_2
REMARK    2  A    between atoms: C_3  and  N_9
REMARK    3  A    between atoms: C_10  and  C_12
REMARK    4  A    between atoms: C_12  and  C_13
REMARK    5  A    between atoms: C_13  and  N_14
REMARK    6  A    between atoms: C_17  and  N_23
REMARK                            x       y       z     vdW  Elec       q    Type
REMARK                         _______ _______ _______ _____ _____    ______ ____
ROOT
ATOM      1  C   UNL     1       0.192   0.111  -4.876  0.00  0.00    +0.119 C 
ENDROOT
BRANCH   1   3
ATOM      2  N   UNL     1      -0.010   0.011  -2.413  0.00  0.00    -0.285 N 
ATOM      3  C   UNL     1       0.095  -0.653  -3.581  0.00  0.00    +0.219 C 
ATOM      4  O   UNL     1       0.112  -1.866  -3.590  0.00  0.00    -0.275 OA
ATOM      5  H   UNL     1      -0.104   0.977  -2.411  0.00  0.00    +0.155 HD
BRANCH   2   8
ATOM      6  C   UNL     1      -1.263   1.190  -0.146  0.00  0.00    +0.047 C 
ATOM      7  C   UNL     1      -0.583  -0.153  -0.073  0.00  0.00    -0.011 A 
ATOM      8  C   UNL     1       0.017  -0.692  -1.204  0.00  0.00    +0.038 A 
ATOM      9  C   UNL     1       0.643  -1.929  -1.132  0.00  0.00    +0.023 A 
ATOM     10  C   UNL     1       0.667  -2.621   0.064  0.00  0.00    +0.003 A 
ATOM     11  C   UNL     1       0.069  -2.084   1.188  0.00  0.00    +0.020 A 
ATOM     12  C   UNL     1      -0.550  -0.848   1.122  0.00  0.00    +0.046 A 
ATOM     13 CL   UNL     1      -1.293  -0.173   2.538  0.00  0.00    -0.083 Cl
ENDBRANCH   2   8
ENDBRANCH   1   3
BRANCH   1  14
ATOM     14  C   UNL     1       0.301  -0.874  -6.042  0.00  0.00    +0.153 C 
BRANCH  14  15
ATOM     15  N   UNL     1       0.395  -0.131  -7.302  0.00  0.00    -0.263 N 
ATOM     16  C   UNL     1      -0.666   0.262  -8.074  0.00  0.00    +0.071 A 
ATOM     17  C   UNL     1      -2.047   0.118  -7.961  0.00  0.00    +0.060 A 
ATOM     18  C   UNL     1      -2.866   0.636  -8.924  0.00  0.00    +0.128 A 
ATOM     19  C   UNL     1      -2.338   1.308 -10.020  0.00  0.00    +0.033 A 
ATOM     20  C   UNL     1      -0.990   1.464 -10.158  0.00  0.00    +0.014 A 
ATOM     21  C   UNL     1      -0.130   0.942  -9.184  0.00  0.00    +0.020 A 
ATOM     22  C   UNL     1       1.319   0.925  -9.015  0.00  0.00    +0.143 A 
ATOM     23  N   UNL     1       1.583   0.296  -7.905  0.00  0.00    -0.178 NA
BRANCH  18  24
ATOM     24  N   UNL     1      -4.332   0.479  -8.799  0.00  0.00    +0.056 N 
ATOM     25  O   UNL     1      -4.798  -0.104  -7.848  0.00  0.00    -0.126 OA
ATOM     26  O   UNL     1      -5.063   0.935  -9.647  0.00  0.00    -0.126 OA
ENDBRANCH  18  24
ENDBRANCH  14  15
ENDBRANCH   1  14
TORSDOF 5
