REMARK  Name = ZINC13500522
REMARK  12 active torsions:
REMARK  status: ('A' for Active; 'I' for Inactive)
REMARK    1  A    between atoms: C_1  and  C_2
REMARK    2  A    between atoms: C_9  and  C_14
REMARK    3  A    between atoms: C_14  and  N_66
REMARK    4  A    between atoms: C_15  and  C_16
REMARK    5  A    between atoms: C_15  and  N_66
REMARK    6  A    between atoms: C_16  and  O_17
REMARK    7  A    between atoms: C_18  and  C_20
REMARK    8  A    between atoms: C_18  and  C_31
REMARK    9  A    between atoms: C_18  and  N_66
REMARK   10  A    between atoms: N_24  and  C_25
REMARK   11  A    between atoms: C_31  and  C_32
REMARK   12  A    between atoms: C_31  and  C_33
REMARK                            x       y       z     vdW  Elec       q    Type
REMARK                         _______ _______ _______ _____ _____    ______ ____
ROOT
ATOM      1  N   UNL     1      -0.375   1.832   0.637  0.00  0.00    +0.391 N 
ATOM      2  H   UNL     1      -0.281   2.842   0.792  0.00  0.00    -0.080 HD
ENDROOT
BRANCH   1   3
ATOM      3  C   UNL     1      -1.767   1.534   0.239  0.00  0.00    -0.036 C 
BRANCH   3  12
ATOM      4  C   UNL     1      -5.974   7.484   1.823  0.00  0.00    +0.044 C 
ATOM      5  C   UNL     1      -5.425   6.129   2.187  0.00  0.00    -0.050 A 
ATOM      6  C   UNL     1      -5.779   5.544   3.395  0.00  0.00    +0.005 A 
ATOM      7  C   UNL     1      -5.290   4.305   3.747  0.00  0.00    +0.026 A 
ATOM      8  C   UNL     1      -4.429   3.632   2.885  0.00  0.00    +0.049 A 
ATOM      9  C   UNL     1      -4.072   4.229   1.661  0.00  0.00    -0.001 A 
ATOM     10  C   UNL     1      -4.582   5.487   1.324  0.00  0.00    +0.013 A 
ATOM     11  C   UNL     1      -3.161   3.515   0.764  0.00  0.00    +0.017 A 
ATOM     12  C   UNL     1      -2.702   2.297   1.142  0.00  0.00    +0.001 A 
ATOM     13  C   UNL     1      -3.091   1.743   2.380  0.00  0.00    +0.251 A 
ATOM     14  O   UNL     1      -2.663   0.649   2.702  0.00  0.00    -0.268 OA
ATOM     15  N   UNL     1      -3.923   2.393   3.213  0.00  0.00    -0.322 N 
ATOM     16  H   UNL     1      -4.170   1.983   4.057  0.00  0.00    +0.169 HD
ENDBRANCH   3  12
ENDBRANCH   1   3
BRANCH   1  17
ATOM     17  C   UNL     1      -0.045   1.121   1.891  0.00  0.00    -0.049 C 
BRANCH  17  18
ATOM     18  C   UNL     1      -0.156  -0.393   1.694  0.00  0.00    +0.137 C 
BRANCH  18  19
ATOM     19  O   UNL     1       0.880  -0.836   0.815  0.00  0.00    -0.397 OA
ATOM     20  H   UNL     1       0.826  -1.773   0.584  0.00  0.00    +0.209 HD
ENDBRANCH  18  19
ENDBRANCH  17  18
ENDBRANCH   1  17
BRANCH   1  21
ATOM     21  C   UNL     1       0.556   1.422  -0.435  0.00  0.00    +0.006 C 
BRANCH  21  22
ATOM     22  C   UNL     1       0.293   2.265  -1.657  0.00  0.00    +0.139 A 
ATOM     23  N   UNL     1       0.135   3.566  -1.691  0.00  0.00    -0.115 NA
ATOM     24  N   UNL     1      -0.068   3.910  -2.916  0.00  0.00    -0.023 NA
ATOM     25  N   UNL     1      -0.051   2.862  -3.663  0.00  0.00    -0.044 NA
ATOM     26  N   UNL     1       0.169   1.827  -2.924  0.00  0.00    -0.228 N 
BRANCH  26  27
ATOM     27  C   UNL     1       0.265   0.438  -3.378  0.00  0.00    +0.111 C 
ATOM     28  C   UNL     1       1.411   0.308  -4.384  0.00  0.00    +0.027 C 
ATOM     29  C   UNL     1       1.511  -1.143  -4.858  0.00  0.00    +0.002 C 
ATOM     30  C   UNL     1       0.197  -1.553  -5.526  0.00  0.00    +0.000 C 
ATOM     31  C   UNL     1      -0.948  -1.424  -4.520  0.00  0.00    +0.002 C 
ATOM     32  C   UNL     1      -1.049   0.027  -4.045  0.00  0.00    +0.027 C 
ENDBRANCH  26  27
ENDBRANCH  21  22
BRANCH  21  33
ATOM     33  C   UNL     1       1.993   1.647   0.039  0.00  0.00    -0.024 C 
ATOM     34  C   UNL     1       2.967   1.182  -1.046  0.00  0.00    +0.006 C 
ATOM     35  C   UNL     1       2.212   3.135   0.318  0.00  0.00    +0.006 C 
ENDBRANCH  21  33
ENDBRANCH   1  21
TORSDOF 9
