REMARK  Name = ZINC30824893
REMARK  5 active torsions:
REMARK  status: ('A' for Active; 'I' for Inactive)
REMARK    1  A    between atoms: C_3  and  C_8
REMARK    2  A    between atoms: C_11  and  C_13
REMARK    3  A    between atoms: C_13  and  N_14
REMARK    4  A    between atoms: N_14  and  C_15
REMARK    5  A    between atoms: C_15  and  C_16
REMARK                            x       y       z     vdW  Elec       q    Type
REMARK                         _______ _______ _______ _____ _____    ______ ____
ROOT
ATOM      1  C   UNL     1       7.414  -1.190   1.764  0.00  0.00    +0.017 C 
ENDROOT
BRANCH   1   5
ATOM      2  C   UNL     1       9.536  -2.809  -0.686  0.00  0.00    +0.248 A 
ATOM      3  N   UNL     1       9.725  -1.536  -0.942  0.00  0.00    -0.107 NA
ATOM      4  N   UNL     1       9.018  -0.831  -0.131  0.00  0.00    -0.114 NA
ATOM      5  C   UNL     1       8.356  -1.619   0.669  0.00  0.00    +0.201 A 
ATOM      6  O   UNL     1       8.669  -2.885   0.343  0.00  0.00    -0.422 OA
BRANCH   2   9
ATOM      7  C   UNL     1      10.455  -6.316  -1.670  0.00  0.00    +0.004 A 
ATOM      8  C   UNL     1       9.872  -5.256  -1.005  0.00  0.00    +0.013 A 
ATOM      9  C   UNL     1      10.163  -3.947  -1.391  0.00  0.00    +0.041 A 
ATOM     10  C   UNL     1      11.052  -3.717  -2.442  0.00  0.00    +0.051 A 
ATOM     11  C   UNL     1      11.634  -4.786  -3.096  0.00  0.00    +0.124 A 
ATOM     12  C   UNL     1      11.336  -6.083  -2.711  0.00  0.00    +0.038 A 
ATOM     13  F   UNL     1      12.495  -4.566  -4.114  0.00  0.00    -0.205 F 
ENDBRANCH   2   9
ENDBRANCH   1   5
BRANCH   1  14
ATOM     14  N   UNL     1       6.054  -1.074   1.223  0.00  0.00    +0.388 N 
ATOM     15  H   UNL     1       6.043  -0.327   0.416  0.00  0.00    -0.085 HD
ATOM     16  H   UNL     1       5.733  -2.048   0.826  0.00  0.00    -0.085 HD
BRANCH  14  17
ATOM     17  C   UNL     1       5.107  -0.655   2.265  0.00  0.00    -0.046 C 
BRANCH  17  18
ATOM     18  C   UNL     1       3.725  -0.548   1.674  0.00  0.00    -0.061 A 
ATOM     19  C   UNL     1       2.885  -1.646   1.677  0.00  0.00    +0.005 A 
ATOM     20  C   UNL     1       1.617  -1.553   1.135  0.00  0.00    +0.050 A 
ATOM     21  C   UNL     1       1.183  -0.356   0.589  0.00  0.00    +0.166 A 
ATOM     22  C   UNL     1       2.028   0.751   0.586  0.00  0.00    +0.166 A 
ATOM     23  C   UNL     1       3.298   0.650   1.131  0.00  0.00    +0.051 A 
ATOM     24  O   UNL     1       1.376   1.797  -0.001  0.00  0.00    -0.453 OA
ATOM     25  C   UNL     1      -0.018   1.436   0.010  0.00  0.00    +0.466 C 
ATOM     26  O   UNL     1       0.002  -0.004   0.002  0.00  0.00    -0.453 OA
ENDBRANCH  17  18
ENDBRANCH  14  17
ENDBRANCH   1  14
TORSDOF 5
