REMARK  Name = ZINC46542324
REMARK  8 active torsions:
REMARK  status: ('A' for Active; 'I' for Inactive)
REMARK    1  A    between atoms: C_1  and  C_2
REMARK    2  A    between atoms: C_2  and  C_3
REMARK    3  A    between atoms: C_6  and  C_9
REMARK    4  A    between atoms: C_9  and  N_10
REMARK    5  A    between atoms: C_11  and  N_15
REMARK    6  A    between atoms: C_16  and  C_18
REMARK    7  A    between atoms: C_18  and  N_19
REMARK    8  A    between atoms: C_25  and  C_28
REMARK                            x       y       z     vdW  Elec       q    Type
REMARK                         _______ _______ _______ _____ _____    ______ ____
ROOT
ATOM      1  N   UNL     1      -6.565  -0.590   2.477  0.00  0.00    -0.269 N 
ATOM      2  C   UNL     1      -7.133   0.108   3.480  0.00  0.00    +0.236 C 
ATOM      3  O   UNL     1      -7.893   1.020   3.230  0.00  0.00    -0.274 OA
ATOM      4  H   UNL     1      -5.957  -1.319   2.677  0.00  0.00    +0.156 HD
ENDROOT
BRANCH   1   6
ATOM      5  N   UNL     1      -6.356  -0.879   0.052  0.00  0.00    -0.246 N 
ATOM      6  C   UNL     1      -6.852  -0.265   1.151  0.00  0.00    +0.124 A 
ATOM      7  C   UNL     1      -7.682   0.727   0.728  0.00  0.00    +0.065 A 
ATOM      8  C   UNL     1      -7.688   0.713  -0.669  0.00  0.00    +0.136 A 
ATOM      9  N   UNL     1      -6.892  -0.243  -1.075  0.00  0.00    -0.178 NA
BRANCH   5  10
ATOM     10  C   UNL     1      -5.419  -2.005   0.043  0.00  0.00    +0.180 C 
BRANCH  10  14
ATOM     11  C   UNL     1      -1.412  -0.526   0.013  0.00  0.00    -0.048 A 
ATOM     12  C   UNL     1      -2.051  -0.766   1.215  0.00  0.00    +0.004 A 
ATOM     13  C   UNL     1      -3.348  -1.244   1.225  0.00  0.00    +0.006 A 
ATOM     14  C   UNL     1      -4.006  -1.482   0.032  0.00  0.00    -0.026 A 
ATOM     15  C   UNL     1      -3.367  -1.241  -1.170  0.00  0.00    +0.006 A 
ATOM     16  C   UNL     1      -2.072  -0.758  -1.179  0.00  0.00    +0.004 A 
BRANCH  11  18
ATOM     17  C   UNL     1      -0.019   1.526   0.010  0.00  0.00    +0.009 C 
ATOM     18  C   UNL     1       0.002  -0.004   0.002  0.00  0.00    +0.032 C 
ENDBRANCH  11  18
ENDBRANCH  10  14
ENDBRANCH   5  10
ENDBRANCH   1   6
BRANCH   2  19
ATOM     19  C   UNL     1      -6.823  -0.243   4.912  0.00  0.00    +0.214 C 
BRANCH  19  20
ATOM     20  N   UNL     1      -7.558   0.655   5.806  0.00  0.00    -0.215 N 
ATOM     21  C   UNL     1      -7.082   1.836   6.253  0.00  0.00    +0.247 C 
ATOM     22  O   UNL     1      -6.007   2.336   6.003  0.00  0.00    -0.273 OA
ATOM     23  C   UNL     1      -8.173   2.404   7.132  0.00  0.00    +0.113 C 
ATOM     24  C   UNL     1      -8.670   3.732   6.572  0.00  0.00    +0.035 C 
ATOM     25  C   UNL     1      -9.794   4.274   7.460  0.00  0.00    +0.006 C 
ATOM     26  C   UNL     1      -9.270   4.466   8.884  0.00  0.00    -0.014 C 
ATOM     27  C   UNL     1      -8.797   3.121   9.441  0.00  0.00    +0.006 C 
ATOM     28  C   UNL     1      -7.669   2.575   8.561  0.00  0.00    +0.035 C 
ATOM     29  C   UNL     1     -10.389   5.018   9.769  0.00  0.00    +0.007 C 
ATOM     30  N   UNL     1      -9.236   1.392   7.079  0.00  0.00    -0.285 N 
ATOM     31  C   UNL     1      -8.787   0.410   6.275  0.00  0.00    +0.310 C 
ATOM     32  O   UNL     1      -9.426  -0.590   6.008  0.00  0.00    -0.252 OA
ATOM     33  H   UNL     1     -10.094   1.427   7.531  0.00  0.00    +0.151 HD
ENDBRANCH  19  20
ENDBRANCH   2  19
TORSDOF 6
