REMARK  Name = ZINC62959543
REMARK  4 active torsions:
REMARK  status: ('A' for Active; 'I' for Inactive)
REMARK    1  A    between atoms: C_1  and  C_2
REMARK    2  A    between atoms: C_3  and  C_21
REMARK    3  A    between atoms: C_7  and  C_8
REMARK    4  A    between atoms: C_8  and  N_10
REMARK                            x       y       z     vdW  Elec       q    Type
REMARK                         _______ _______ _______ _____ _____    ______ ____
ROOT
ATOM      1  C   UNL     1      -2.381  -0.674  -1.418  0.00  0.00    +0.046 C 
ATOM      2  C   UNL     1      -1.125  -1.048  -0.674  0.00  0.00    -0.015 A 
ATOM      3  C   UNL     1       0.125  -0.721  -1.173  0.00  0.00    +0.064 A 
ATOM      4  N   UNL     1       1.213  -1.057  -0.509  0.00  0.00    -0.152 NA
ATOM      5  N   UNL     1       1.176  -1.689   0.607  0.00  0.00    -0.133 NA
ATOM      6  C   UNL     1       0.035  -2.051   1.176  0.00  0.00    +0.154 A 
ATOM      7  C   UNL     1      -1.184  -1.733   0.546  0.00  0.00    +0.049 A 
ATOM      8  N   UNL     1       0.041  -2.732   2.381  0.00  0.00    -0.313 N 
ATOM      9  C   UNL     1      -0.030  -2.001   3.653  0.00  0.00    +0.107 C 
ATOM     10  C   UNL     1       1.151  -2.430   4.532  0.00  0.00    +0.026 C 
ATOM     11  C   UNL     1       1.161  -3.948   4.663  0.00  0.00    -0.026 C 
ATOM     12  C   UNL     1       2.317  -4.393   5.584  0.00  0.00    +0.007 C 
ATOM     13  C   UNL     1       1.833  -5.772   6.098  0.00  0.00    +0.001 C 
ATOM     14  C   UNL     1       0.313  -5.593   6.291  0.00  0.00    +0.001 C 
ATOM     15  C   UNL     1      -0.114  -4.435   5.371  0.00  0.00    +0.007 C 
ATOM     16  C   UNL     1       1.297  -4.613   3.297  0.00  0.00    +0.026 C 
ATOM     17  C   UNL     1       0.111  -4.200   2.410  0.00  0.00    +0.107 C 
ATOM     18  C   UNL     1       0.242   0.021  -2.480  0.00  0.00    +0.068 C 
ENDROOT
BRANCH   7  19
ATOM     19  C   UNL     1      -2.477  -2.112   1.148  0.00  0.00    +0.081 C 
ATOM     20  S   UNL     1      -3.326  -0.993   2.126  0.00  0.00    -0.035 S 
BRANCH  19  21
ATOM     21  N   UNL     1      -2.989  -3.339   0.927  0.00  0.00    -0.352 N 
ATOM     22  H   UNL     1      -2.548  -3.945   0.311  0.00  0.00    +0.143 HD
ATOM     23  H   UNL     1      -3.798  -3.616   1.384  0.00  0.00    +0.143 HD
ENDBRANCH  19  21
ENDBRANCH   7  19
TORSDOF 2
