REMARK  Name = ZINC35063751
REMARK  9 active torsions:
REMARK  status: ('A' for Active; 'I' for Inactive)
REMARK    1  A    between atoms: C_1  and  C_2
REMARK    2  A    between atoms: C_5  and  N_8
REMARK    3  A    between atoms: C_18  and  C_19
REMARK    4  A    between atoms: C_19  and  C_21
REMARK    5  A    between atoms: C_19  and  N_22
REMARK    6  A    between atoms: N_22  and  C_23
REMARK    7  A    between atoms: N_22  and  S_29
REMARK    8  A    between atoms: C_23  and  C_24
REMARK    9  A    between atoms: S_29  and  C_32
REMARK                            x       y       z     vdW  Elec       q    Type
REMARK                         _______ _______ _______ _____ _____    ______ ____
ROOT
ATOM      1  C   UNL     1      -0.085  -4.129   2.657  0.00  0.00    +0.143 C 
ATOM      2  C   UNL     1      -1.264  -3.245   3.068  0.00  0.00    +0.034 C 
ENDROOT
BRANCH   1  13
ATOM      3  N   UNL     1       0.663  -5.307   0.627  0.00  0.00    -0.263 N 
ATOM      4  C   UNL     1       0.457  -5.888  -0.578  0.00  0.00    +0.266 A 
ATOM      5  O   UNL     1       1.373  -6.389  -1.204  0.00  0.00    -0.267 OA
ATOM      6  C   UNL     1      -0.918  -5.892  -1.100  0.00  0.00    +0.065 A 
ATOM      7  C   UNL     1      -1.237  -6.465  -2.330  0.00  0.00    +0.015 A 
ATOM      8  C   UNL     1      -2.541  -6.441  -2.772  0.00  0.00    +0.001 A 
ATOM      9  C   UNL     1      -3.537  -5.852  -2.003  0.00  0.00    +0.002 A 
ATOM     10  C   UNL     1      -3.243  -5.280  -0.786  0.00  0.00    +0.028 A 
ATOM     11  C   UNL     1      -1.928  -5.292  -0.316  0.00  0.00    +0.078 A 
ATOM     12  N   UNL     1      -1.594  -4.741   0.878  0.00  0.00    -0.231 NA
ATOM     13  C   UNL     1      -0.372  -4.757   1.317  0.00  0.00    +0.136 A 
BRANCH   3  18
ATOM     14  C   UNL     1       5.893  -5.182   2.826  0.00  0.00    +0.044 C 
ATOM     15  C   UNL     1       4.504  -5.215   2.242  0.00  0.00    -0.050 A 
ATOM     16  C   UNL     1       3.838  -6.420   2.114  0.00  0.00    +0.005 A 
ATOM     17  C   UNL     1       2.565  -6.454   1.579  0.00  0.00    +0.026 A 
ATOM     18  C   UNL     1       1.954  -5.276   1.170  0.00  0.00    +0.051 A 
ATOM     19  C   UNL     1       2.625  -4.068   1.300  0.00  0.00    +0.026 A 
ATOM     20  C   UNL     1       3.896  -4.040   1.841  0.00  0.00    +0.005 A 
ENDBRANCH   3  18
ENDBRANCH   1  13
BRANCH   1  21
ATOM     21  N   UNL     1       0.109  -5.181   3.658  0.00  0.00    -0.159 NA
BRANCH  21  22
ATOM     22  S   UNL     1      -1.050  -6.346   3.870  0.00  0.00    +0.062 S 
ATOM     23  O   UNL     1      -1.009  -6.713   5.242  0.00  0.00    -0.153 OA
ATOM     24  O   UNL     1      -2.231  -5.862   3.246  0.00  0.00    -0.153 OA
BRANCH  22  25
ATOM     25  C   UNL     1      -0.539  -7.762   2.954  0.00  0.00    +0.106 A 
ATOM     26  C   UNL     1      -0.921  -7.905   1.633  0.00  0.00    +0.031 A 
ATOM     27  C   UNL     1      -0.521  -9.015   0.914  0.00  0.00    +0.040 A 
ATOM     28  C   UNL     1       0.263  -9.984   1.516  0.00  0.00    +0.124 A 
ATOM     29  C   UNL     1       0.646  -9.839   2.839  0.00  0.00    +0.040 A 
ATOM     30  C   UNL     1       0.249  -8.726   3.555  0.00  0.00    +0.031 A 
ATOM     31  F   UNL     1       0.655 -11.069   0.814  0.00  0.00    -0.205 F 
ENDBRANCH  22  25
ENDBRANCH  21  22
BRANCH  21  32
ATOM     32  C   UNL     1       1.327  -5.203   4.471  0.00  0.00    +0.184 C 
BRANCH  32  33
ATOM     33  C   UNL     1       1.155  -4.292   5.658  0.00  0.00    +0.120 A 
ATOM     34  C   UNL     1       0.758  -4.668   6.888  0.00  0.00    +0.046 A 
ATOM     35  C   UNL     1       0.735  -3.500   7.685  0.00  0.00    +0.041 A 
ATOM     36  C   UNL     1       1.118  -2.481   6.896  0.00  0.00    +0.195 A 
ATOM     37  O   UNL     1       1.377  -2.967   5.671  0.00  0.00    -0.466 OA
ENDBRANCH  32  33
ENDBRANCH  21  32
ENDBRANCH   1  21
TORSDOF 7
