REMARK  Name = ZINC20833116
REMARK  6 active torsions:
REMARK  status: ('A' for Active; 'I' for Inactive)
REMARK    1  A    between atoms: C_3  and  C_9
REMARK    2  A    between atoms: N_10  and  N_11
REMARK    3  A    between atoms: C_14  and  S_17
REMARK    4  A    between atoms: S_17  and  C_18
REMARK    5  A    between atoms: C_18  and  C_19
REMARK    6  A    between atoms: C_22  and  C_24
REMARK                            x       y       z     vdW  Elec       q    Type
REMARK                         _______ _______ _______ _____ _____    ______ ____
ROOT
ATOM      1  N   UNL     1       2.413  -4.186  -0.044  0.00  0.00    -0.205 N 
ATOM      2  C   UNL     1       3.627  -4.857  -0.059  0.00  0.00    +0.232 A 
ATOM      3  N   UNL     1       3.795  -6.214  -0.069  0.00  0.00    -0.186 NA
ATOM      4  C   UNL     1       5.136  -6.473  -0.083  0.00  0.00    +0.211 A 
ATOM      5  N   UNL     1       5.771  -5.325  -0.082  0.00  0.00    -0.144 NA
ATOM      6  N   UNL     1       4.814  -4.302  -0.073  0.00  0.00    -0.245 N 
ATOM      7  H   UNL     1       1.470  -4.754  -0.039  0.00  0.00    +0.177 HD
ATOM      8  H   UNL     1       4.909  -3.206  -0.076  0.00  0.00    +0.192 HD
ENDROOT
BRANCH   1  10
ATOM      9  C   UNL     1       1.250  -2.157  -0.022  0.00  0.00    +0.139 C 
ATOM     10  N   UNL     1       2.387  -2.785  -0.036  0.00  0.00    -0.188 NA
BRANCH   9  13
ATOM     11  C   UNL     1      -0.017   1.375   0.010  0.00  0.00    +0.021 A 
ATOM     12  C   UNL     1       0.002  -0.004   0.002  0.00  0.00    +0.012 A 
ATOM     13  C   UNL     1       1.223  -0.683  -0.013  0.00  0.00    +0.013 A 
ATOM     14  C   UNL     1       2.419   0.042  -0.021  0.00  0.00    +0.051 A 
ATOM     15  C   UNL     1       2.385   1.421  -0.013  0.00  0.00    +0.040 A 
ATOM     16  C   UNL     1       1.171   2.087   0.002  0.00  0.00    +0.042 A 
ATOM     17 CL   UNL     1       1.137   3.823   0.011  0.00  0.00    -0.083 Cl
ATOM     18 CL   UNL     1       3.941  -0.792  -0.040  0.00  0.00    -0.083 Cl
ENDBRANCH   9  13
ENDBRANCH   1  10
BRANCH   4  19
ATOM     19  S   UNL     1       5.882  -8.069  -0.100  0.00  0.00    -0.075 S 
BRANCH  19  20
ATOM     20  C   UNL     1       7.663  -7.721  -0.114  0.00  0.00    +0.175 C 
BRANCH  20  21
ATOM     21  C   UNL     1       8.428  -9.019  -0.129  0.00  0.00    +0.228 A 
ATOM     22  N   UNL     1       8.810  -9.676  -1.187  0.00  0.00    -0.111 NA
ATOM     23  N   UNL     1       9.439 -10.739  -0.826  0.00  0.00    -0.103 NA
ATOM     24  C   UNL     1       9.480 -10.796   0.475  0.00  0.00    +0.322 A 
ATOM     25  O   UNL     1       8.847  -9.708   0.946  0.00  0.00    -0.416 OA
BRANCH  24  26
ATOM     26  C   UNL     1      10.124 -11.880   1.301  0.00  0.00    +0.471 C 
ATOM     27  F   UNL     1      10.784 -12.779   0.457  0.00  0.00    -0.162 F 
ATOM     28  F   UNL     1      11.045 -11.307   2.185  0.00  0.00    -0.162 F 
ATOM     29  F   UNL     1       9.140 -12.559   2.028  0.00  0.00    -0.162 F 
ENDBRANCH  24  26
ENDBRANCH  20  21
ENDBRANCH  19  20
ENDBRANCH   4  19
TORSDOF 6
