REMARK  Name = ZINC37944386
REMARK  6 active torsions:
REMARK  status: ('A' for Active; 'I' for Inactive)
REMARK    1  A    between atoms: C_1  and  C_2
REMARK    2  A    between atoms: C_5  and  C_11
REMARK    3  A    between atoms: C_5  and  N_14
REMARK    4  A    between atoms: C_7  and  C_9
REMARK    5  A    between atoms: C_7  and  C_10
REMARK    6  A    between atoms: N_14  and  C_15
REMARK                            x       y       z     vdW  Elec       q    Type
REMARK                         _______ _______ _______ _____ _____    ______ ____
ROOT
ATOM      1  C   UNL     1       0.317   1.819  -0.485  0.00  0.00    +0.007 C 
ATOM      2  C   UNL     1       0.273   0.291  -0.414  0.00  0.00    -0.011 C 
ATOM      3  C   UNL     1      -1.175  -0.184  -0.554  0.00  0.00    +0.038 C 
ATOM      4  C   UNL     1      -1.219  -1.712  -0.482  0.00  0.00    +0.109 C 
ATOM      5  C   UNL     1      -0.657  -2.176   0.863  0.00  0.00    +0.041 C 
ATOM      6  C   UNL     1       0.790  -1.701   1.002  0.00  0.00    -0.032 C 
ATOM      7  C   UNL     1       0.835  -0.173   0.931  0.00  0.00    +0.009 C 
ATOM      8  C   UNL     1       1.352  -2.165   2.347  0.00  0.00    +0.011 C 
ATOM      9  C   UNL     1       1.632  -2.289  -0.133  0.00  0.00    +0.011 C 
ENDROOT
BRANCH   4  10
ATOM     10  C   UNL     1      -0.391  -2.291  -1.600  0.00  0.00    +0.234 C 
ATOM     11  O   UNL     1       0.210  -1.555  -2.354  0.00  0.00    -0.274 OA
ATOM     12  N   UNL     1      -0.317  -3.627  -1.762  0.00  0.00    -0.328 N 
ATOM     13  H   UNL     1      -0.739  -4.217  -1.118  0.00  0.00    +0.145 HD
ATOM     14  H   UNL     1       0.157  -3.998  -2.522  0.00  0.00    +0.145 HD
ENDBRANCH   4  10
BRANCH   4  15
ATOM     15  N   UNL     1      -2.605  -2.167  -0.616  0.00  0.00    -0.330 N 
ATOM     16  H   UNL     1      -3.024  -2.663   0.104  0.00  0.00    +0.147 HD
BRANCH  15  17
ATOM     17  C   UNL     1      -3.324  -1.886  -1.780  0.00  0.00    +0.029 A 
ATOM     18  C   UNL     1      -2.697  -1.259  -2.850  0.00  0.00    +0.023 A 
ATOM     19  C   UNL     1      -3.410  -0.982  -4.000  0.00  0.00    +0.003 A 
ATOM     20  C   UNL     1      -4.746  -1.327  -4.088  0.00  0.00    +0.015 A 
ATOM     21  C   UNL     1      -5.373  -1.952  -3.024  0.00  0.00    +0.020 A 
ATOM     22  C   UNL     1      -4.664  -2.237  -1.873  0.00  0.00    +0.038 A 
ATOM     23 BR   UNL     1      -7.201  -2.423  -3.149  0.00  0.00    -0.050 Br
ENDBRANCH  15  17
ENDBRANCH   4  15
TORSDOF 3
