REMARK  Name = ZINC39355682
REMARK  9 active torsions:
REMARK  status: ('A' for Active; 'I' for Inactive)
REMARK    1  A    between atoms: C_1  and  C_2
REMARK    2  A    between atoms: C_2  and  O_3
REMARK    3  A    between atoms: O_3  and  C_4
REMARK    4  A    between atoms: C_4  and  C_5
REMARK    5  A    between atoms: C_5  and  C_6
REMARK    6  A    between atoms: C_6  and  N_7
REMARK    7  A    between atoms: C_8  and  C_10
REMARK    8  A    between atoms: N_15  and  C_17
REMARK    9  A    between atoms: C_19  and  C_30
REMARK                            x       y       z     vdW  Elec       q    Type
REMARK                         _______ _______ _______ _____ _____    ______ ____
ROOT
ATOM      1  C   UNL     1       3.859  -9.270   6.947  0.00  0.00    +0.052 C 
ATOM      2  C   UNL     1       4.239  -9.535   8.391  0.00  0.00    -0.036 C 
ATOM      3  C   UNL     1       5.338 -10.368   8.616  0.00  0.00    +0.000 A 
ATOM      4  C   UNL     1       5.760 -10.668   9.928  0.00  0.00    +0.030 A 
ATOM      5  C   UNL     1       6.833 -11.483  10.119  0.00  0.00    +0.042 A 
ATOM      6  C   UNL     1       7.527 -12.029   9.041  0.00  0.00    +0.022 A 
ATOM      7  C   UNL     1       7.167 -11.777   7.752  0.00  0.00    +0.025 A 
ATOM      8  C   UNL     1       6.068 -10.943   7.480  0.00  0.00    +0.041 A 
ATOM      9  N   UNL     1       5.716 -10.697   6.214  0.00  0.00    -0.286 N 
ATOM     10  C   UNL     1       4.700  -9.928   5.877  0.00  0.00    +0.208 C 
ATOM     11  O   UNL     1       4.438  -9.748   4.702  0.00  0.00    -0.277 OA
ATOM     12 CL   UNL     1       7.348 -11.848  11.736  0.00  0.00    -0.084 Cl
ATOM     13  H   UNL     1       6.237 -11.106   5.505  0.00  0.00    +0.155 HD
ENDROOT
BRANCH   1  18
ATOM     14  C   UNL     1       3.193  -5.974   5.280  0.00  0.00    +0.058 C 
ATOM     15  C   UNL     1       4.630  -5.448   5.228  0.00  0.00    +0.009 C 
ATOM     16  C   UNL     1       5.360  -5.858   6.510  0.00  0.00    -0.018 C 
ATOM     17  C   UNL     1       5.305  -7.380   6.658  0.00  0.00    -0.077 C 
ATOM     18  N   UNL     1       3.906  -7.818   6.728  0.00  0.00    +0.391 N 
ATOM     19  C   UNL     1       3.217  -7.492   5.473  0.00  0.00    -0.065 C 
ATOM     20  H   UNL     1       3.445  -7.349   7.494  0.00  0.00    -0.080 HD
BRANCH  14  22
ATOM     21  N   UNL     1       1.725  -4.535   3.903  0.00  0.00    -0.315 N 
ATOM     22  C   UNL     1       2.489  -5.643   3.989  0.00  0.00    +0.214 C 
ATOM     23  O   UNL     1       2.609  -6.372   3.028  0.00  0.00    -0.276 OA
ATOM     24  H   UNL     1       1.629  -3.952   4.672  0.00  0.00    +0.149 HD
BRANCH  21  25
ATOM     25  C   UNL     1       1.041  -4.213   2.649  0.00  0.00    +0.106 C 
BRANCH  25  26
ATOM     26  C   UNL     1       0.248  -2.916   2.819  0.00  0.00    +0.047 C 
BRANCH  26  27
ATOM     27  C   UNL     1      -0.467  -2.579   1.509  0.00  0.00    +0.161 C 
BRANCH  27  28
ATOM     28  O   UNL     1      -1.208  -1.367   1.668  0.00  0.00    -0.380 OA
BRANCH  28  30
ATOM     29  C   UNL     1      -2.669   0.340   0.780  0.00  0.00    +0.034 C 
ATOM     30  C   UNL     1      -1.916  -0.961   0.496  0.00  0.00    +0.156 C 
ENDBRANCH  28  30
ENDBRANCH  27  28
ENDBRANCH  26  27
ENDBRANCH  25  26
ENDBRANCH  21  25
ENDBRANCH  14  22
ENDBRANCH   1  18
BRANCH   2  31
ATOM     31  C   UNL     1       3.512  -8.962   9.465  0.00  0.00    -0.022 A 
ATOM     32  C   UNL     1       4.139  -8.063  10.344  0.00  0.00    +0.008 A 
ATOM     33  C   UNL     1       3.424  -7.513  11.384  0.00  0.00    +0.001 A 
ATOM     34  C   UNL     1       2.091  -7.843  11.566  0.00  0.00    +0.000 A 
ATOM     35  C   UNL     1       1.463  -8.729  10.705  0.00  0.00    +0.001 A 
ATOM     36  C   UNL     1       2.158  -9.286   9.655  0.00  0.00    +0.008 A 
ENDBRANCH   2  31
TORSDOF 8
