REMARK  Name = ZINC67485677
REMARK  6 active torsions:
REMARK  status: ('A' for Active; 'I' for Inactive)
REMARK    1  A    between atoms: C_4  and  C_7
REMARK    2  A    between atoms: N_12  and  C_13
REMARK    3  A    between atoms: C_13  and  C_14
REMARK    4  A    between atoms: C_14  and  C_16
REMARK    5  A    between atoms: C_14  and  O_28
REMARK    6  A    between atoms: C_16  and  N_17
REMARK                            x       y       z     vdW  Elec       q    Type
REMARK                         _______ _______ _______ _____ _____    ______ ____
ROOT
ATOM      1  C   UNL     1       2.315  -3.480  -1.244  0.00  0.00    +0.118 C 
ENDROOT
BRANCH   1   2
ATOM      2  O   UNL     1       1.853  -2.553  -2.228  0.00  0.00    -0.392 OA
ATOM      3  H   UNL     1       1.009  -2.135  -2.009  0.00  0.00    +0.210 HD
ENDBRANCH   1   2
BRANCH   1   4
ATOM      4  C   UNL     1       2.503  -2.756   0.091  0.00  0.00    +0.159 C 
BRANCH   4  10
ATOM      5  C   UNL     1       3.202  -0.357  -0.322  0.00  0.00    +0.186 A 
ATOM      6  N   UNL     1       4.321   0.302  -0.397  0.00  0.00    -0.054 NA
ATOM      7  O   UNL     1       5.379  -0.618  -0.195  0.00  0.00    -0.295 OA
ATOM      8  C   UNL     1       4.826  -1.828  -0.001  0.00  0.00    +0.443 A 
ATOM      9  O   UNL     1       5.426  -2.866   0.205  0.00  0.00    -0.221 OA
ATOM     10  N   UNL     1       3.489  -1.684  -0.070  0.00  0.00    -0.255 N 
BRANCH   5  14
ATOM     11  C   UNL     1      -0.687   1.299  -0.761  0.00  0.00    +0.000 A 
ATOM     12  C   UNL     1       0.344   1.739  -1.571  0.00  0.00    +0.001 A 
ATOM     13  C   UNL     1       1.609   1.205  -1.433  0.00  0.00    +0.011 A 
ATOM     14  C   UNL     1       1.847   0.220  -0.474  0.00  0.00    +0.021 A 
ATOM     15  C   UNL     1       0.803  -0.219   0.339  0.00  0.00    +0.011 A 
ATOM     16  C   UNL     1      -0.458   0.322   0.192  0.00  0.00    +0.001 A 
ENDBRANCH   5  14
ENDBRANCH   4  10
ENDBRANCH   1   4
BRANCH   1  17
ATOM     17  C   UNL     1       1.286  -4.600  -1.075  0.00  0.00    -0.045 C 
BRANCH  17  18
ATOM     18  N   UNL     1       1.097  -5.288  -2.359  0.00  0.00    +0.386 N 
ATOM     19  C   UNL     1       2.348  -5.931  -2.747  0.00  0.00    -0.037 C 
ATOM     20  C   UNL     1       2.353  -6.468  -4.160  0.00  0.00    +0.210 C 
ATOM     21  O   UNL     1       1.417  -7.545  -4.299  0.00  0.00    -0.494 OA
ATOM     22  C   UNL     1       0.134  -7.168  -4.558  0.00  0.00    +0.122 A 
ATOM     23  C   UNL     1      -0.437  -7.441  -5.793  0.00  0.00    +0.046 A 
ATOM     24  C   UNL     1      -1.733  -7.036  -6.051  0.00  0.00    +0.004 A 
ATOM     25  C   UNL     1      -2.457  -6.363  -5.084  0.00  0.00    +0.000 A 
ATOM     26  C   UNL     1      -1.890  -6.099  -3.850  0.00  0.00    +0.005 A 
ATOM     27  C   UNL     1      -0.599  -6.511  -3.589  0.00  0.00    -0.022 A 
ATOM     28  C   UNL     1       0.015  -6.270  -2.224  0.00  0.00    -0.039 C 
ATOM     29  H   UNL     1       0.842  -4.611  -3.063  0.00  0.00    -0.081 HD
ENDBRANCH  17  18
ENDBRANCH   1  17
TORSDOF 6
