REMARK  Name = ZINC04381164
REMARK  4 active torsions:
REMARK  status: ('A' for Active; 'I' for Inactive)
REMARK    1  A    between atoms: C_3  and  C_8
REMARK    2  A    between atoms: C_8  and  C_9
REMARK    3  A    between atoms: C_21  and  C_23
REMARK    4  A    between atoms: C_27  and  N_29
REMARK                            x       y       z     vdW  Elec       q    Type
REMARK                         _______ _______ _______ _____ _____    ______ ____
ROOT
ATOM      1  C   UNL     1       4.957   6.934   3.022  0.00  0.00    +0.114 A 
ATOM      2  N   UNL     1       5.302   5.784   2.411  0.00  0.00    -0.310 N 
ATOM      3  H   UNL     1       6.161   5.328   2.644  0.00  0.00    +0.170 HD
ATOM      4  C   UNL     1       4.482   5.252   1.482  0.00  0.00    +0.256 A 
ATOM      5  O   UNL     1       4.777   4.211   0.917  0.00  0.00    -0.267 OA
ATOM      6  C   UNL     1       3.275   5.920   1.173  0.00  0.00    +0.055 A 
ATOM      7  C   UNL     1       2.974   7.064   1.833  0.00  0.00    +0.055 A 
ATOM      8  N   UNL     1       3.839   7.543   2.742  0.00  0.00    -0.238 NA
ATOM      9  C   UNL     1       1.704   7.837   1.597  0.00  0.00    +0.075 C 
ATOM     10  C   UNL     1       1.094   7.480   0.243  0.00  0.00    +0.114 C 
ATOM     11  N   UNL     1       1.084   6.012   0.123  0.00  0.00    -0.293 N 
ATOM     12  C   UNL     1       2.384   5.331   0.117  0.00  0.00    +0.150 C 
ATOM     13  C   UNL     1      -0.070   5.323   0.029  0.00  0.00    +0.247 C 
ATOM     14  O   UNL     1      -1.129   5.917  -0.025  0.00  0.00    -0.270 OA
ENDROOT
BRANCH  13  15
ATOM     15  C   UNL     1      -0.048   3.845  -0.007  0.00  0.00    +0.039 A 
ATOM     16  C   UNL     1       0.878   3.178  -0.810  0.00  0.00    +0.013 A 
ATOM     17  C   UNL     1       0.894   1.799  -0.840  0.00  0.00    +0.003 A 
ATOM     18  C   UNL     1      -0.007   1.077  -0.077  0.00  0.00    +0.033 A 
ATOM     19  C   UNL     1      -0.931   1.732   0.717  0.00  0.00    +0.127 A 
ATOM     20  C   UNL     1      -0.954   3.111   0.760  0.00  0.00    +0.045 A 
BRANCH  19  21
ATOM     21  N   UNL     1      -1.895   0.953   1.526  0.00  0.00    +0.056 N 
ATOM     22  O   UNL     1      -1.873  -0.265   1.492  0.00  0.00    -0.126 OA
ATOM     23  O   UNL     1      -2.709   1.528   2.225  0.00  0.00    -0.126 OA
ENDBRANCH  19  21
ENDBRANCH  13  15
BRANCH   1  24
ATOM     24  C   UNL     1       5.882   7.527   4.054  0.00  0.00    +0.109 C 
BRANCH  24  27
ATOM     25  C   UNL     1       3.903   9.929   6.192  0.00  0.00    +0.003 A 
ATOM     26  C   UNL     1       4.453   8.761   5.697  0.00  0.00    +0.004 A 
ATOM     27  C   UNL     1       5.283   8.801   4.592  0.00  0.00    -0.037 A 
ATOM     28  C   UNL     1       5.568  10.009   3.985  0.00  0.00    +0.042 A 
ATOM     29  C   UNL     1       5.014  11.178   4.477  0.00  0.00    +0.124 A 
ATOM     30  C   UNL     1       4.183  11.137   5.583  0.00  0.00    +0.038 A 
ATOM     31  F   UNL     1       5.289  12.359   3.881  0.00  0.00    -0.205 F 
ENDBRANCH  24  27
ENDBRANCH   1  24
TORSDOF 4
