REMARK  Name = ZINC15181030
REMARK  10 active torsions:
REMARK  status: ('A' for Active; 'I' for Inactive)
REMARK    1  A    between atoms: C_1  and  C_2
REMARK    2  A    between atoms: C_3  and  N_15
REMARK    3  A    between atoms: N_6  and  C_9
REMARK    4  A    between atoms: N_7  and  C_8
REMARK    5  A    between atoms: C_16  and  C_18
REMARK    6  A    between atoms: C_18  and  C_20
REMARK    7  A    between atoms: C_18  and  O_21
REMARK    8  A    between atoms: O_21  and  C_22
REMARK    9  A    between atoms: C_22  and  C_24
REMARK   10  A    between atoms: C_29  and  O_30
REMARK                            x       y       z     vdW  Elec       q    Type
REMARK                         _______ _______ _______ _____ _____    ______ ____
ROOT
ATOM      1  N   UNL     1      -0.006  -0.058  -0.448  0.00  0.00    -0.277 N 
ATOM      2  C   UNL     1      -0.377   0.992   0.311  0.00  0.00    +0.258 C 
ATOM      3  O   UNL     1       0.345   1.380   1.206  0.00  0.00    -0.271 OA
ATOM      4  H   UNL     1      -0.614  -0.414  -1.114  0.00  0.00    +0.155 HD
ENDROOT
BRANCH   1   7
ATOM      5  C   UNL     1       0.489  -3.010   0.224  0.00  0.00    +0.067 C 
ATOM      6  C   UNL     1       1.523  -1.932   0.024  0.00  0.00    +0.059 A 
ATOM      7  C   UNL     1       1.266  -0.638  -0.273  0.00  0.00    +0.121 A 
ATOM      8  C   UNL     1       2.555   0.045  -0.384  0.00  0.00    +0.293 A 
ATOM      9  O   UNL     1       2.732   1.222  -0.644  0.00  0.00    -0.264 OA
ATOM     10  N   UNL     1       3.511  -0.876  -0.139  0.00  0.00    -0.216 N 
ATOM     11  N   UNL     1       2.880  -2.100   0.110  0.00  0.00    -0.282 N 
ATOM     12  C   UNL     1       3.562  -3.360   0.414  0.00  0.00    +0.171 C 
BRANCH  10  13
ATOM     13  C   UNL     1       4.890  -0.648  -0.140  0.00  0.00    +0.067 A 
ATOM     14  C   UNL     1       5.673  -1.111   0.910  0.00  0.00    +0.028 A 
ATOM     15  C   UNL     1       7.036  -0.890   0.903  0.00  0.00    +0.002 A 
ATOM     16  C   UNL     1       7.620  -0.197  -0.141  0.00  0.00    +0.000 A 
ATOM     17  C   UNL     1       6.843   0.271  -1.185  0.00  0.00    +0.002 A 
ATOM     18  C   UNL     1       5.480   0.047  -1.188  0.00  0.00    +0.028 A 
ENDBRANCH  10  13
ENDBRANCH   1   7
BRANCH   2  19
ATOM     19  C   UNL     1      -1.686   1.689   0.044  0.00  0.00    +0.259 C 
ATOM     20  C   UNL     1      -1.639   2.352  -1.335  0.00  0.00    +0.062 C 
BRANCH  19  21
ATOM     21  O   UNL     1      -1.912   2.702   1.060  0.00  0.00    -0.449 OA
BRANCH  21  22
ATOM     22  C   UNL     1      -3.192   2.978   1.375  0.00  0.00    +0.343 C 
ATOM     23  O   UNL     1      -4.096   2.388   0.816  0.00  0.00    -0.245 OA
BRANCH  22  24
ATOM     24  C   UNL     1      -3.497   3.995   2.397  0.00  0.00    +0.101 A 
ATOM     25  C   UNL     1      -2.461   4.671   3.047  0.00  0.00    +0.034 A 
ATOM     26  C   UNL     1      -2.753   5.624   3.999  0.00  0.00    +0.019 A 
ATOM     27  C   UNL     1      -4.071   5.908   4.323  0.00  0.00    +0.019 A 
ATOM     28  C   UNL     1      -5.104   5.243   3.693  0.00  0.00    +0.047 A 
ATOM     29  C   UNL     1      -4.828   4.285   2.728  0.00  0.00    +0.131 A 
ATOM     30 BR   UNL     1      -1.350   6.543   4.872  0.00  0.00    -0.050 Br
BRANCH  29  31
ATOM     31  O   UNL     1      -5.842   3.631   2.108  0.00  0.00    -0.506 OA
ATOM     32  H   UNL     1      -6.117   2.818   2.554  0.00  0.00    +0.292 HD
ENDBRANCH  29  31
ENDBRANCH  22  24
ENDBRANCH  21  22
ENDBRANCH  19  21
ENDBRANCH   2  19
TORSDOF 7
