REMARK  Name = ZINC40674634
REMARK  5 active torsions:
REMARK  status: ('A' for Active; 'I' for Inactive)
REMARK    1  A    between atoms: C_1  and  C_2
REMARK    2  A    between atoms: C_2  and  C_3
REMARK    3  A    between atoms: C_2  and  C_4
REMARK    4  A    between atoms: C_2  and  N_7
REMARK    5  A    between atoms: N_7  and  C_8
REMARK                            x       y       z     vdW  Elec       q    Type
REMARK                         _______ _______ _______ _____ _____    ______ ____
ROOT
ATOM      1  N   UNL     1       0.836  -0.225  -1.155  0.00  0.00    +0.390 N 
ATOM      2  H   UNL     1       0.895  -1.232  -1.182  0.00  0.00    -0.084 HD
ATOM      3  H   UNL     1       0.508   0.117  -2.045  0.00  0.00    -0.084 HD
ENDROOT
BRANCH   1   4
ATOM      4  C   UNL     1       2.164   0.336  -0.874  0.00  0.00    -0.070 C 
ATOM      5  C   UNL     1       2.762  -0.357   0.352  0.00  0.00    -0.015 C 
ATOM      6  C   UNL     1       4.145   0.227   0.645  0.00  0.00    +0.002 C 
ATOM      7  C   UNL     1       5.058   0.005  -0.563  0.00  0.00    -0.008 C 
ATOM      8  C   UNL     1       6.442   0.590  -0.270  0.00  0.00    +0.004 C 
ATOM      9  C   UNL     1       6.314   2.090   0.004  0.00  0.00    +0.000 C 
ATOM     10  C   UNL     1       5.716   2.783  -1.222  0.00  0.00    +0.000 C 
ATOM     11  C   UNL     1       4.333   2.199  -1.514  0.00  0.00    +0.004 C 
ATOM     12  C   UNL     1       4.460   0.699  -1.789  0.00  0.00    -0.009 C 
ATOM     13  C   UNL     1       3.077   0.114  -2.081  0.00  0.00    -0.012 C 
ENDBRANCH   1   4
BRANCH   1  15
ATOM     14  C   UNL     1      -1.523  -0.220  -0.496  0.00  0.00    -0.001 C 
ATOM     15  C   UNL     1      -0.101   0.182  -0.099  0.00  0.00    +0.004 C 
ATOM     16  C   UNL     1      -0.033   1.699   0.087  0.00  0.00    -0.001 C 
BRANCH  15  17
ATOM     17  C   UNL     1       0.271  -0.500   1.193  0.00  0.00    +0.199 C 
ATOM     18  O   UNL     1       0.200   0.107   2.241  0.00  0.00    -0.278 OA
ATOM     19  N   UNL     1       0.683  -1.783   1.184  0.00  0.00    -0.330 N 
ATOM     20  H   UNL     1       0.740  -2.268   0.345  0.00  0.00    +0.145 HD
ATOM     21  H   UNL     1       0.923  -2.221   2.015  0.00  0.00    +0.145 HD
ENDBRANCH  15  17
ENDBRANCH   1  15
TORSDOF 3
