REMARK  Name = ZINC23268932
REMARK  6 active torsions:
REMARK  status: ('A' for Active; 'I' for Inactive)
REMARK    1  A    between atoms: C_1  and  C_2
REMARK    2  A    between atoms: C_2  and  C_26
REMARK    3  A    between atoms: N_5  and  C_9
REMARK    4  A    between atoms: C_9  and  C_10
REMARK    5  A    between atoms: C_16  and  C_18
REMARK    6  A    between atoms: C_18  and  C_19
REMARK                            x       y       z     vdW  Elec       q    Type
REMARK                         _______ _______ _______ _____ _____    ______ ____
ROOT
ATOM      1  C   UNL     1       0.022  -0.514   1.420  0.00  0.00    +0.237 C 
ATOM      2  O   UNL     1       0.021   0.269   2.346  0.00  0.00    -0.274 OA
ATOM      3  N   UNL     1       0.043  -1.840   1.659  0.00  0.00    -0.263 N 
ATOM      4  C   UNL     1       0.062  -2.311   2.967  0.00  0.00    +0.165 A 
ATOM      5  N   UNL     1       0.069  -1.625   4.094  0.00  0.00    -0.233 NA
ATOM      6  C   UNL     1       0.082  -2.234   5.263  0.00  0.00    +0.124 A 
ATOM      7  C   UNL     1       0.101  -3.590   5.286  0.00  0.00    +0.015 A 
ATOM      8  S   UNL     1       0.089  -3.951   3.536  0.00  0.00    -0.057 S 
ATOM      9  H   UNL     1       0.044  -2.550   0.819  0.00  0.00    +0.157 HD
ENDROOT
BRANCH   1  10
ATOM     10  C   UNL     1       0.002  -0.004   0.002  0.00  0.00    +0.214 C 
BRANCH  10  15
ATOM     11  C   UNL     1       1.069   4.393   1.271  0.00  0.00    +0.042 C 
ATOM     12  C   UNL     1       0.587   3.664   0.015  0.00  0.00    +0.113 C 
ATOM     13  C   UNL     1       1.087   2.233   0.004  0.00  0.00    +0.247 C 
ATOM     14  O   UNL     1       2.240   1.861  -0.008  0.00  0.00    -0.273 OA
ATOM     15  N   UNL     1      -0.018   1.461   0.010  0.00  0.00    -0.215 N 
ATOM     16  C   UNL     1      -1.135   2.197   0.019  0.00  0.00    +0.310 C 
ATOM     17  O   UNL     1      -2.255   1.726   0.022  0.00  0.00    -0.252 OA
ATOM     18  N   UNL     1      -0.879   3.518   0.028  0.00  0.00    -0.285 N 
ATOM     19  H   UNL     1      -1.521   4.412   0.042  0.00  0.00    +0.151 HD
BRANCH  12  20
ATOM     20  C   UNL     1       1.043   4.404  -1.244  0.00  0.00    +0.021 C 
ATOM     21  C   UNL     1       2.161   5.436  -1.090  0.00  0.00    +0.006 C 
ATOM     22  C   UNL     1       0.724   5.897  -1.340  0.00  0.00    +0.006 C 
ENDBRANCH  12  20
ENDBRANCH  10  15
ENDBRANCH   1  10
BRANCH   7  23
ATOM     23  C   UNL     1       0.125  -4.531   6.462  0.00  0.00    +0.079 C 
BRANCH  23  24
ATOM     24  C   UNL     1      -1.287  -4.864   6.868  0.00  0.00    -0.042 A 
ATOM     25  C   UNL     1      -1.938  -4.086   7.807  0.00  0.00    +0.005 A 
ATOM     26  C   UNL     1      -3.236  -4.388   8.176  0.00  0.00    +0.020 A 
ATOM     27  C   UNL     1      -3.879  -5.476   7.613  0.00  0.00    +0.041 A 
ATOM     28  C   UNL     1      -3.225  -6.258   6.678  0.00  0.00    +0.020 A 
ATOM     29  C   UNL     1      -1.929  -5.952   6.306  0.00  0.00    +0.005 A 
ATOM     30 CL   UNL     1      -5.506  -5.860   8.081  0.00  0.00    -0.084 Cl
ENDBRANCH  23  24
ENDBRANCH   7  23
TORSDOF 5
