REMARK  Name = ZINC48076173
REMARK  4 active torsions:
REMARK  status: ('A' for Active; 'I' for Inactive)
REMARK    1  A    between atoms: C_1  and  C_2
REMARK    2  A    between atoms: N_19  and  C_20
REMARK    3  A    between atoms: C_25  and  C_26
REMARK    4  A    between atoms: C_26  and  N_27
REMARK                            x       y       z     vdW  Elec       q    Type
REMARK                         _______ _______ _______ _____ _____    ______ ____
ROOT
ATOM      1  C   UNL     1      -0.344   1.526   0.334  0.00  0.00    +0.035 C 
ATOM      2  C   UNL     1      -0.185   0.012   0.178  0.00  0.00    +0.121 C 
ATOM      3  C   UNL     1      -1.524  -0.667   0.362  0.00  0.00    +0.041 A 
ATOM      4  C   UNL     1      -1.716  -1.728   1.176  0.00  0.00    -0.016 A 
ATOM      5  C   UNL     1      -3.116  -2.088   1.077  0.00  0.00    +0.003 A 
ATOM      6  C   UNL     1      -3.881  -3.092   1.679  0.00  0.00    +0.010 A 
ATOM      7  C   UNL     1      -5.212  -3.141   1.346  0.00  0.00    +0.001 A 
ATOM      8  C   UNL     1      -5.782  -2.245   0.457  0.00  0.00    +0.002 A 
ATOM      9  C   UNL     1      -5.049  -1.243  -0.154  0.00  0.00    +0.026 A 
ATOM     10  C   UNL     1      -3.694  -1.168   0.165  0.00  0.00    +0.047 A 
ATOM     11  N   UNL     1      -2.702  -0.325  -0.245  0.00  0.00    -0.356 N 
ATOM     12  H   UNL     1      -2.815   0.406  -0.872  0.00  0.00    +0.166 HD
ATOM     13  C   UNL     1      -0.643  -2.373   2.014  0.00  0.00    +0.056 C 
ATOM     14  C   UNL     1       0.731  -1.953   1.477  0.00  0.00    +0.115 C 
ATOM     15  N   UNL     1       0.722  -0.506   1.217  0.00  0.00    -0.277 N 
ATOM     16  C   UNL     1       1.522   0.326   1.914  0.00  0.00    +0.307 C 
ATOM     17  O   UNL     1       1.429   1.529   1.760  0.00  0.00    -0.252 OA
ATOM     18  N   UNL     1       2.424  -0.175   2.780  0.00  0.00    -0.269 N 
ATOM     19  H   UNL     1       2.525  -1.135   2.874  0.00  0.00    +0.156 HD
ENDROOT
BRANCH  18  20
ATOM     20  C   UNL     1       3.215   0.690   3.545  0.00  0.00    +0.040 A 
ATOM     21  C   UNL     1       3.260   2.044   3.240  0.00  0.00    +0.024 A 
ATOM     22  C   UNL     1       4.042   2.895   3.997  0.00  0.00    +0.002 A 
ATOM     23  C   UNL     1       4.779   2.400   5.057  0.00  0.00    +0.000 A 
ATOM     24  C   UNL     1       4.736   1.052   5.363  0.00  0.00    +0.007 A 
ATOM     25  C   UNL     1       3.952   0.197   4.613  0.00  0.00    -0.005 A 
BRANCH  25  26
ATOM     26  C   UNL     1       3.901  -1.271   4.951  0.00  0.00    +0.180 C 
BRANCH  26  27
ATOM     27  N   UNL     1       4.874  -1.995   4.129  0.00  0.00    -0.267 N 
ATOM     28  C   UNL     1       5.851  -2.806   4.585  0.00  0.00    +0.108 A 
ATOM     29  C   UNL     1       6.529  -3.278   3.513  0.00  0.00    +0.041 A 
ATOM     30  C   UNL     1       5.945  -2.738   2.362  0.00  0.00    +0.134 A 
ATOM     31  N   UNL     1       4.949  -1.973   2.730  0.00  0.00    -0.179 NA
ENDBRANCH  26  27
ENDBRANCH  25  26
ENDBRANCH  18  20
TORSDOF 3
