REMARK  Name = ZINC61881614
REMARK  4 active torsions:
REMARK  status: ('A' for Active; 'I' for Inactive)
REMARK    1  A    between atoms: C_1  and  C_2
REMARK    2  A    between atoms: N_8  and  S_9
REMARK    3  A    between atoms: S_9  and  C_12
REMARK    4  A    between atoms: C_16  and  N_19
REMARK                            x       y       z     vdW  Elec       q    Type
REMARK                         _______ _______ _______ _____ _____    ______ ____
ROOT
ATOM      1  S   UNL     1       0.051  -0.934   3.791  0.00  0.00    +0.102 S 
ATOM      2  O   UNL     1      -1.185  -1.632   3.868  0.00  0.00    -0.146 OA
ATOM      3  O   UNL     1       1.306  -1.599   3.845  0.00  0.00    -0.146 OA
ENDROOT
BRANCH   1  11
ATOM      4  C   UNL     1      -0.018   1.503   0.010  0.00  0.00    +0.047 C 
ATOM      5  C   UNL     1       0.002  -0.004   0.002  0.00  0.00    -0.007 A 
ATOM      6  C   UNL     1       0.006  -0.684  -1.174  0.00  0.00    +0.008 A 
ATOM      7  C   UNL     1       0.025  -2.090  -1.165  0.00  0.00    +0.018 A 
ATOM      8  C   UNL     1       0.041  -2.765   0.004  0.00  0.00    +0.084 A 
ATOM      9  N   UNL     1       0.037  -2.099   1.193  0.00  0.00    -0.345 N 
ATOM     10  C   UNL     1       0.023  -0.726   1.219  0.00  0.00    +0.155 A 
ATOM     11  N   UNL     1       0.026  -0.085   2.369  0.00  0.00    -0.111 NA
ATOM     12  H   UNL     1       0.047  -2.598   2.025  0.00  0.00    +0.167 HD
ENDBRANCH   1  11
BRANCH   1  13
ATOM     13  C   UNL     1       0.047   0.243   5.101  0.00  0.00    +0.130 A 
ATOM     14  C   UNL     1      -1.029   0.309   5.967  0.00  0.00    +0.050 A 
ATOM     15  C   UNL     1      -1.036   1.232   6.998  0.00  0.00    +0.045 A 
ATOM     16  C   UNL     1       0.035   2.091   7.166  0.00  0.00    +0.044 A 
ATOM     17  C   UNL     1       1.116   2.027   6.298  0.00  0.00    +0.042 A 
ATOM     18  C   UNL     1       1.122   1.095   5.266  0.00  0.00    +0.065 A 
ATOM     19 BR   UNL     1       2.596   0.998   4.087  0.00  0.00    -0.046 Br
ATOM     20 CL   UNL     1      -2.389   1.312   8.082  0.00  0.00    -0.083 Cl
BRANCH  17  21
ATOM     21  N   UNL     1       2.200   2.894   6.464  0.00  0.00    -0.357 N 
ATOM     22  H   UNL     1       2.196   3.542   7.186  0.00  0.00    +0.142 HD
ATOM     23  H   UNL     1       2.955   2.848   5.857  0.00  0.00    +0.142 HD
ENDBRANCH  17  21
ENDBRANCH   1  13
TORSDOF 3
