REMARK  Name = ZINC65735869
REMARK  6 active torsions:
REMARK  status: ('A' for Active; 'I' for Inactive)
REMARK    1  A    between atoms: C_1  and  C_2
REMARK    2  A    between atoms: C_4  and  N_26
REMARK    3  A    between atoms: N_6  and  C_7
REMARK    4  A    between atoms: C_7  and  C_8
REMARK    5  A    between atoms: N_10  and  C_11
REMARK    6  A    between atoms: C_12  and  C_24
REMARK                            x       y       z     vdW  Elec       q    Type
REMARK                         _______ _______ _______ _____ _____    ______ ____
ROOT
ATOM      1  C   UNL     1      -2.927   0.547   4.622  0.00  0.00    +0.090 A 
ATOM      2  C   UNL     1      -3.377   0.982   5.863  0.00  0.00    +0.088 A 
ATOM      3  C   UNL     1      -4.808   1.141   6.042  0.00  0.00    +0.012 A 
ATOM      4  C   UNL     1      -5.588   0.858   4.951  0.00  0.00    +0.001 A 
ATOM      5  S   UNL     1      -4.444   0.367   3.698  0.00  0.00    -0.077 S 
ATOM      6  C   UNL     1      -7.075   0.984   4.906  0.00  0.00    +0.048 C 
ATOM      7  C   UNL     1      -7.655   0.705   6.293  0.00  0.00    +0.041 C 
ATOM      8  C   UNL     1      -6.882   1.404   7.377  0.00  0.00    -0.039 A 
ATOM      9  C   UNL     1      -5.505   1.600   7.283  0.00  0.00    -0.013 A 
ATOM     10  C   UNL     1      -4.799   2.211   8.309  0.00  0.00    +0.009 A 
ATOM     11  C   UNL     1      -5.475   2.651   9.432  0.00  0.00    +0.001 A 
ATOM     12  C   UNL     1      -6.845   2.481   9.520  0.00  0.00    +0.000 A 
ATOM     13  C   UNL     1      -7.546   1.861   8.502  0.00  0.00    +0.004 A 
ENDROOT
BRANCH   1  16
ATOM     14  C   UNL     1      -1.385  -0.102   2.945  0.00  0.00    +0.237 C 
ATOM     15  O   UNL     1      -2.308  -0.278   2.178  0.00  0.00    -0.273 OA
ATOM     16  N   UNL     1      -1.625   0.316   4.204  0.00  0.00    -0.277 N 
ATOM     17  H   UNL     1      -0.886   0.456   4.817  0.00  0.00    +0.155 HD
BRANCH  14  18
ATOM     18  C   UNL     1       0.030  -0.353   2.491  0.00  0.00    +0.219 C 
BRANCH  18  24
ATOM     19  C   UNL     1      -0.018   1.503   0.010  0.00  0.00    +0.086 C 
ATOM     20  C   UNL     1       0.002  -0.004   0.002  0.00  0.00    +0.110 A 
ATOM     21  N   UNL     1       0.008  -0.759  -1.063  0.00  0.00    -0.210 NA
ATOM     22  C   UNL     1       0.028  -2.047  -0.691  0.00  0.00    +0.233 A 
ATOM     23  C   UNL     1       0.034  -2.093   0.655  0.00  0.00    +0.141 A 
ATOM     24  N   UNL     1       0.023  -0.797   1.095  0.00  0.00    -0.323 N 
BRANCH  22  25
ATOM     25  N   UNL     1       0.039  -3.215  -1.601  0.00  0.00    +0.077 N 
ATOM     26  O   UNL     1       0.032  -3.048  -2.799  0.00  0.00    -0.125 OA
ATOM     27  O   UNL     1       0.057  -4.335  -1.147  0.00  0.00    -0.125 OA
ENDBRANCH  22  25
ENDBRANCH  18  24
ENDBRANCH  14  18
ENDBRANCH   1  16
BRANCH   2  28
ATOM     28  C   UNL     1      -2.461   1.262   6.927  0.00  0.00    +0.102 C 
ATOM     29  N   UNL     1      -1.734   1.485   7.771  0.00  0.00    -0.191 NA
ENDBRANCH   2  28
TORSDOF 5
