REMARK  Name = ZINC30619100
REMARK  8 active torsions:
REMARK  status: ('A' for Active; 'I' for Inactive)
REMARK    1  A    between atoms: C_1  and  C_2
REMARK    2  A    between atoms: C_6  and  C_29
REMARK    3  A    between atoms: C_7  and  N_8
REMARK    4  A    between atoms: C_9  and  C_11
REMARK    5  A    between atoms: C_11  and  N_12
REMARK    6  A    between atoms: C_13  and  C_15
REMARK    7  A    between atoms: C_16  and  C_17
REMARK    8  A    between atoms: C_22  and  N_23
REMARK                            x       y       z     vdW  Elec       q    Type
REMARK                         _______ _______ _______ _____ _____    ______ ____
ROOT
ATOM      1  N   UNL     1      -0.146  -0.759   5.923  0.00  0.00    -0.303 N 
ATOM      2  C   UNL     1      -0.335  -0.261   7.160  0.00  0.00    +0.237 C 
ATOM      3  O   UNL     1      -0.323   0.943   7.340  0.00  0.00    -0.271 OA
ATOM      4  H   UNL     1      -0.156  -1.719   5.779  0.00  0.00    +0.149 HD
ENDROOT
BRANCH   2   5
ATOM      5  C   UNL     1      -0.555  -1.167   8.288  0.00  0.00    +0.068 C 
ATOM      6  C   UNL     1      -0.745  -0.668   9.527  0.00  0.00    +0.015 C 
BRANCH   6   7
ATOM      7  C   UNL     1      -0.966  -1.578  10.660  0.00  0.00    +0.009 A 
ATOM      8  C   UNL     1      -1.071  -2.957  10.443  0.00  0.00    +0.059 A 
ATOM      9  C   UNL     1      -1.278  -3.808  11.510  0.00  0.00    +0.167 A 
ATOM     10  C   UNL     1      -1.382  -3.293  12.804  0.00  0.00    +0.168 A 
ATOM     11  C   UNL     1      -1.276  -1.925  13.019  0.00  0.00    +0.082 A 
ATOM     12  C   UNL     1      -1.065  -1.070  11.960  0.00  0.00    +0.137 A 
ATOM     13  O   UNL     1      -1.583  -4.328  13.669  0.00  0.00    -0.453 OA
ATOM     14  C   UNL     1      -2.011  -5.434  12.853  0.00  0.00    +0.466 C 
ATOM     15  O   UNL     1      -1.415  -5.165  11.570  0.00  0.00    -0.453 OA
BRANCH  12  16
ATOM     16  N   UNL     1      -0.948   0.387  12.197  0.00  0.00    +0.057 N 
ATOM     17  O   UNL     1      -0.367   0.795  13.175  0.00  0.00    -0.126 OA
ATOM     18  O   UNL     1      -1.432   1.168  11.411  0.00  0.00    -0.126 OA
ENDBRANCH  12  16
ENDBRANCH   6   7
ENDBRANCH   2   5
BRANCH   1  19
ATOM     19  C   UNL     1       0.074   0.148   4.793  0.00  0.00    +0.200 C 
BRANCH  19  21
ATOM     20  N   UNL     1       0.474  -0.028   2.359  0.00  0.00    -0.284 N 
ATOM     21  C   UNL     1       0.256  -0.655   3.532  0.00  0.00    +0.234 C 
ATOM     22  O   UNL     1       0.207  -1.867   3.571  0.00  0.00    -0.274 OA
ATOM     23  H   UNL     1       0.562   0.938   2.334  0.00  0.00    +0.155 HD
BRANCH  20  30
ATOM     24  C   UNL     1       2.596   0.581   0.563  0.00  0.00    +0.045 C 
ATOM     25  C   UNL     1       1.593  -0.506   0.272  0.00  0.00    -0.029 A 
ATOM     26  C   UNL     1       1.691  -1.244  -0.891  0.00  0.00    +0.005 A 
ATOM     27  C   UNL     1       0.771  -2.240  -1.159  0.00  0.00    +0.001 A 
ATOM     28  C   UNL     1      -0.250  -2.502  -0.263  0.00  0.00    +0.005 A 
ATOM     29  C   UNL     1      -0.353  -1.768   0.902  0.00  0.00    -0.029 A 
ATOM     30  C   UNL     1       0.572  -0.770   1.176  0.00  0.00    +0.039 A 
ATOM     31  C   UNL     1      -1.466  -2.054   1.877  0.00  0.00    +0.045 C 
ENDBRANCH  20  30
ENDBRANCH  19  21
ENDBRANCH   1  19
TORSDOF 6
