REMARK  Name = ZINC15659483
REMARK  6 active torsions:
REMARK  status: ('A' for Active; 'I' for Inactive)
REMARK    1  A    between atoms: C_1  and  C_2
REMARK    2  A    between atoms: C_2  and  C_4
REMARK    3  A    between atoms: C_2  and  N_14
REMARK    4  A    between atoms: C_15  and  C_17
REMARK    5  A    between atoms: C_20  and  N_26
REMARK    6  A    between atoms: C_21  and  N_23
REMARK                            x       y       z     vdW  Elec       q    Type
REMARK                         _______ _______ _______ _____ _____    ______ ____
ROOT
ATOM      1  N   UNL     1       2.539  -3.990  -0.873  0.00  0.00    -0.308 N 
ATOM      2  C   UNL     1       2.499  -2.794  -0.252  0.00  0.00    +0.244 C 
ATOM      3  O   UNL     1       3.517  -2.311   0.204  0.00  0.00    -0.270 OA
ATOM      4  H   UNL     1       1.727  -4.375  -1.237  0.00  0.00    +0.149 HD
ENDROOT
BRANCH   2   5
ATOM      5  C   UNL     1       1.217  -2.071  -0.124  0.00  0.00    +0.039 A 
ATOM      6  C   UNL     1       0.046  -2.625  -0.648  0.00  0.00    +0.015 A 
ATOM      7  C   UNL     1      -1.147  -1.948  -0.527  0.00  0.00    +0.031 A 
ATOM      8  C   UNL     1      -1.187  -0.715   0.115  0.00  0.00    +0.097 A 
ATOM      9  C   UNL     1      -0.024  -0.161   0.636  0.00  0.00    +0.152 A 
ATOM     10  C   UNL     1       1.174  -0.830   0.514  0.00  0.00    +0.048 A 
BRANCH   8  11
ATOM     11  N   UNL     1      -2.401  -0.030   0.235  0.00  0.00    -0.218 N 
ATOM     12  C   UNL     1      -3.363  -0.246   1.154  0.00  0.00    +0.225 A 
ATOM     13  N   UNL     1      -4.334   0.601   0.929  0.00  0.00    -0.222 NA
ATOM     14  C   UNL     1      -4.036   1.364  -0.122  0.00  0.00    +0.245 A 
ATOM     15  N   UNL     1      -2.862   1.015  -0.582  0.00  0.00    -0.153 NA
ENDBRANCH   8  11
BRANCH   9  16
ATOM     16  N   UNL     1      -0.071   1.152   1.318  0.00  0.00    +0.059 N 
ATOM     17  O   UNL     1       0.961   1.686   1.683  0.00  0.00    -0.126 OA
ATOM     18  O   UNL     1      -1.142   1.700   1.510  0.00  0.00    -0.126 OA
ENDBRANCH   9  16
ENDBRANCH   2   5
BRANCH   1  20
ATOM     19  C   UNL     1       4.064  -5.522   0.270  0.00  0.00    +0.028 C 
ATOM     20  C   UNL     1       3.811  -4.707  -1.000  0.00  0.00    +0.076 C 
BRANCH  20  21
ATOM     21  C   UNL     1       3.749  -5.646  -2.206  0.00  0.00    -0.010 C 
ATOM     22  C   UNL     1       3.495  -4.830  -3.475  0.00  0.00    +0.012 C 
ATOM     23  C   UNL     1       3.433  -5.769  -4.681  0.00  0.00    -0.010 C 
ATOM     24  C   UNL     1       4.761  -6.518  -4.813  0.00  0.00    +0.007 C 
ATOM     25  C   UNL     1       5.014  -7.334  -3.544  0.00  0.00    -0.010 C 
ATOM     26  C   UNL     1       5.076  -6.395  -2.338  0.00  0.00    +0.012 C 
ATOM     27  C   UNL     1       3.879  -8.340  -3.349  0.00  0.00    +0.007 C 
ATOM     28  C   UNL     1       2.551  -7.591  -3.217  0.00  0.00    -0.010 C 
ATOM     29  C   UNL     1       2.297  -6.775  -4.487  0.00  0.00    +0.007 C 
ATOM     30  C   UNL     1       2.613  -6.652  -2.011  0.00  0.00    +0.012 C 
ENDBRANCH  20  21
ENDBRANCH   1  20
TORSDOF 5
