REMARK  Name = ZINC20065223
REMARK  10 active torsions:
REMARK  status: ('A' for Active; 'I' for Inactive)
REMARK    1  A    between atoms: C_1  and  C_2
REMARK    2  A    between atoms: C_2  and  C_4
REMARK    3  A    between atoms: C_2  and  N_22
REMARK    4  A    between atoms: N_6  and  C_7
REMARK    5  A    between atoms: C_16  and  C_17
REMARK    6  A    between atoms: C_17  and  O_19
REMARK    7  A    between atoms: O_19  and  C_20
REMARK    8  A    between atoms: N_25  and  C_28
REMARK    9  A    between atoms: C_28  and  C_29
REMARK   10  A    between atoms: C_30  and  C_31
REMARK                            x       y       z     vdW  Elec       q    Type
REMARK                         _______ _______ _______ _____ _____    ______ ____
ROOT
ATOM      1  C   UNL     1      -0.734   1.376   0.143  0.00  0.00    +0.234 C 
ATOM      2  O   UNL     1      -0.854   1.936   1.212  0.00  0.00    -0.274 OA
ATOM      3  N   UNL     1      -0.995   2.042  -1.000  0.00  0.00    -0.282 N 
ATOM      4  H   UNL     1      -0.954   1.578  -1.851  0.00  0.00    +0.155 HD
ENDROOT
BRANCH   3   5
ATOM      5  C   UNL     1      -1.325   3.392  -0.959  0.00  0.00    +0.073 A 
ATOM      6  C   UNL     1      -0.929   4.358   0.070  0.00  0.00    +0.023 A 
ATOM      7  C   UNL     1      -0.167   4.262   1.238  0.00  0.00    +0.031 A 
ATOM      8  C   UNL     1       0.030   5.370   2.013  0.00  0.00    +0.042 A 
ATOM      9  C   UNL     1      -0.522   6.593   1.649  0.00  0.00    +0.022 A 
ATOM     10  C   UNL     1      -1.276   6.710   0.503  0.00  0.00    +0.028 A 
ATOM     11  C   UNL     1      -1.490   5.594  -0.304  0.00  0.00    +0.049 A 
ATOM     12  N   UNL     1      -2.182   5.408  -1.478  0.00  0.00    -0.348 N 
ATOM     13  H   UNL     1      -2.666   6.101  -1.955  0.00  0.00    +0.166 HD
ATOM     14  C   UNL     1      -2.082   4.085  -1.881  0.00  0.00    +0.147 A 
ATOM     15 CL   UNL     1       0.977   5.250   3.463  0.00  0.00    -0.084 Cl
BRANCH  14  16
ATOM     16  C   UNL     1      -2.665   3.533  -3.050  0.00  0.00    +0.357 C 
ATOM     17  O   UNL     1      -2.601   2.335  -3.254  0.00  0.00    -0.243 OA
BRANCH  16  18
ATOM     18  O   UNL     1      -3.291   4.336  -3.935  0.00  0.00    -0.463 OA
ATOM     19  C   UNL     1      -3.856   3.712  -5.090  0.00  0.00    +0.280 C 
ENDBRANCH  16  18
ENDBRANCH  14  16
ENDBRANCH   3   5
BRANCH   1  21
ATOM     20  C   UNL     1       1.165  -0.135  -0.367  0.00  0.00    +0.034 C 
ATOM     21  C   UNL     1      -0.293  -0.064   0.092  0.00  0.00    +0.140 C 
BRANCH  21  22
ATOM     22  N   UNL     1      -0.415  -0.661   1.429  0.00  0.00    -0.295 NA
ATOM     23  C   UNL     1      -0.391  -2.128   1.355  0.00  0.00    +0.066 C 
ATOM     24  C   UNL     1      -0.580  -2.710   2.757  0.00  0.00    -0.063 C 
ATOM     25  N   UNL     1       0.495  -2.230   3.635  0.00  0.00    +0.384 N 
ATOM     26  C   UNL     1       0.443  -0.764   3.719  0.00  0.00    -0.063 C 
ATOM     27  C   UNL     1       0.640  -0.166   2.324  0.00  0.00    +0.066 C 
ATOM     28  H   UNL     1       1.387  -2.514   3.260  0.00  0.00    -0.081 HD
BRANCH  25  29
ATOM     29  C   UNL     1       0.323  -2.803   4.977  0.00  0.00    -0.051 C 
BRANCH  29  30
ATOM     30  C   UNL     1       1.492  -2.410   5.844  0.00  0.00    -0.045 C 
ATOM     31  C   UNL     1       1.282  -1.797   7.001  0.00  0.00    +0.002 C 
BRANCH  31  32
ATOM     32  C   UNL     1       2.428  -1.412   7.851  0.00  0.00    -0.025 A 
ATOM     33  C   UNL     1       3.732  -1.687   7.437  0.00  0.00    +0.008 A 
ATOM     34  C   UNL     1       4.797  -1.324   8.236  0.00  0.00    +0.001 A 
ATOM     35  C   UNL     1       4.574  -0.690   9.445  0.00  0.00    +0.000 A 
ATOM     36  C   UNL     1       3.284  -0.415   9.862  0.00  0.00    +0.001 A 
ATOM     37  C   UNL     1       2.211  -0.766   9.069  0.00  0.00    +0.008 A 
ENDBRANCH  31  32
ENDBRANCH  29  30
ENDBRANCH  25  29
ENDBRANCH  21  22
ENDBRANCH   1  21
TORSDOF 8
