REMARK  Name = ZINC21930284
REMARK  6 active torsions:
REMARK  status: ('A' for Active; 'I' for Inactive)
REMARK    1  A    between atoms: C_1  and  N_2
REMARK    2  A    between atoms: C_7  and  N_23
REMARK    3  A    between atoms: C_14  and  N_17
REMARK    4  A    between atoms: N_23  and  C_24
REMARK    5  A    between atoms: C_24  and  C_25
REMARK    6  A    between atoms: C_25  and  C_26
REMARK                            x       y       z     vdW  Elec       q    Type
REMARK                         _______ _______ _______ _____ _____    ______ ____
ROOT
ATOM      1  C   UNL     1      -1.832   3.151   0.044  0.00  0.00    +0.174 C 
ATOM      2  N   UNL     1      -1.329   1.775   0.030  0.00  0.00    -0.249 N 
ATOM      3  C   UNL     1      -0.017   1.404   0.010  0.00  0.00    +0.165 A 
ATOM      4  C   UNL     1       0.002  -0.004   0.002  0.00  0.00    +0.078 A 
ATOM      5  C   UNL     1      -1.342  -0.436   0.013  0.00  0.00    +0.148 A 
ATOM      6  N   UNL     1      -2.113   0.614   0.025  0.00  0.00    -0.177 NA
ATOM      7  C   UNL     1       1.250  -0.657  -0.013  0.00  0.00    +0.135 A 
ATOM      8  N   UNL     1       2.352   0.083  -0.020  0.00  0.00    -0.199 NA
ATOM      9  C   UNL     1       2.289   1.409  -0.012  0.00  0.00    +0.221 A 
ATOM     10  N   UNL     1       1.140   2.064   0.002  0.00  0.00    -0.195 NA
ATOM     11  N   UNL     1       3.468   2.133  -0.019  0.00  0.00    -0.300 N 
ATOM     12  C   UNL     1       3.503   3.071  -1.148  0.00  0.00    +0.106 C 
ATOM     13  C   UNL     1       4.749   3.953  -1.042  0.00  0.00    +0.004 C 
ATOM     14  C   UNL     1       5.998   3.067  -1.052  0.00  0.00    -0.066 C 
ATOM     15  C   UNL     1       5.914   2.067   0.105  0.00  0.00    +0.004 C 
ATOM     16  C   UNL     1       4.633   1.240  -0.035  0.00  0.00    +0.106 C 
ENDROOT
BRANCH  14  17
ATOM     17  N   UNL     1       7.195   3.903  -0.891  0.00  0.00    +0.382 N 
ATOM     18  C   UNL     1       7.141   4.663   0.364  0.00  0.00    -0.078 C 
ATOM     19  C   UNL     1       8.463   5.408   0.568  0.00  0.00    -0.019 C 
ATOM     20  C   UNL     1       8.698   6.353  -0.613  0.00  0.00    -0.004 C 
ATOM     21  C   UNL     1       8.701   5.543  -1.913  0.00  0.00    -0.019 C 
ATOM     22  C   UNL     1       7.373   4.795  -2.045  0.00  0.00    -0.078 C 
ATOM     23  H   UNL     1       8.070   3.239  -0.843  0.00  0.00    -0.081 HD
ENDBRANCH  14  17
BRANCH   7  24
ATOM     24  N   UNL     1       1.326  -2.036  -0.021  0.00  0.00    -0.328 N 
ATOM     25  H   UNL     1       0.405  -2.637  -0.015  0.00  0.00    +0.147 HD
BRANCH  24  26
ATOM     26  C   UNL     1       2.633  -2.698  -0.037  0.00  0.00    +0.108 C 
BRANCH  26  27
ATOM     27  C   UNL     1       2.436  -4.215  -0.043  0.00  0.00    +0.061 C 
BRANCH  27  28
ATOM     28  C   UNL     1       3.780  -4.896  -0.059  0.00  0.00    -0.009 A 
ATOM     29  C   UNL     1       4.554  -5.282   0.984  0.00  0.00    +0.011 A 
ATOM     30  C   UNL     1       5.764  -5.901   0.729  0.00  0.00    +0.008 A 
ATOM     31  C   UNL     1       6.145  -6.093  -0.558  0.00  0.00    +0.045 A 
ATOM     32  S   UNL     1       4.770  -5.397  -1.458  0.00  0.00    -0.102 S 
ENDBRANCH  27  28
ENDBRANCH  26  27
ENDBRANCH  24  26
ENDBRANCH   7  24
TORSDOF 5
