REMARK  Name = ZINC19850551
REMARK  7 active torsions:
REMARK  status: ('A' for Active; 'I' for Inactive)
REMARK    1  A    between atoms: C_1  and  C_2
REMARK    2  A    between atoms: C_2  and  C_24
REMARK    3  A    between atoms: N_3  and  N_4
REMARK    4  A    between atoms: C_5  and  C_7
REMARK    5  A    between atoms: C_7  and  N_8
REMARK    6  A    between atoms: N_11  and  S_14
REMARK    7  A    between atoms: S_14  and  C_17
REMARK                            x       y       z     vdW  Elec       q    Type
REMARK                         _______ _______ _______ _____ _____    ______ ____
ROOT
ATOM      1  N   UNL     1      -0.781   1.747   1.376  0.00  0.00    +0.387 N 
ATOM      2  C   UNL     1      -0.156   1.513   0.067  0.00  0.00    -0.061 C 
ATOM      3  C   UNL     1      -0.978   2.211  -1.021  0.00  0.00    +0.091 C 
ATOM      4  N   UNL     1      -1.136   3.626  -0.652  0.00  0.00    -0.180 NA
ATOM      5  C   UNL     1      -1.630   3.942   0.697  0.00  0.00    +0.091 C 
ATOM      6  C   UNL     1      -0.782   3.176   1.718  0.00  0.00    -0.061 C 
ATOM      7  H   UNL     1      -1.829   1.419   1.309  0.00  0.00    -0.081 HD
ENDROOT
BRANCH   4   8
ATOM      8  S   UNL     1      -0.769   4.831  -1.727  0.00  0.00    +0.061 S 
ATOM      9  O   UNL     1      -0.482   5.989  -0.955  0.00  0.00    -0.153 OA
ATOM     10  O   UNL     1       0.161   4.282  -2.651  0.00  0.00    -0.153 OA
BRANCH   8  11
ATOM     11  C   UNL     1      -2.236   5.183  -2.637  0.00  0.00    +0.106 A 
ATOM     12  C   UNL     1      -2.499   4.504  -3.812  0.00  0.00    +0.029 A 
ATOM     13  C   UNL     1      -3.652   4.776  -4.524  0.00  0.00    +0.017 A 
ATOM     14  C   UNL     1      -4.537   5.735  -4.066  0.00  0.00    +0.018 A 
ATOM     15  C   UNL     1      -4.271   6.418  -2.893  0.00  0.00    +0.017 A 
ATOM     16  C   UNL     1      -3.120   6.142  -2.179  0.00  0.00    +0.029 A 
ATOM     17 BR   UNL     1      -6.112   6.113  -5.043  0.00  0.00    -0.050 Br
ENDBRANCH   8  11
ENDBRANCH   4   8
BRANCH   1  18
ATOM     18  C   UNL     1      -0.123   0.955   2.423  0.00  0.00    +0.020 C 
BRANCH  18  20
ATOM     19  N   UNL     1       2.065   0.918   3.575  0.00  0.00    -0.208 N 
ATOM     20  C   UNL     1       1.300   1.423   2.588  0.00  0.00    +0.216 C 
ATOM     21  O   UNL     1       1.756   2.255   1.832  0.00  0.00    -0.276 OA
ATOM     22  H   UNL     1       1.652   0.164   4.261  0.00  0.00    +0.177 HD
BRANCH  19  25
ATOM     23  C   UNL     1       3.561  -0.168   5.620  0.00  0.00    +0.068 C 
ATOM     24  C   UNL     1       4.127   0.865   4.681  0.00  0.00    +0.070 C 
ATOM     25  N   UNL     1       3.388   1.353   3.728  0.00  0.00    -0.184 NA
BRANCH  24  26
ATOM     26  C   UNL     1       5.512   1.321   4.841  0.00  0.00    +0.035 A 
ATOM     27  C   UNL     1       6.217   2.250   4.095  0.00  0.00    +0.017 A 
ATOM     28  C   UNL     1       7.521   2.513   4.443  0.00  0.00    +0.008 A 
ATOM     29  C   UNL     1       8.073   1.859   5.498  0.00  0.00    +0.046 A 
ATOM     30  S   UNL     1       6.726   0.827   6.053  0.00  0.00    -0.095 S 
ENDBRANCH  24  26
ENDBRANCH  19  25
ENDBRANCH  18  20
ENDBRANCH   1  18
TORSDOF 6
