REMARK  Name = ZINC49814761
REMARK  3 active torsions:
REMARK  status: ('A' for Active; 'I' for Inactive)
REMARK    1  A    between atoms: C_1  and  C_2
REMARK    2  A    between atoms: C_5  and  C_8
REMARK    3  A    between atoms: C_10  and  C_15
REMARK                            x       y       z     vdW  Elec       q    Type
REMARK                         _______ _______ _______ _____ _____    ______ ____
ROOT
ATOM      1  C   UNL     1       0.059  -4.256  -0.021  0.00  0.00    -0.000 A 
ATOM      2  C   UNL     1      -1.033  -4.979   0.489  0.00  0.00    +0.034 A 
ATOM      3  C   UNL     1      -0.986  -6.369   0.467  0.00  0.00    +0.116 A 
ATOM      4  C   UNL     1       0.161  -7.010  -0.068  0.00  0.00    +0.266 A 
ATOM      5  N   UNL     1       1.184  -6.278  -0.546  0.00  0.00    -0.327 N 
ATOM      6  C   UNL     1       1.146  -4.931  -0.534  0.00  0.00    +0.094 A 
ATOM      7  O   UNL     1       0.220  -8.227  -0.095  0.00  0.00    -0.267 OA
ATOM      8  H   UNL     1       1.963  -6.729  -0.909  0.00  0.00    +0.168 HD
ENDROOT
BRANCH   1  13
ATOM      9  C   UNL     1      -0.018   1.503   0.010  0.00  0.00    +0.044 C 
ATOM     10  C   UNL     1       0.002  -0.004   0.002  0.00  0.00    -0.050 A 
ATOM     11  C   UNL     1       0.006  -0.687  -1.201  0.00  0.00    +0.004 A 
ATOM     12  C   UNL     1       0.024  -2.067  -1.214  0.00  0.00    +0.009 A 
ATOM     13  C   UNL     1       0.040  -2.772  -0.013  0.00  0.00    -0.016 A 
ATOM     14  C   UNL     1       0.036  -2.080   1.196  0.00  0.00    +0.009 A 
ATOM     15  C   UNL     1       0.023  -0.700   1.198  0.00  0.00    +0.004 A 
ENDBRANCH   1  13
BRANCH   3  16
ATOM     16  C   UNL     1      -2.079  -7.141   0.978  0.00  0.00    +0.105 C 
ATOM     17  N   UNL     1      -2.946  -7.753   1.383  0.00  0.00    -0.191 NA
ENDBRANCH   3  16
TORSDOF 2
