REMARK  Name = ZINC16378123
REMARK  13 active torsions:
REMARK  status: ('A' for Active; 'I' for Inactive)
REMARK    1  A    between atoms: C_1  and  C_2
REMARK    2  A    between atoms: C_2  and  C_3
REMARK    3  A    between atoms: C_3  and  N_55
REMARK    4  A    between atoms: C_4  and  C_5
REMARK    5  A    between atoms: C_4  and  N_55
REMARK    6  A    between atoms: N_7  and  C_8
REMARK    7  A    between atoms: C_11  and  O_15
REMARK    8  A    between atoms: O_15  and  C_16
REMARK    9  A    between atoms: C_19  and  C_20
REMARK   10  A    between atoms: C_19  and  N_55
REMARK   11  A    between atoms: N_22  and  C_23
REMARK   12  A    between atoms: C_28  and  O_29
REMARK   13  A    between atoms: O_29  and  C_30
REMARK                            x       y       z     vdW  Elec       q    Type
REMARK                         _______ _______ _______ _____ _____    ______ ____
ROOT
ATOM      1  N   UNL     1      -5.806   2.927   0.780  0.00  0.00    +0.391 N 
ATOM      2  H   UNL     1      -5.732   2.409   1.663  0.00  0.00    -0.080 HD
ENDROOT
BRANCH   1   3
ATOM      3  C   UNL     1      -5.563   1.998  -0.344  0.00  0.00    -0.078 C 
BRANCH   3   5
ATOM      4  C   UNL     1      -4.078   0.161  -1.157  0.00  0.00    +0.002 C 
ATOM      5  C   UNL     1      -4.399   1.077   0.026  0.00  0.00    -0.022 C 
ENDBRANCH   3   5
ENDBRANCH   1   3
BRANCH   1   6
ATOM      6  C   UNL     1      -4.797   4.007   0.769  0.00  0.00    +0.020 C 
BRANCH   6   7
ATOM      7  C   UNL     1      -4.769   4.654   2.130  0.00  0.00    +0.201 C 
ATOM      8  O   UNL     1      -5.432   4.192   3.035  0.00  0.00    -0.278 OA
ATOM      9  N   UNL     1      -4.006   5.745   2.342  0.00  0.00    -0.287 N 
ATOM     10  H   UNL     1      -3.531   6.156   1.603  0.00  0.00    +0.155 HD
BRANCH   9  11
ATOM     11  C   UNL     1      -3.899   6.286   3.630  0.00  0.00    +0.035 A 
ATOM     12  C   UNL     1      -3.828   7.662   3.802  0.00  0.00    +0.027 A 
ATOM     13  C   UNL     1      -3.717   8.194   5.071  0.00  0.00    +0.049 A 
ATOM     14  C   UNL     1      -3.688   7.356   6.176  0.00  0.00    +0.145 A 
ATOM     15  C   UNL     1      -3.765   5.980   6.006  0.00  0.00    +0.084 A 
ATOM     16  C   UNL     1      -3.871   5.446   4.736  0.00  0.00    +0.047 A 
ATOM     17 CL   UNL     1      -3.730   4.931   7.388  0.00  0.00    -0.080 Cl
BRANCH  14  18
ATOM     18  O   UNL     1      -3.584   7.881   7.426  0.00  0.00    -0.433 OA
BRANCH  18  19
ATOM     19  C   UNL     1      -3.510   9.305   7.527  0.00  0.00    +0.541 C 
ATOM     20  F   UNL     1      -2.385   9.763   6.832  0.00  0.00    -0.166 F 
ATOM     21  F   UNL     1      -4.663   9.873   6.975  0.00  0.00    -0.166 F 
ENDBRANCH  18  19
ENDBRANCH  14  18
ENDBRANCH   9  11
ENDBRANCH   6   7
ENDBRANCH   1   6
BRANCH   1  22
ATOM     22  C   UNL     1      -7.164   3.503   0.674  0.00  0.00    +0.020 C 
BRANCH  22  23
ATOM     23  C   UNL     1      -8.175   2.410   0.907  0.00  0.00    +0.201 C 
ATOM     24  O   UNL     1      -7.803   1.276   1.120  0.00  0.00    -0.278 OA
ATOM     25  N   UNL     1      -9.492   2.694   0.879  0.00  0.00    -0.284 N 
ATOM     26  H   UNL     1      -9.792   3.583   0.633  0.00  0.00    +0.155 HD
BRANCH  25  27
ATOM     27  C   UNL     1     -10.429   1.704   1.205  0.00  0.00    +0.076 A 
ATOM     28  C   UNL     1     -10.039   0.592   1.936  0.00  0.00    +0.027 A 
ATOM     29  C   UNL     1     -10.966  -0.381   2.260  0.00  0.00    +0.002 A 
ATOM     30  C   UNL     1     -12.280  -0.253   1.850  0.00  0.00    +0.004 A 
ATOM     31  C   UNL     1     -12.675   0.851   1.117  0.00  0.00    +0.047 A 
ATOM     32  C   UNL     1     -11.753   1.833   0.792  0.00  0.00    +0.141 A 
BRANCH  32  33
ATOM     33  O   UNL     1     -12.139   2.919   0.070  0.00  0.00    -0.493 OA
ATOM     34  C   UNL     1     -13.513   2.983  -0.320  0.00  0.00    +0.277 C 
ENDBRANCH  32  33
ENDBRANCH  25  27
ENDBRANCH  22  23
ENDBRANCH   1  22
TORSDOF 11
