REMARK  Name = ZINC56806571
REMARK  4 active torsions:
REMARK  status: ('A' for Active; 'I' for Inactive)
REMARK    1  A    between atoms: C_6  and  C_7
REMARK    2  A    between atoms: N_9  and  N_10
REMARK    3  A    between atoms: N_13  and  C_14
REMARK    4  A    between atoms: N_23  and  C_25
REMARK                            x       y       z     vdW  Elec       q    Type
REMARK                         _______ _______ _______ _____ _____    ______ ____
ROOT
ATOM      1  N   UNL     1      -2.446  -2.830   0.011  0.00  0.00    -0.218 N 
ATOM      2  C   UNL     1      -2.425  -4.178   0.004  0.00  0.00    +0.316 C 
ATOM      3  O   UNL     1      -3.468  -4.803   0.011  0.00  0.00    -0.251 OA
ATOM      4  N   UNL     1      -1.248  -4.833  -0.011  0.00  0.00    -0.295 N 
ATOM      5  H   UNL     1      -3.294  -2.359   0.022  0.00  0.00    +0.174 HD
ATOM      6  H   UNL     1      -0.415  -4.335  -0.017  0.00  0.00    +0.151 HD
ENDROOT
BRANCH   4   7
ATOM      7  C   UNL     1      -1.224  -6.295  -0.020  0.00  0.00    +0.077 C 
ATOM      8  C   UNL     1      -1.316  -6.821  -1.454  0.00  0.00    -0.007 C 
ATOM      9  C   UNL     1      -1.406  -8.342  -1.429  0.00  0.00    +0.003 C 
ATOM     10  C   UNL     1      -0.249  -8.987  -0.683  0.00  0.00    +0.001 C 
ATOM     11  C   UNL     1       0.044  -8.331   0.657  0.00  0.00    +0.003 C 
ATOM     12  C   UNL     1       0.090  -6.809   0.571  0.00  0.00    -0.007 C 
ATOM     13  C   UNL     1       1.268  -6.330  -0.264  0.00  0.00    -0.073 C 
ATOM     14  N   UNL     1       1.161  -6.690  -1.674  0.00  0.00    +0.382 N 
ATOM     15  C   UNL     1      -0.125  -6.342  -2.269  0.00  0.00    -0.073 C 
ATOM     16  H   UNL     1       1.350  -7.672  -1.800  0.00  0.00    -0.081 HD
BRANCH  14  17
ATOM     17  C   UNL     1       2.211  -5.971  -2.407  0.00  0.00    -0.069 C 
ATOM     18  C   UNL     1       3.118  -6.790  -3.327  0.00  0.00    -0.017 C 
ATOM     19  C   UNL     1       3.663  -6.239  -2.007  0.00  0.00    -0.017 C 
ENDBRANCH  14  17
ENDBRANCH   4   7
BRANCH   1  22
ATOM     20  C   UNL     1      -1.266  -0.763   0.011  0.00  0.00    +0.260 C 
ATOM     21  O   UNL     1      -2.328  -0.172   0.024  0.00  0.00    -0.269 OA
ATOM     22  N   UNL     1      -1.244  -2.111   0.003  0.00  0.00    -0.229 N 
ATOM     23  H   UNL     1      -0.397  -2.582  -0.008  0.00  0.00    +0.173 HD
BRANCH  20  29
ATOM     24  C   UNL     1      -0.017   1.392   0.010  0.00  0.00    +0.014 A 
ATOM     25  C   UNL     1       1.169   2.095   0.002  0.00  0.00    +0.021 A 
ATOM     26  C   UNL     1       2.378   1.419  -0.013  0.00  0.00    +0.041 A 
ATOM     27  C   UNL     1       2.403   0.034  -0.022  0.00  0.00    +0.021 A 
ATOM     28  C   UNL     1       1.224  -0.680  -0.014  0.00  0.00    +0.014 A 
ATOM     29  C   UNL     1       0.002  -0.004   0.002  0.00  0.00    +0.038 A 
ATOM     30 CL   UNL     1       3.868   2.310  -0.024  0.00  0.00    -0.084 Cl
ENDBRANCH  20  29
ENDBRANCH   1  22
TORSDOF 4
