REMARK  Name = ZINC08713291
REMARK  8 active torsions:
REMARK  status: ('A' for Active; 'I' for Inactive)
REMARK    1  A    between atoms: C_1  and  C_2
REMARK    2  A    between atoms: C_9  and  C_14
REMARK    3  A    between atoms: C_14  and  O_16
REMARK    4  A    between atoms: O_16  and  C_17
REMARK    5  A    between atoms: C_17  and  C_19
REMARK    6  A    between atoms: C_17  and  C_20
REMARK    7  A    between atoms: N_22  and  C_23
REMARK    8  A    between atoms: C_27  and  N_29
REMARK                            x       y       z     vdW  Elec       q    Type
REMARK                         _______ _______ _______ _____ _____    ______ ____
ROOT
ATOM      1  O   UNL     1       1.143   1.899   0.004  0.00  0.00    -0.449 OA
ENDROOT
BRANCH   1   2
ATOM      2  C   UNL     1      -0.016   1.211   0.018  0.00  0.00    +0.340 C 
ATOM      3  O   UNL     1      -0.001  -0.004   0.019  0.00  0.00    -0.245 OA
BRANCH   2  11
ATOM      4  C   UNL     1      -7.809   3.369  -0.597  0.00  0.00    +0.029 C 
ATOM      5  C   UNL     1      -6.348   2.988  -0.847  0.00  0.00    +0.134 C 
ATOM      6  C   UNL     1      -6.095   1.597  -0.333  0.00  0.00    +0.230 C 
ATOM      7  O   UNL     1      -7.032   0.831  -0.267  0.00  0.00    -0.274 OA
ATOM      8  N   UNL     1      -4.899   1.162   0.055  0.00  0.00    -0.284 N 
ATOM      9  C   UNL     1      -3.712   1.890   0.041  0.00  0.00    +0.048 A 
ATOM     10  C   UNL     1      -2.501   1.217   0.028  0.00  0.00    +0.039 A 
ATOM     11  C   UNL     1      -1.301   1.932   0.025  0.00  0.00    +0.061 A 
ATOM     12  C   UNL     1      -1.317   3.330   0.023  0.00  0.00    +0.016 A 
ATOM     13  C   UNL     1      -2.520   4.000   0.028  0.00  0.00    +0.017 A 
ATOM     14  C   UNL     1      -3.713   3.290   0.035  0.00  0.00    +0.030 A 
ATOM     15  S   UNL     1      -5.257   4.146   0.032  0.00  0.00    -0.111 S 
ATOM     16  H   UNL     1      -4.849   0.249   0.378  0.00  0.00    +0.155 HD
ENDBRANCH   2  11
ENDBRANCH   1   2
BRANCH   1  17
ATOM     17  C   UNL     1       2.370   1.123  -0.009  0.00  0.00    +0.259 C 
ATOM     18  C   UNL     1       2.785   0.849  -1.456  0.00  0.00    +0.062 C 
BRANCH  17  19
ATOM     19  C   UNL     1       3.460   1.897   0.688  0.00  0.00    +0.258 C 
ATOM     20  O   UNL     1       3.225   2.993   1.150  0.00  0.00    -0.271 OA
ATOM     21  N   UNL     1       4.695   1.369   0.798  0.00  0.00    -0.282 N 
ATOM     22  H   UNL     1       4.866   0.466   0.489  0.00  0.00    +0.155 HD
BRANCH  21  23
ATOM     23  C   UNL     1       5.731   2.125   1.358  0.00  0.00    +0.036 A 
ATOM     24  C   UNL     1       5.466   3.007   2.397  0.00  0.00    +0.023 A 
ATOM     25  C   UNL     1       6.490   3.752   2.948  0.00  0.00    +0.004 A 
ATOM     26  C   UNL     1       7.780   3.619   2.466  0.00  0.00    +0.033 A 
ATOM     27  C   UNL     1       8.047   2.742   1.431  0.00  0.00    +0.128 A 
ATOM     28  C   UNL     1       7.028   1.990   0.880  0.00  0.00    +0.056 A 
BRANCH  27  29
ATOM     29  N   UNL     1       9.429   2.603   0.919  0.00  0.00    +0.056 N 
ATOM     30  O   UNL     1      10.329   3.261   1.408  0.00  0.00    -0.126 OA
ATOM     31  O   UNL     1       9.665   1.830   0.007  0.00  0.00    -0.126 OA
ENDBRANCH  27  29
ENDBRANCH  21  23
ENDBRANCH  17  19
ENDBRANCH   1  17
TORSDOF 6
