REMARK  Name = ZINC38610104
REMARK  7 active torsions:
REMARK  status: ('A' for Active; 'I' for Inactive)
REMARK    1  A    between atoms: C_1  and  C_2
REMARK    2  A    between atoms: C_2  and  C_4
REMARK    3  A    between atoms: C_2  and  N_22
REMARK    4  A    between atoms: N_6  and  C_7
REMARK    5  A    between atoms: C_15  and  C_17
REMARK    6  A    between atoms: C_17  and  O_19
REMARK    7  A    between atoms: O_19  and  C_20
REMARK                            x       y       z     vdW  Elec       q    Type
REMARK                         _______ _______ _______ _____ _____    ______ ____
ROOT
ATOM      1  C   UNL     1      -1.888   0.253  -0.359  0.00  0.00    +0.203 C 
ATOM      2  O   UNL     1      -1.637  -0.726   0.310  0.00  0.00    -0.277 OA
ATOM      3  N   UNL     1      -3.106   0.394  -0.918  0.00  0.00    -0.288 N 
ATOM      4  H   UNL     1      -3.285   1.140  -1.511  0.00  0.00    +0.155 HD
ENDROOT
BRANCH   3   5
ATOM      5  C   UNL     1      -4.087  -0.513  -0.650  0.00  0.00    +0.053 C 
ATOM      6  C   UNL     1      -5.350  -0.570  -1.214  0.00  0.00    +0.019 A 
ATOM      7  C   UNL     1      -6.000   0.232  -2.183  0.00  0.00    +0.031 A 
ATOM      8  C   UNL     1      -7.270  -0.062  -2.557  0.00  0.00    +0.042 A 
ATOM      9  C   UNL     1      -7.964  -1.144  -2.006  0.00  0.00    +0.022 A 
ATOM     10  C   UNL     1      -7.405  -1.953  -1.074  0.00  0.00    +0.027 A 
ATOM     11  C   UNL     1      -6.078  -1.711  -0.633  0.00  0.00    +0.045 A 
ATOM     12  N   UNL     1      -5.323  -2.339   0.246  0.00  0.00    -0.367 N 
ATOM     13  C   UNL     1      -4.019  -1.671   0.321  0.00  0.00    +0.234 C 
ATOM     14 CL   UNL     1      -8.054   0.930  -3.746  0.00  0.00    -0.084 Cl
ATOM     15  H   UNL     1      -5.585  -3.120   0.757  0.00  0.00    +0.161 HD
BRANCH  13  16
ATOM     16  C   UNL     1      -3.780  -1.163   1.720  0.00  0.00    +0.335 C 
ATOM     17  O   UNL     1      -4.704  -0.742   2.376  0.00  0.00    -0.248 OA
BRANCH  16  18
ATOM     18  O   UNL     1      -2.542  -1.176   2.236  0.00  0.00    -0.466 OA
ATOM     19  C   UNL     1      -2.388  -0.679   3.567  0.00  0.00    +0.280 C 
ENDBRANCH  16  18
ENDBRANCH  13  16
ENDBRANCH   3   5
BRANCH   1  21
ATOM     20  C   UNL     1      -0.989   2.398   0.502  0.00  0.00    -0.004 C 
ATOM     21  C   UNL     1      -0.837   1.314  -0.567  0.00  0.00    +0.016 C 
BRANCH  21  22
ATOM     22  N   UNL     1       0.497   0.708  -0.464  0.00  0.00    +0.387 N 
ATOM     23  C   UNL     1       1.518   1.757  -0.570  0.00  0.00    -0.073 C 
ATOM     24  C   UNL     1       2.907   1.143  -0.378  0.00  0.00    +0.046 C 
ATOM     25  C   UNL     1       3.142   0.081  -1.454  0.00  0.00    +0.167 C 
ATOM     26  C   UNL     1       2.028  -0.966  -1.390  0.00  0.00    +0.046 C 
ATOM     27  C   UNL     1       0.673  -0.271  -1.543  0.00  0.00    -0.073 C 
ATOM     28  O   UNL     1       3.141   0.703  -2.749  0.00  0.00    -0.346 OA
ATOM     29  C   UNL     1       4.538   0.944  -3.044  0.00  0.00    +0.191 C 
ATOM     30  C   UNL     1       5.212  -0.302  -2.415  0.00  0.00    +0.191 C 
ATOM     31  O   UNL     1       4.410  -0.549  -1.242  0.00  0.00    -0.346 OA
ATOM     32  H   UNL     1       0.586   0.244   0.428  0.00  0.00    -0.081 HD
ENDBRANCH  21  22
ENDBRANCH   1  21
TORSDOF 5
