REMARK  Name = ZINC19794374
REMARK  11 active torsions:
REMARK  status: ('A' for Active; 'I' for Inactive)
REMARK    1  A    between atoms: C_1  and  C_2
REMARK    2  A    between atoms: C_2  and  O_3
REMARK    3  A    between atoms: O_3  and  C_4
REMARK    4  A    between atoms: C_4  and  C_6
REMARK    5  A    between atoms: C_7  and  C_32
REMARK    6  A    between atoms: C_10  and  C_11
REMARK    7  A    between atoms: C_14  and  C_16
REMARK    8  A    between atoms: C_16  and  N_17
REMARK    9  A    between atoms: C_18  and  C_20
REMARK   10  A    between atoms: N_22  and  C_23
REMARK   11  A    between atoms: C_26  and  C_29
REMARK                            x       y       z     vdW  Elec       q    Type
REMARK                         _______ _______ _______ _____ _____    ______ ____
ROOT
ATOM      1  C   UNL     1       3.709  -3.364  -6.482  0.00  0.00    +0.130 A 
ATOM      2  C   UNL     1       4.385  -3.260  -7.684  0.00  0.00    +0.049 A 
ATOM      3  C   UNL     1       4.632  -4.570  -8.117  0.00  0.00    +0.047 A 
ATOM      4  C   UNL     1       4.111  -5.404  -7.188  0.00  0.00    +0.123 A 
ATOM      5  O   UNL     1       3.562  -4.677  -6.205  0.00  0.00    -0.459 OA
ENDROOT
BRANCH   1  10
ATOM      6  C   UNL     1       1.482  -2.330  -2.501  0.00  0.00    +0.124 C 
ATOM      7  C   UNL     1       1.658  -3.666  -2.804  0.00  0.00    +0.023 C 
ATOM      8  N   UNL     1       2.310  -3.790  -3.971  0.00  0.00    -0.314 N 
ATOM      9  C   UNL     1       2.599  -2.540  -4.502  0.00  0.00    +0.083 C 
ATOM     10  C   UNL     1       3.258  -2.290  -5.685  0.00  0.00    +0.073 C 
ATOM     11  C   UNL     1       2.085  -1.565  -3.603  0.00  0.00    +0.215 C 
ATOM     12  O   UNL     1       2.135  -0.351  -3.720  0.00  0.00    -0.285 OA
ATOM     13  C   UNL     1       1.188  -4.815  -1.950  0.00  0.00    +0.061 C 
ATOM     14  H   UNL     1       2.546  -4.635  -4.385  0.00  0.00    +0.152 HD
BRANCH   6  15
ATOM     15  C   UNL     1       0.816  -1.781  -1.314  0.00  0.00    +0.344 C 
ATOM     16  O   UNL     1       0.357  -2.530  -0.473  0.00  0.00    -0.245 OA
BRANCH  15  17
ATOM     17  O   UNL     1       0.714  -0.446  -1.155  0.00  0.00    -0.461 OA
BRANCH  17  19
ATOM     18  C   UNL     1       0.034   1.548   0.028  0.00  0.00    +0.048 C 
ATOM     19  C   UNL     1       0.053   0.018   0.024  0.00  0.00    +0.229 C 
ENDBRANCH  17  19
ENDBRANCH  15  17
ENDBRANCH   6  15
ENDBRANCH   1  10
BRANCH   4  20
ATOM     20  C   UNL     1       4.147  -6.909  -7.246  0.00  0.00    +0.179 C 
BRANCH  20  21
ATOM     21  N   UNL     1       5.363  -7.395  -6.588  0.00  0.00    -0.300 N 
ATOM     22  C   UNL     1       5.609  -8.718  -6.518  0.00  0.00    +0.300 C 
ATOM     23  O   UNL     1       4.824  -9.507  -7.001  0.00  0.00    -0.265 OA
ATOM     24  H   UNL     1       5.990  -6.764  -6.202  0.00  0.00    +0.150 HD
BRANCH  22  25
ATOM     25  C   UNL     1       6.848  -9.213  -5.847  0.00  0.00    +0.303 C 
ATOM     26  O   UNL     1       7.633  -8.423  -5.364  0.00  0.00    -0.265 OA
ATOM     27  N   UNL     1       7.094 -10.536  -5.778  0.00  0.00    -0.278 N 
ATOM     28  H   UNL     1       6.436 -11.169  -6.104  0.00  0.00    +0.155 HD
BRANCH  27  29
ATOM     29  C   UNL     1       8.298 -10.995  -5.237  0.00  0.00    +0.034 A 
ATOM     30  C   UNL     1       8.909 -12.128  -5.760  0.00  0.00    +0.023 A 
ATOM     31  C   UNL     1      10.098 -12.579  -5.223  0.00  0.00    +0.005 A 
ATOM     32  C   UNL     1      10.682 -11.905  -4.165  0.00  0.00    -0.050 A 
ATOM     33  C   UNL     1      10.076 -10.777  -3.642  0.00  0.00    +0.005 A 
ATOM     34  C   UNL     1       8.890 -10.316  -4.179  0.00  0.00    +0.023 A 
ATOM     35  C   UNL     1      11.980 -12.400  -3.582  0.00  0.00    +0.044 C 
ENDBRANCH  27  29
ENDBRANCH  22  25
ENDBRANCH  20  21
ENDBRANCH   4  20
TORSDOF 8
