REMARK  Name = ZINC63113673
REMARK  8 active torsions:
REMARK  status: ('A' for Active; 'I' for Inactive)
REMARK    1  A    between atoms: C_1  and  C_2
REMARK    2  A    between atoms: C_2  and  C_3
REMARK    3  A    between atoms: C_3  and  N_4
REMARK    4  A    between atoms: N_4  and  C_5
REMARK    5  A    between atoms: N_4  and  C_12
REMARK    6  A    between atoms: C_10  and  N_11
REMARK    7  A    between atoms: C_12  and  C_14
REMARK    8  A    between atoms: C_12  and  C_15
REMARK                            x       y       z     vdW  Elec       q    Type
REMARK                         _______ _______ _______ _____ _____    ______ ____
ROOT
ATOM      1  N   UNL     1      -1.435  -1.955  -0.135  0.00  0.00    -0.317 N 
ENDROOT
BRANCH   1   2
ATOM      2  C   UNL     1      -1.475  -2.725   1.034  0.00  0.00    +0.051 A 
ATOM      3  C   UNL     1      -2.692  -3.146   1.547  0.00  0.00    +0.025 A 
ATOM      4  C   UNL     1      -2.729  -3.907   2.701  0.00  0.00    +0.002 A 
ATOM      5  C   UNL     1      -1.555  -4.250   3.346  0.00  0.00    +0.002 A 
ATOM      6  C   UNL     1      -0.337  -3.834   2.841  0.00  0.00    +0.024 A 
ATOM      7  C   UNL     1      -0.291  -3.075   1.681  0.00  0.00    +0.046 A 
BRANCH   7   8
ATOM      8  N   UNL     1       0.942  -2.658   1.164  0.00  0.00    -0.357 N 
ATOM      9  H   UNL     1       0.973  -2.124   0.355  0.00  0.00    +0.142 HD
ATOM     10  H   UNL     1       1.765  -2.902   1.616  0.00  0.00    +0.142 HD
ENDBRANCH   7   8
ENDBRANCH   1   2
BRANCH   1  11
ATOM     11  C   UNL     1      -1.348  -2.611  -1.442  0.00  0.00    +0.157 C 
ATOM     12  C   UNL     1      -0.160  -3.575  -1.450  0.00  0.00    +0.038 C 
BRANCH  11  13
ATOM     13  C   UNL     1      -2.619  -3.377  -1.706  0.00  0.00    +0.241 C 
ATOM     14  O   UNL     1      -3.456  -3.479  -0.836  0.00  0.00    -0.273 OA
ATOM     15  N   UNL     1      -2.824  -3.947  -2.910  0.00  0.00    -0.239 N 
ATOM     16  C   UNL     1      -3.960  -4.632  -3.146  0.00  0.00    +0.303 C 
ATOM     17  O   UNL     1      -4.800  -4.735  -2.273  0.00  0.00    -0.253 OA
ATOM     18  N   UNL     1      -4.166  -5.202  -4.350  0.00  0.00    -0.313 N 
ATOM     19  H   UNL     1      -2.154  -3.865  -3.606  0.00  0.00    +0.159 HD
ATOM     20  H   UNL     1      -3.496  -5.120  -5.046  0.00  0.00    +0.146 HD
ATOM     21  H   UNL     1      -4.984  -5.695  -4.520  0.00  0.00    +0.146 HD
ENDBRANCH  11  13
ENDBRANCH   1  11
BRANCH   1  22
ATOM     22  C   UNL     1      -1.481  -0.493  -0.051  0.00  0.00    +0.106 C 
BRANCH  22  24
ATOM     23  C   UNL     1      -0.109   1.593  -0.141  0.00  0.00    +0.005 C 
ATOM     24  C   UNL     1      -0.057   0.065  -0.086  0.00  0.00    +0.015 C 
ENDBRANCH  22  24
ENDBRANCH   1  22
TORSDOF 6
