REMARK  Name = ZINC14162562
REMARK  10 active torsions:
REMARK  status: ('A' for Active; 'I' for Inactive)
REMARK    1  A    between atoms: C_1  and  C_2
REMARK    2  A    between atoms: C_2  and  C_3
REMARK    3  A    between atoms: C_3  and  O_4
REMARK    4  A    between atoms: O_4  and  C_5
REMARK    5  A    between atoms: C_8  and  C_11
REMARK    6  A    between atoms: C_25  and  N_32
REMARK    7  A    between atoms: C_26  and  C_27
REMARK    8  A    between atoms: C_27  and  O_29
REMARK    9  A    between atoms: O_29  and  C_30
REMARK   10  A    between atoms: C_30  and  C_31
REMARK                            x       y       z     vdW  Elec       q    Type
REMARK                         _______ _______ _______ _____ _____    ______ ____
ROOT
ATOM      1  C   UNL     1       2.451   1.160  -0.160  0.00  0.00    +0.101 C 
ATOM      2  C   UNL     1       1.181   1.966  -0.113  0.00  0.00    +0.092 A 
ATOM      3  C   UNL     1       1.224   3.321   0.033  0.00  0.00    +0.152 A 
ATOM      4  C   UNL     1      -0.050   4.056   0.072  0.00  0.00    +0.060 A 
ATOM      5  C   UNL     1      -0.076   5.445   0.217  0.00  0.00    +0.015 A 
ATOM      6  C   UNL     1      -1.286   6.102   0.251  0.00  0.00    +0.001 A 
ATOM      7  C   UNL     1      -2.473   5.392   0.142  0.00  0.00    +0.004 A 
ATOM      8  C   UNL     1      -2.460   4.020  -0.002  0.00  0.00    +0.047 A 
ATOM      9  C   UNL     1      -1.251   3.338  -0.039  0.00  0.00    +0.143 A 
ATOM     10  O   UNL     1      -1.219   1.996  -0.185  0.00  0.00    -0.422 OA
ATOM     11  C   UNL     1      -0.062   1.317  -0.219  0.00  0.00    +0.345 A 
ATOM     12  O   UNL     1      -0.089   0.106  -0.350  0.00  0.00    -0.245 OA
ATOM     13  O   UNL     1       2.392   3.982   0.139  0.00  0.00    -0.441 OA
ATOM     14  C   UNL     1       3.533   3.402  -0.271  0.00  0.00    +0.195 C 
ATOM     15  C   UNL     1       3.626   2.057  -0.434  0.00  0.00    +0.105 C 
ENDROOT
BRANCH   1  19
ATOM     16  C   UNL     1       3.018  -0.811   3.589  0.00  0.00    +0.121 A 
ATOM     17  C   UNL     1       2.901  -1.555   2.424  0.00  0.00    +0.046 A 
ATOM     18  C   UNL     1       2.717  -0.915   1.213  0.00  0.00    +0.008 A 
ATOM     19  C   UNL     1       2.651   0.465   1.162  0.00  0.00    -0.035 A 
ATOM     20  C   UNL     1       2.773   1.208   2.321  0.00  0.00    +0.008 A 
ATOM     21  C   UNL     1       2.951   0.574   3.535  0.00  0.00    +0.046 A 
BRANCH  16  22
ATOM     22  O   UNL     1       3.198  -1.438   4.781  0.00  0.00    -0.492 OA
BRANCH  22  23
ATOM     23  C   UNL     1       3.311  -0.609   5.939  0.00  0.00    +0.229 C 
BRANCH  23  25
ATOM     24  C   UNL     1       3.628  -0.598   8.418  0.00  0.00    +0.007 C 
ATOM     25  C   UNL     1       3.507  -1.486   7.178  0.00  0.00    +0.038 C 
ENDBRANCH  23  25
ENDBRANCH  22  23
ENDBRANCH  16  22
ENDBRANCH   1  19
BRANCH  14  26
ATOM     26  N   UNL     1       4.626   4.184  -0.529  0.00  0.00    -0.329 N 
ATOM     27  H   UNL     1       4.549   5.151  -0.495  0.00  0.00    +0.145 HD
ATOM     28  H   UNL     1       5.477   3.772  -0.746  0.00  0.00    +0.145 HD
ENDBRANCH  14  26
BRANCH  15  29
ATOM     29  C   UNL     1       4.838   1.496  -0.866  0.00  0.00    +0.341 C 
ATOM     30  O   UNL     1       4.976   1.164  -2.029  0.00  0.00    -0.245 OA
BRANCH  29  31
ATOM     31  O   UNL     1       5.852   1.325   0.010  0.00  0.00    -0.462 OA
BRANCH  31  32
ATOM     32  C   UNL     1       7.057   0.748  -0.497  0.00  0.00    +0.229 C 
ATOM     33  C   UNL     1       8.082   0.633   0.632  0.00  0.00    +0.048 C 
ENDBRANCH  31  32
ENDBRANCH  29  31
ENDBRANCH  15  29
TORSDOF 8
