REMARK  Name = ZINC39336744
REMARK  5 active torsions:
REMARK  status: ('A' for Active; 'I' for Inactive)
REMARK    1  A    between atoms: C_4  and  N_7
REMARK    2  A    between atoms: C_9  and  C_18
REMARK    3  A    between atoms: C_10  and  C_13
REMARK    4  A    between atoms: N_19  and  N_20
REMARK    5  A    between atoms: C_21  and  C_27
REMARK                            x       y       z     vdW  Elec       q    Type
REMARK                         _______ _______ _______ _____ _____    ______ ____
ROOT
ATOM      1  N   UNL     1       3.635  -0.696  -0.131  0.00  0.00    -0.242 N 
ATOM      2  C   UNL     1       4.854  -0.072  -0.061  0.00  0.00    +0.100 C 
ATOM      3  C   UNL     1       5.859  -0.938  -0.273  0.00  0.00    +0.011 C 
ATOM      4  C   UNL     1       5.218  -2.289  -0.511  0.00  0.00    +0.142 C 
ATOM      5  N   UNL     1       3.770  -2.028  -0.392  0.00  0.00    -0.224 NA
ATOM      6  H   UNL     1       3.288  -2.281  -1.242  0.00  0.00    +0.146 HD
ENDROOT
BRANCH   1  10
ATOM      7  C   UNL     1      -0.017   1.232   0.402  0.00  0.00    +0.000 A 
ATOM      8  C   UNL     1       1.161   1.951   0.486  0.00  0.00    +0.002 A 
ATOM      9  C   UNL     1       2.374   1.315   0.310  0.00  0.00    +0.025 A 
ATOM     10  C   UNL     1       2.410  -0.049   0.048  0.00  0.00    +0.049 A 
ATOM     11  C   UNL     1       1.224  -0.769  -0.036  0.00  0.00    +0.025 A 
ATOM     12  C   UNL     1       0.015  -0.126   0.141  0.00  0.00    +0.002 A 
ENDBRANCH   1  10
BRANCH   4  13
ATOM     13  C   UNL     1       5.662  -3.275   0.539  0.00  0.00    +0.013 A 
ATOM     14  C   UNL     1       6.615  -4.235   0.459  0.00  0.00    +0.013 A 
ATOM     15  C   UNL     1       6.856  -5.034   1.561  0.00  0.00    +0.008 A 
ATOM     16  C   UNL     1       6.132  -4.833   2.689  0.00  0.00    +0.045 A 
ATOM     17  S   UNL     1       5.074  -3.477   2.212  0.00  0.00    -0.100 S 
ENDBRANCH   4  13
BRANCH   3  18
ATOM     18  C   UNL     1       7.247  -0.644  -0.276  0.00  0.00    +0.137 C 
ATOM     19  N   UNL     1       7.655   0.573  -0.054  0.00  0.00    -0.184 NA
BRANCH  19  20
ATOM     20  N   UNL     1       9.026   0.845   0.044  0.00  0.00    -0.173 N 
ATOM     21  C   UNL     1       9.678   2.161   0.177  0.00  0.00    +0.264 C 
ATOM     22  N   UNL     1      11.112   1.839   0.236  0.00  0.00    -0.189 NA
ATOM     23  N   UNL     1      11.234   0.614   0.153  0.00  0.00    -0.219 N 
ATOM     24  C   UNL     1      10.047  -0.040   0.043  0.00  0.00    +0.174 C 
ATOM     25  S   UNL     1       9.872  -1.738  -0.082  0.00  0.00    -0.015 S 
ATOM     26  H   UNL     1      12.092   0.162   0.169  0.00  0.00    +0.176 HD
BRANCH  21  27
ATOM     27  C   UNL     1       9.235   2.845   1.444  0.00  0.00    +0.001 A 
ATOM     28  C   UNL     1       7.975   2.609   1.975  0.00  0.00    +0.025 A 
ATOM     29  C   UNL     1       7.603   3.255   3.139  0.00  0.00    +0.083 A 
ATOM     30  N   UNL     1       8.429   4.087   3.742  0.00  0.00    -0.367 N 
ATOM     31  C   UNL     1       9.634   4.335   3.266  0.00  0.00    +0.083 A 
ATOM     32  C   UNL     1      10.078   3.722   2.110  0.00  0.00    +0.025 A 
ATOM     33  H   UNL     1       8.143   4.528   4.558  0.00  0.00    +0.165 HD
ENDBRANCH  21  27
ENDBRANCH  19  20
ENDBRANCH   3  18
TORSDOF 5
