REMARK  Name = ZINC39890195
REMARK  4 active torsions:
REMARK  status: ('A' for Active; 'I' for Inactive)
REMARK    1  A    between atoms: C_4  and  C_7
REMARK    2  A    between atoms: C_7  and  N_8
REMARK    3  A    between atoms: N_31  and  C_32
REMARK    4  A    between atoms: C_32  and  C_33
REMARK                            x       y       z     vdW  Elec       q    Type
REMARK                         _______ _______ _______ _____ _____    ______ ____
ROOT
ATOM      1  N   UNL     1       4.152  -0.952   1.338  0.00  0.00    -0.264 N 
ATOM      2  C   UNL     1       4.940  -0.078   2.065  0.00  0.00    +0.043 A 
ATOM      3  C   UNL     1       5.470   1.158   1.691  0.00  0.00    +0.024 A 
ATOM      4  C   UNL     1       6.234   1.831   2.631  0.00  0.00    +0.002 A 
ATOM      5  C   UNL     1       6.470   1.312   3.888  0.00  0.00    +0.000 A 
ATOM      6  C   UNL     1       5.949   0.082   4.273  0.00  0.00    +0.008 A 
ATOM      7  C   UNL     1       5.188  -0.594   3.344  0.00  0.00    +0.011 A 
ATOM      8  C   UNL     1       4.487  -1.913   3.404  0.00  0.00    +0.174 C 
ATOM      9  C   UNL     1       3.832  -2.055   2.047  0.00  0.00    +0.253 C 
ATOM     10  O   UNL     1       3.151  -2.985   1.669  0.00  0.00    -0.272 OA
ATOM     11  C   UNL     1       3.483  -1.982   4.500  0.00  0.00    +0.084 A 
ATOM     12  C   UNL     1       2.315  -1.149   4.804  0.00  0.00    +0.199 A 
ATOM     13  O   UNL     1       1.886  -0.299   4.043  0.00  0.00    -0.287 OA
ATOM     14  C   UNL     1       1.703  -1.438   6.126  0.00  0.00    +0.067 A 
ATOM     15  C   UNL     1       0.707  -0.607   6.639  0.00  0.00    +0.053 A 
ATOM     16  C   UNL     1       0.152  -0.889   7.869  0.00  0.00    +0.124 A 
ATOM     17  C   UNL     1       0.584  -1.996   8.591  0.00  0.00    +0.042 A 
ATOM     18  C   UNL     1       1.565  -2.822   8.092  0.00  0.00    +0.050 A 
ATOM     19  C   UNL     1       2.142  -2.559   6.850  0.00  0.00    +0.140 A 
ATOM     20  O   UNL     1       3.097  -3.393   6.380  0.00  0.00    -0.450 OA
ATOM     21  C   UNL     1       3.815  -3.044   5.295  0.00  0.00    +0.200 A 
ATOM     22  C   UNL     1       5.032  -3.670   4.747  0.00  0.00    +0.284 C 
ATOM     23  O   UNL     1       5.592  -4.637   5.222  0.00  0.00    -0.267 OA
ATOM     24  N   UNL     1       5.431  -3.012   3.637  0.00  0.00    -0.269 N 
ATOM     25  F   UNL     1      -0.814  -0.090   8.374  0.00  0.00    -0.205 F 
ENDROOT
BRANCH   1  26
ATOM     26  C   UNL     1       3.711  -0.707  -0.038  0.00  0.00    +0.148 C 
BRANCH  26  30
ATOM     27  C   UNL     1      -0.017   1.378   0.010  0.00  0.00    +0.000 A 
ATOM     28  C   UNL     1       1.171   2.086   0.002  0.00  0.00    +0.000 A 
ATOM     29  C   UNL     1       2.377   1.411  -0.013  0.00  0.00    +0.005 A 
ATOM     30  C   UNL     1       2.396   0.029  -0.020  0.00  0.00    -0.030 A 
ATOM     31  C   UNL     1       1.208  -0.679  -0.012  0.00  0.00    +0.005 A 
ATOM     32  C   UNL     1       0.002  -0.004   0.002  0.00  0.00    +0.000 A 
ENDBRANCH  26  30
ENDBRANCH   1  26
BRANCH  24  33
ATOM     33  C   UNL     1       6.598  -3.337   2.813  0.00  0.00    +0.145 C 
BRANCH  33  34
ATOM     34  C   UNL     1       7.801  -2.590   3.329  0.00  0.00    -0.030 A 
ATOM     35  C   UNL     1       8.092  -1.329   2.844  0.00  0.00    +0.005 A 
ATOM     36  C   UNL     1       9.195  -0.644   3.317  0.00  0.00    +0.000 A 
ATOM     37  C   UNL     1      10.007  -1.220   4.276  0.00  0.00    +0.000 A 
ATOM     38  C   UNL     1       9.716  -2.480   4.763  0.00  0.00    +0.000 A 
ATOM     39  C   UNL     1       8.610  -3.164   4.293  0.00  0.00    +0.005 A 
ENDBRANCH  33  34
ENDBRANCH  24  33
TORSDOF 4
