REMARK  Name = ZINC08271696
REMARK  4 active torsions:
REMARK  status: ('A' for Active; 'I' for Inactive)
REMARK    1  A    between atoms: C_11  and  C_14
REMARK    2  A    between atoms: C_14  and  C_15
REMARK    3  A    between atoms: N_17  and  N_18
REMARK    4  A    between atoms: C_19  and  C_21
REMARK                            x       y       z     vdW  Elec       q    Type
REMARK                         _______ _______ _______ _____ _____    ______ ____
ROOT
ATOM      1  C   UNL     1      -0.014   1.209   0.009  0.00  0.00    +0.234 C 
ATOM      2  O   UNL     1       0.002  -0.004   0.002  0.00  0.00    -0.274 OA
ATOM      3  N   UNL     1      -1.191   1.867   0.018  0.00  0.00    -0.234 N 
ATOM      4  H   UNL     1      -1.204   2.837   0.023  0.00  0.00    +0.173 HD
ENDROOT
BRANCH   3   5
ATOM      5  N   UNL     1      -2.394   1.150   0.020  0.00  0.00    -0.230 N 
ATOM      6  C   UNL     1      -3.571   1.808   0.029  0.00  0.00    +0.260 C 
ATOM      7  O   UNL     1      -3.587   3.023   0.035  0.00  0.00    -0.269 OA
ATOM      8  H   UNL     1      -2.381   0.180   0.014  0.00  0.00    +0.173 HD
BRANCH   6   9
ATOM      9  C   UNL     1      -4.839   1.052   0.031  0.00  0.00    +0.042 A 
ATOM     10  C   UNL     1      -4.822  -0.345   0.017  0.00  0.00    +0.017 A 
ATOM     11  C   UNL     1      -6.006  -1.048   0.025  0.00  0.00    +0.050 A 
ATOM     12  C   UNL     1      -7.220  -0.373   0.035  0.00  0.00    +0.166 A 
ATOM     13  C   UNL     1      -7.244   1.022   0.042  0.00  0.00    +0.167 A 
ATOM     14  C   UNL     1      -6.059   1.733   0.040  0.00  0.00    +0.062 A 
ATOM     15  O   UNL     1      -8.545   1.435   0.050  0.00  0.00    -0.453 OA
ATOM     16  C   UNL     1      -9.313   0.291  -0.365  0.00  0.00    +0.466 C 
ATOM     17  O   UNL     1      -8.505  -0.830   0.038  0.00  0.00    -0.453 OA
ENDBRANCH   6   9
ENDBRANCH   3   5
BRANCH   1  18
ATOM     18  C   UNL     1       1.280   1.980   0.001  0.00  0.00    +0.136 C 
BRANCH  18  29
ATOM     19  C   UNL     1       2.343   0.438  -5.358  0.00  0.00    +0.001 A 
ATOM     20  C   UNL     1       1.545   1.203  -4.513  0.00  0.00    +0.001 A 
ATOM     21  C   UNL     1       1.750   1.200  -3.165  0.00  0.00    +0.009 A 
ATOM     22  C   UNL     1       2.774   0.418  -2.621  0.00  0.00    -0.007 A 
ATOM     23  C   UNL     1       3.588  -0.363  -3.479  0.00  0.00    -0.017 A 
ATOM     24  C   UNL     1       3.349  -0.335  -4.862  0.00  0.00    +0.008 A 
ATOM     25  C   UNL     1       4.618  -1.150  -2.929  0.00  0.00    +0.012 A 
ATOM     26  C   UNL     1       4.851  -1.168  -1.594  0.00  0.00    +0.047 A 
ATOM     27  C   UNL     1       4.074  -0.420  -0.702  0.00  0.00    +0.136 A 
ATOM     28  C   UNL     1       3.034   0.378  -1.188  0.00  0.00    +0.031 A 
ATOM     29  C   UNL     1       2.439   1.016  -0.016  0.00  0.00    +0.007 A 
ATOM     30  C   UNL     1       3.129   0.566   1.045  0.00  0.00    +0.200 A 
ATOM     31  O   UNL     1       4.091  -0.280   0.639  0.00  0.00    -0.463 OA
ENDBRANCH  18  29
ENDBRANCH   1  18
TORSDOF 4
