REMARK  Name = ZINC03345420
REMARK  6 active torsions:
REMARK  status: ('A' for Active; 'I' for Inactive)
REMARK    1  A    between atoms: C_4  and  C_7
REMARK    2  A    between atoms: C_7  and  C_8
REMARK    3  A    between atoms: C_7  and  N_57
REMARK    4  A    between atoms: C_18  and  N_19
REMARK    5  A    between atoms: C_18  and  N_59
REMARK    6  A    between atoms: C_26  and  N_30
REMARK                            x       y       z     vdW  Elec       q    Type
REMARK                         _______ _______ _______ _____ _____    ______ ____
ROOT
ATOM      1  C   UNL     1      -0.730   1.580   1.267  0.00  0.00    -0.097 C 
ATOM      2  C   UNL     1      -0.013   1.086   0.008  0.00  0.00    -0.096 C 
ATOM      3  C   UNL     1      -0.777   3.042  -1.196  0.00  0.00    -0.096 C 
ATOM      4  C   UNL     1      -1.495   3.536   0.062  0.00  0.00    -0.097 C 
ATOM      5  N   UNL     1      -0.757   3.058   1.250  0.00  0.00    +0.385 N 
ATOM      6  H   UNL     1       0.207   3.409   1.208  0.00  0.00    -0.081 HD
ATOM      7  N   UNL     1      -0.751   1.564  -1.180  0.00  0.00    +0.388 N 
ATOM      8  H   UNL     1      -1.715   1.213  -1.138  0.00  0.00    -0.080 HD
ENDROOT
BRANCH   5   9
ATOM      9  C   UNL     1      -1.399   3.565   2.482  0.00  0.00    -0.007 C 
BRANCH   9  13
ATOM     10  C   UNL     1       0.741   2.091   5.873  0.00  0.00    +0.000 A 
ATOM     11  C   UNL     1      -0.638   2.170   5.907  0.00  0.00    +0.000 A 
ATOM     12  C   UNL     1      -1.331   2.647   4.810  0.00  0.00    +0.002 A 
ATOM     13  C   UNL     1      -0.644   3.045   3.678  0.00  0.00    -0.057 A 
ATOM     14  C   UNL     1       0.736   2.961   3.642  0.00  0.00    +0.002 A 
ATOM     15  C   UNL     1       1.428   2.489   4.741  0.00  0.00    +0.000 A 
ENDBRANCH   9  13
BRANCH   9  16
ATOM     16  C   UNL     1      -1.351   5.071   2.474  0.00  0.00    -0.057 A 
ATOM     17  C   UNL     1      -0.225   5.724   2.010  0.00  0.00    +0.002 A 
ATOM     18  C   UNL     1      -0.183   7.106   1.997  0.00  0.00    +0.000 A 
ATOM     19  C   UNL     1      -1.264   7.834   2.458  0.00  0.00    +0.000 A 
ATOM     20  C   UNL     1      -2.388   7.181   2.927  0.00  0.00    +0.000 A 
ATOM     21  C   UNL     1      -2.432   5.799   2.935  0.00  0.00    +0.002 A 
ENDBRANCH   9  16
ENDBRANCH   5   9
BRANCH   7  22
ATOM     22  C   UNL     1      -0.109   1.057  -2.412  0.00  0.00    +0.041 C 
BRANCH  22  23
ATOM     23  N   UNL     1      -0.403   1.964  -3.523  0.00  0.00    -0.251 N 
ATOM     24  C   UNL     1       0.368   3.007  -3.879  0.00  0.00    +0.252 C 
ATOM     25  O   UNL     1       1.402   3.342  -3.337  0.00  0.00    -0.270 OA
ATOM     26  C   UNL     1      -0.254   3.679  -5.040  0.00  0.00    +0.052 A 
ATOM     27  C   UNL     1       0.079   4.778  -5.815  0.00  0.00    +0.014 A 
ATOM     28  C   UNL     1      -0.746   5.155  -6.863  0.00  0.00    +0.003 A 
ATOM     29  C   UNL     1      -1.898   4.442  -7.140  0.00  0.00    +0.033 A 
ATOM     30  C   UNL     1      -2.244   3.341  -6.373  0.00  0.00    +0.139 A 
ATOM     31  C   UNL     1      -1.428   2.952  -5.322  0.00  0.00    +0.079 A 
ATOM     32  C   UNL     1      -1.477   1.860  -4.327  0.00  0.00    +0.254 C 
ATOM     33  O   UNL     1      -2.344   1.013  -4.246  0.00  0.00    -0.270 OA
BRANCH  30  34
ATOM     34  N   UNL     1      -3.478   2.582  -6.676  0.00  0.00    +0.057 N 
ATOM     35  O   UNL     1      -4.193   2.926  -7.600  0.00  0.00    -0.126 OA
ATOM     36  O   UNL     1      -3.780   1.615  -6.000  0.00  0.00    -0.126 OA
ENDBRANCH  30  34
ENDBRANCH  22  23
ENDBRANCH   7  22
TORSDOF 6
