REMARK  Name = ZINC16872754
REMARK  10 active torsions:
REMARK  status: ('A' for Active; 'I' for Inactive)
REMARK    1  A    between atoms: C_1  and  C_2
REMARK    2  A    between atoms: C_2  and  C_3
REMARK    3  A    between atoms: C_3  and  N_4
REMARK    4  A    between atoms: C_17  and  S_18
REMARK    5  A    between atoms: S_18  and  C_19
REMARK    6  A    between atoms: C_19  and  C_21
REMARK    7  A    between atoms: C_19  and  C_22
REMARK    8  A    between atoms: N_24  and  C_25
REMARK    9  A    between atoms: C_30  and  C_31
REMARK   10  A    between atoms: C_31  and  C_33
REMARK                            x       y       z     vdW  Elec       q    Type
REMARK                         _______ _______ _______ _____ _____    ______ ____
ROOT
ATOM      1  N   UNL     1       7.344   2.877  -1.467  0.00  0.00    -0.277 N 
ATOM      2  C   UNL     1       7.904   1.776  -2.010  0.00  0.00    +0.263 A 
ATOM      3  O   UNL     1       9.070   1.781  -2.356  0.00  0.00    -0.267 OA
ATOM      4  C   UNL     1       7.077   0.567  -2.176  0.00  0.00    +0.064 A 
ATOM      5  C   UNL     1       7.604  -0.599  -2.730  0.00  0.00    +0.015 A 
ATOM      6  C   UNL     1       6.800  -1.711  -2.869  0.00  0.00    +0.001 A 
ATOM      7  C   UNL     1       5.476  -1.673  -2.461  0.00  0.00    +0.002 A 
ATOM      8  C   UNL     1       4.943  -0.524  -1.911  0.00  0.00    +0.027 A 
ATOM      9  C   UNL     1       5.737   0.603  -1.764  0.00  0.00    +0.064 A 
ATOM     10  N   UNL     1       5.224   1.775  -1.210  0.00  0.00    -0.256 N 
ATOM     11  C   UNL     1       6.016   2.881  -1.069  0.00  0.00    +0.240 A 
ATOM     12  N   UNL     1       5.287   3.830  -0.527  0.00  0.00    -0.109 NA
ATOM     13  N   UNL     1       3.998   3.325  -0.320  0.00  0.00    -0.120 NA
ATOM     14  C   UNL     1       3.978   2.081  -0.733  0.00  0.00    +0.198 A 
ENDROOT
BRANCH   1  15
ATOM     15  C   UNL     1       8.152   4.087  -1.296  0.00  0.00    +0.128 C 
BRANCH  15  17
ATOM     16  C   UNL     1       9.671   5.323   0.257  0.00  0.00    +0.005 C 
ATOM     17  C   UNL     1       8.826   4.059   0.077  0.00  0.00    +0.018 C 
ENDBRANCH  15  17
ENDBRANCH   1  15
BRANCH  14  18
ATOM     18  S   UNL     1       2.591   0.996  -0.688  0.00  0.00    -0.073 S 
BRANCH  18  19
ATOM     19  C   UNL     1       1.272   2.001   0.049  0.00  0.00    +0.137 C 
ATOM     20  C   UNL     1       1.642   2.347   1.493  0.00  0.00    +0.029 C 
BRANCH  19  21
ATOM     21  C   UNL     1      -0.019   1.224   0.034  0.00  0.00    +0.230 C 
ATOM     22  O   UNL     1       0.003   0.011   0.014  0.00  0.00    -0.274 OA
ATOM     23  N   UNL     1      -1.198   1.877   0.037  0.00  0.00    -0.284 N 
ATOM     24  H   UNL     1      -1.218   2.843   0.118  0.00  0.00    +0.155 HD
BRANCH  23  25
ATOM     25  C   UNL     1      -2.388   1.164  -0.076  0.00  0.00    +0.044 A 
ATOM     26  C   UNL     1      -2.509  -0.090   0.508  0.00  0.00    +0.024 A 
ATOM     27  C   UNL     1      -3.692  -0.793   0.399  0.00  0.00    +0.002 A 
ATOM     28  C   UNL     1      -4.764  -0.261  -0.301  0.00  0.00    +0.001 A 
ATOM     29  C   UNL     1      -4.663   0.979  -0.892  0.00  0.00    +0.013 A 
ATOM     30  C   UNL     1      -3.472   1.707  -0.786  0.00  0.00    +0.038 A 
BRANCH  30  31
ATOM     31  C   UNL     1      -3.357   3.029  -1.414  0.00  0.00    +0.162 C 
ATOM     32  O   UNL     1      -2.293   3.613  -1.407  0.00  0.00    -0.292 OA
ATOM     33  C   UNL     1      -4.559   3.661  -2.067  0.00  0.00    +0.091 C 
ENDBRANCH  30  31
ENDBRANCH  23  25
ENDBRANCH  19  21
ENDBRANCH  18  19
ENDBRANCH  14  18
TORSDOF 7
