REMARK  Name = ZINC40542215
REMARK  3 active torsions:
REMARK  status: ('A' for Active; 'I' for Inactive)
REMARK    1  A    between atoms: C_1  and  C_2
REMARK    2  A    between atoms: C_5  and  C_13
REMARK    3  A    between atoms: N_11  and  N_12
REMARK                            x       y       z     vdW  Elec       q    Type
REMARK                         _______ _______ _______ _____ _____    ______ ____
ROOT
ATOM      1  C   UNL     1      -0.018   1.503   0.010  0.00  0.00    +0.046 C 
ATOM      2  C   UNL     1       0.002  -0.004   0.002  0.00  0.00    -0.023 A 
ATOM      3  C   UNL     1       0.005  -0.675  -1.193  0.00  0.00    +0.020 A 
ATOM      4  C   UNL     1       0.024  -2.062  -1.246  0.00  0.00    +0.018 A 
ATOM      5  C   UNL     1       0.040  -2.784  -0.066  0.00  0.00    -0.021 A 
ATOM      6  C   UNL     1       0.036  -2.120   1.135  0.00  0.00    +0.045 A 
ATOM      7  C   UNL     1       0.023  -0.709   1.227  0.00  0.00    +0.084 A 
ATOM      8  N   UNL     1       0.028  -0.204   2.480  0.00  0.00    -0.224 NA
ATOM      9  C   UNL     1       0.048  -0.969   3.548  0.00  0.00    +0.173 A 
ATOM     10  S   UNL     1       0.050  -2.611   2.842  0.00  0.00    -0.051 S 
ATOM     11  N   UNL     1       0.055  -0.598   4.878  0.00  0.00    -0.262 N 
ATOM     12  C   UNL     1       0.059  -4.290  -0.099  0.00  0.00    +0.046 C 
ATOM     13  I   UNL     1       0.028  -3.051  -3.093  0.00  0.00    -0.043 I 
ATOM     14  H   UNL     1       0.044   0.341   5.120  0.00  0.00    +0.168 HD
ENDROOT
BRANCH  11  15
ATOM     15  N   UNL     1       0.077  -1.554   5.853  0.00  0.00    -0.255 NA
ATOM     16  H   UNL     1       0.080  -1.135   6.771  0.00  0.00    +0.140 HD
ATOM     17  H   UNL     1      -0.697  -2.194   5.750  0.00  0.00    +0.140 HD
ENDBRANCH  11  15
TORSDOF 1
