REMARK  Name = ZINC32636227
REMARK  8 active torsions:
REMARK  status: ('A' for Active; 'I' for Inactive)
REMARK    1  A    between atoms: C_1  and  C_2
REMARK    2  A    between atoms: C_5  and  S_9
REMARK    3  A    between atoms: C_6  and  C_8
REMARK    4  A    between atoms: S_9  and  N_12
REMARK    5  A    between atoms: C_18  and  C_20
REMARK    6  A    between atoms: C_20  and  N_21
REMARK    7  A    between atoms: C_24  and  C_28
REMARK    8  A    between atoms: C_24  and  C_29
REMARK                            x       y       z     vdW  Elec       q    Type
REMARK                         _______ _______ _______ _____ _____    ______ ____
ROOT
ATOM      1  N   UNL     1       3.369   1.119  -1.518  0.00  0.00    -0.174 NA
ATOM      2  C   UNL     1       2.997   0.261  -2.652  0.00  0.00    +0.128 C 
ATOM      3  C   UNL     1       2.509   1.159  -3.801  0.00  0.00    +0.125 C 
ATOM      4  N   UNL     1       3.498   2.224  -4.015  0.00  0.00    -0.298 N 
ATOM      5  C   UNL     1       3.875   3.079  -2.880  0.00  0.00    +0.125 C 
ATOM      6  C   UNL     1       4.359   2.184  -1.732  0.00  0.00    +0.128 C 
ATOM      7  C   UNL     1       4.050   2.414  -5.230  0.00  0.00    +0.234 C 
ATOM      8  O   UNL     1       4.865   3.297  -5.394  0.00  0.00    -0.274 OA
ENDROOT
BRANCH   1   9
ATOM      9  S   UNL     1       2.691   0.885  -0.025  0.00  0.00    +0.061 S 
ATOM     10  O   UNL     1       3.545   1.526   0.913  0.00  0.00    -0.153 OA
ATOM     11  O   UNL     1       2.364  -0.495   0.060  0.00  0.00    -0.153 OA
BRANCH   9  16
ATOM     12  C   UNL     1      -2.533   3.903   0.052  0.00  0.00    +0.044 C 
ATOM     13  C   UNL     1      -1.228   3.149   0.033  0.00  0.00    -0.050 A 
ATOM     14  C   UNL     1      -1.228   1.766   0.033  0.00  0.00    +0.005 A 
ATOM     15  C   UNL     1      -0.032   1.075   0.021  0.00  0.00    +0.029 A 
ATOM     16  C   UNL     1       1.166   1.766  -0.002  0.00  0.00    +0.108 A 
ATOM     17  C   UNL     1       1.166   3.148  -0.008  0.00  0.00    -0.024 A 
ATOM     18  C   UNL     1      -0.031   3.840   0.010  0.00  0.00    +0.008 A 
ATOM     19  C   UNL     1       2.471   3.902  -0.033  0.00  0.00    +0.046 C 
ENDBRANCH   9  16
ENDBRANCH   1   9
BRANCH   7  20
ATOM     20  C   UNL     1       3.654   1.530  -6.384  0.00  0.00    +0.213 C 
BRANCH  20  21
ATOM     21  N   UNL     1       4.388   1.937  -7.585  0.00  0.00    -0.215 N 
ATOM     22  C   UNL     1       5.588   1.438  -7.944  0.00  0.00    +0.251 C 
ATOM     23  O   UNL     1       6.239   0.601  -7.356  0.00  0.00    -0.272 OA
ATOM     24  C   UNL     1       5.954   2.142  -9.235  0.00  0.00    +0.135 C 
ATOM     25  N   UNL     1       4.811   3.039  -9.477  0.00  0.00    -0.281 N 
ATOM     26  C   UNL     1       3.948   2.845  -8.463  0.00  0.00    +0.310 C 
ATOM     27  O   UNL     1       2.889   3.430  -8.356  0.00  0.00    -0.252 OA
ATOM     28  C   UNL     1       6.096   1.133 -10.377  0.00  0.00    +0.047 C 
ATOM     29  H   UNL     1       4.802   3.692 -10.362  0.00  0.00    +0.152 HD
BRANCH  24  30
ATOM     30  C   UNL     1       7.224   2.935  -9.065  0.00  0.00    -0.015 A 
ATOM     31  C   UNL     1       8.185   2.515  -8.165  0.00  0.00    +0.007 A 
ATOM     32  C   UNL     1       9.353   3.239  -8.012  0.00  0.00    +0.020 A 
ATOM     33  C   UNL     1       9.555   4.389  -8.754  0.00  0.00    +0.041 A 
ATOM     34  C   UNL     1       8.590   4.812  -9.651  0.00  0.00    +0.020 A 
ATOM     35  C   UNL     1       7.426   4.084  -9.806  0.00  0.00    +0.007 A 
ATOM     36 CL   UNL     1      11.018   5.302  -8.558  0.00  0.00    -0.084 Cl
ENDBRANCH  24  30
ENDBRANCH  20  21
ENDBRANCH   7  20
TORSDOF 5
