REMARK  Name = ZINC09608285
REMARK  10 active torsions:
REMARK  status: ('A' for Active; 'I' for Inactive)
REMARK    1  A    between atoms: C_1  and  C_2
REMARK    2  A    between atoms: C_2  and  C_3
REMARK    3  A    between atoms: C_9  and  C_10
REMARK    4  A    between atoms: C_9  and  N_68
REMARK    5  A    between atoms: C_10  and  N_11
REMARK    6  A    between atoms: C_12  and  C_14
REMARK    7  A    between atoms: C_17  and  C_20
REMARK    8  A    between atoms: C_20  and  N_21
REMARK    9  A    between atoms: N_21  and  S_22
REMARK   10  A    between atoms: S_22  and  C_25
REMARK                            x       y       z     vdW  Elec       q    Type
REMARK                         _______ _______ _______ _____ _____    ______ ____
ROOT
ATOM      1  C   UNL     1      -4.245  -3.127   3.991  0.00  0.00    +0.075 C 
ATOM      2  C   UNL     1      -4.267  -1.648   4.381  0.00  0.00    +0.013 C 
ATOM      3  C   UNL     1      -3.814  -0.799   3.192  0.00  0.00    +0.005 C 
ATOM      4  C   UNL     1      -2.393  -1.199   2.791  0.00  0.00    +0.005 C 
ATOM      5  C   UNL     1      -2.371  -2.678   2.400  0.00  0.00    +0.005 C 
ATOM      6  C   UNL     1      -2.823  -3.527   3.590  0.00  0.00    +0.013 C 
ENDROOT
BRANCH   1   8
ATOM      7  N   UNL     1      -4.749  -5.304   5.050  0.00  0.00    -0.317 N 
ATOM      8  C   UNL     1      -4.690  -3.963   5.163  0.00  0.00    +0.216 C 
ATOM      9  O   UNL     1      -4.996  -3.428   6.207  0.00  0.00    -0.276 OA
ATOM     10  H   UNL     1      -4.505  -5.732   4.214  0.00  0.00    +0.149 HD
BRANCH   7  11
ATOM     11  C   UNL     1      -5.183  -6.117   6.189  0.00  0.00    +0.085 C 
BRANCH  11  12
ATOM     12  C   UNL     1      -5.160  -7.596   5.798  0.00  0.00    -0.059 C 
BRANCH  12  18
ATOM     13  C   UNL     1      -5.924  -9.778   6.517  0.00  0.00    -0.069 C 
ATOM     14  C   UNL     1      -6.509 -10.553   7.700  0.00  0.00    -0.015 C 
ATOM     15  C   UNL     1      -5.486 -10.585   8.839  0.00  0.00    -0.003 C 
ATOM     16  C   UNL     1      -5.123  -9.149   9.229  0.00  0.00    -0.019 C 
ATOM     17  C   UNL     1      -4.579  -8.415   8.001  0.00  0.00    -0.078 C 
ATOM     18  N   UNL     1      -5.619  -8.398   6.951  0.00  0.00    +0.383 N 
ATOM     19  H   UNL     1      -6.472  -7.973   7.334  0.00  0.00    -0.081 HD
BRANCH  13  21
ATOM     20  C   UNL     1      -8.179  -8.938   5.844  0.00  0.00    +0.002 C 
ATOM     21  C   UNL     1      -6.951  -9.726   5.384  0.00  0.00    -0.019 C 
ENDBRANCH  13  21
ENDBRANCH  12  18
ENDBRANCH  11  12
ENDBRANCH   7  11
ENDBRANCH   1   8
BRANCH   4  22
ATOM     22  C   UNL     1      -1.941  -0.350   1.601  0.00  0.00    +0.109 C 
BRANCH  22  23
ATOM     23  N   UNL     1      -0.540  -0.648   1.293  0.00  0.00    -0.190 NA
ATOM     24  H   UNL     1       0.007  -1.126   1.937  0.00  0.00    +0.148 HD
BRANCH  23  25
ATOM     25  S   UNL     1       0.110  -0.171  -0.153  0.00  0.00    +0.061 S 
ATOM     26  O   UNL     1      -0.799  -0.585  -1.163  0.00  0.00    -0.153 OA
ATOM     27  O   UNL     1       1.472  -0.577  -0.141  0.00  0.00    -0.153 OA
BRANCH  25  28
ATOM     28  C   UNL     1       0.110   1.591  -0.167  0.00  0.00    +0.133 A 
ATOM     29  C   UNL     1       1.283   2.268  -0.188  0.00  0.00    +0.031 A 
ATOM     30  C   UNL     1       1.321   3.662  -0.200  0.00  0.00    +0.004 A 
ATOM     31  C   UNL     1       0.186   4.402  -0.192  0.00  0.00    +0.031 A 
ATOM     32  C   UNL     1      -1.079   3.760  -0.170  0.00  0.00    +0.102 A 
ATOM     33  C   UNL     1      -1.119   2.301  -0.163  0.00  0.00    +0.126 A 
ATOM     34  N   UNL     1      -2.366   1.835  -0.138  0.00  0.00    -0.189 NA
ATOM     35  S   UNL     1      -3.303   3.091  -0.137  0.00  0.00    +0.117 S 
ATOM     36  N   UNL     1      -2.299   4.294  -0.159  0.00  0.00    -0.191 NA
ENDBRANCH  25  28
ENDBRANCH  23  25
ENDBRANCH  22  23
ENDBRANCH   4  22
TORSDOF 9
