REMARK  Name = ZINC35368234
REMARK  4 active torsions:
REMARK  status: ('A' for Active; 'I' for Inactive)
REMARK    1  A    between atoms: C_4  and  C_10
REMARK    2  A    between atoms: C_6  and  N_7
REMARK    3  A    between atoms: C_10  and  N_11
REMARK    4  A    between atoms: N_11  and  C_12
REMARK                            x       y       z     vdW  Elec       q    Type
REMARK                         _______ _______ _______ _____ _____    ______ ____
ROOT
ATOM      1  N   UNL     1       4.300  -0.629  -1.381  0.00  0.00    +0.386 N 
ATOM      2  H   UNL     1       3.739  -1.059  -2.101  0.00  0.00    -0.085 HD
ATOM      3  H   UNL     1       4.386   0.359  -1.567  0.00  0.00    -0.085 HD
ENDROOT
BRANCH   1   4
ATOM      4  C   UNL     1       5.635  -1.242  -1.368  0.00  0.00    -0.037 C 
ATOM      5  C   UNL     1       6.542  -0.484  -0.392  0.00  0.00    -0.011 C 
ATOM      6  C   UNL     1       7.990  -0.949  -0.576  0.00  0.00    +0.006 C 
ATOM      7  C   UNL     1       8.521  -0.448  -1.924  0.00  0.00    +0.074 C 
ATOM      8  C   UNL     1       7.521  -0.809  -2.995  0.00  0.00    +0.106 A 
ATOM      9  C   UNL     1       6.243  -1.162  -2.744  0.00  0.00    -0.020 A 
ATOM     10  C   UNL     1       5.633  -1.426  -3.983  0.00  0.00    +0.043 A 
ATOM     11  C   UNL     1       6.572  -1.218  -4.928  0.00  0.00    +0.195 A 
ATOM     12  O   UNL     1       7.713  -0.842  -4.319  0.00  0.00    -0.468 OA
ENDBRANCH   1   4
BRANCH   1  13
ATOM     13  C   UNL     1       3.657  -0.827  -0.075  0.00  0.00    -0.044 C 
BRANCH  13  17
ATOM     14  C   UNL     1      -0.355   0.634  -0.227  0.00  0.00    +0.034 A 
ATOM     15  C   UNL     1       0.701   1.523  -0.159  0.00  0.00    +0.022 A 
ATOM     16  C   UNL     1       2.001   1.050  -0.110  0.00  0.00    +0.042 A 
ATOM     17  C   UNL     1       2.242  -0.312  -0.128  0.00  0.00    -0.044 A 
ATOM     18  C   UNL     1       1.185  -1.200  -0.196  0.00  0.00    +0.036 A 
ATOM     19  C   UNL     1      -0.113  -0.727  -0.246  0.00  0.00    +0.126 A 
ATOM     20 CL   UNL     1       3.328   2.166  -0.025  0.00  0.00    -0.083 Cl
BRANCH  19  21
ATOM     21  N   UNL     1      -1.245  -1.678  -0.318  0.00  0.00    +0.056 N 
ATOM     22  O   UNL     1      -2.380  -1.265  -0.361  0.00  0.00    -0.126 OA
ATOM     23  O   UNL     1      -1.034  -2.869  -0.334  0.00  0.00    -0.126 OA
ENDBRANCH  19  21
ENDBRANCH  13  17
ENDBRANCH   1  13
TORSDOF 4
