REMARK  Name = ZINC09374173
REMARK  7 active torsions:
REMARK  status: ('A' for Active; 'I' for Inactive)
REMARK    1  A    between atoms: C_1  and  C_2
REMARK    2  A    between atoms: C_9  and  C_10
REMARK    3  A    between atoms: C_9  and  N_57
REMARK    4  A    between atoms: C_10  and  N_11
REMARK    5  A    between atoms: C_12  and  C_13
REMARK    6  A    between atoms: C_14  and  O_31
REMARK    7  A    between atoms: N_18  and  C_21
REMARK                            x       y       z     vdW  Elec       q    Type
REMARK                         _______ _______ _______ _____ _____    ______ ____
ROOT
ATOM      1  C   UNL     1       2.415   0.106   0.062  0.00  0.00    +0.199 C 
ATOM      2  C   UNL     1       2.292   1.570   0.111  0.00  0.00    +0.198 C 
ATOM      3  N   UNL     1       1.080   2.100   0.139  0.00  0.00    -0.131 NA
ATOM      4  C   UNL     1      -0.019   1.351   0.125  0.00  0.00    +0.339 C 
ATOM      5  O   UNL     1      -1.100   1.913   0.148  0.00  0.00    -0.250 OA
ATOM      6  N   UNL     1      -0.002   0.010   0.082  0.00  0.00    -0.191 N 
ATOM      7  C   UNL     1       1.163  -0.671   0.049  0.00  0.00    +0.245 C 
ATOM      8  O   UNL     1       1.179  -1.887   0.010  0.00  0.00    -0.274 OA
ENDROOT
BRANCH   6   9
ATOM      9  C   UNL     1      -1.210  -0.693   0.071  0.00  0.00    +0.053 A 
ATOM     10  C   UNL     1      -1.823  -1.004  -1.123  0.00  0.00    +0.024 A 
ATOM     11  C   UNL     1      -3.026  -1.704  -1.145  0.00  0.00    +0.002 A 
ATOM     12  C   UNL     1      -3.630  -2.099   0.009  0.00  0.00    +0.008 A 
ATOM     13  C   UNL     1      -3.038  -1.801   1.248  0.00  0.00    -0.016 A 
ATOM     14  C   UNL     1      -1.811  -1.095   1.283  0.00  0.00    +0.004 A 
ATOM     15  C   UNL     1      -1.218  -0.803   2.522  0.00  0.00    +0.010 A 
ATOM     16  C   UNL     1      -1.825  -1.206   3.671  0.00  0.00    +0.001 A 
ATOM     17  C   UNL     1      -3.030  -1.906   3.638  0.00  0.00    +0.001 A 
ATOM     18  C   UNL     1      -3.639  -2.196   2.456  0.00  0.00    +0.008 A 
ENDBRANCH   6   9
BRANCH   1  20
ATOM     19  N   UNL     1       4.775   0.223  -0.076  0.00  0.00    -0.296 NA
ATOM     20  C   UNL     1       3.655  -0.515   0.031  0.00  0.00    +0.099 C 
BRANCH  19  21
ATOM     21  C   UNL     1       6.084  -0.434  -0.110  0.00  0.00    +0.122 C 
BRANCH  21  22
ATOM     22  C   UNL     1       7.183   0.624  -0.235  0.00  0.00    -0.055 C 
BRANCH  22  31
ATOM     23  C   UNL     1      13.369   0.414   0.541  0.00  0.00    +0.109 C 
ATOM     24  C   UNL     1      12.328  -0.572   1.005  0.00  0.00    +0.212 C 
ATOM     25  O   UNL     1      12.560  -1.303   1.944  0.00  0.00    -0.276 OA
ATOM     26  N   UNL     1      11.138  -0.640   0.376  0.00  0.00    -0.305 N 
ATOM     27  C   UNL     1      10.872   0.164  -0.826  0.00  0.00    +0.089 C 
ATOM     28  C   UNL     1       9.554   0.920  -0.625  0.00  0.00    -0.059 C 
ATOM     29  C   UNL     1       8.784  -0.699   1.009  0.00  0.00    -0.059 C 
ATOM     30  C   UNL     1      10.070  -1.521   0.874  0.00  0.00    +0.089 C 
ATOM     31  N   UNL     1       8.493  -0.056  -0.291  0.00  0.00    +0.383 N 
ATOM     32  H   UNL     1       8.464  -0.777  -1.020  0.00  0.00    -0.082 HD
ENDBRANCH  22  31
ENDBRANCH  21  22
ENDBRANCH  19  21
ENDBRANCH   1  20
BRANCH   2  33
ATOM     33  O   UNL     1       3.389   2.355   0.125  0.00  0.00    -0.496 OA
ATOM     34  H   UNL     1       3.195   3.302   0.157  0.00  0.00    +0.293 HD
ENDBRANCH   2  33
TORSDOF 6
