REMARK  Name = ZINC23795155
REMARK  12 active torsions:
REMARK  status: ('A' for Active; 'I' for Inactive)
REMARK    1  A    between atoms: C_1  and  O_2
REMARK    2  A    between atoms: O_2  and  C_3
REMARK    3  A    between atoms: C_8  and  C_9
REMARK    4  A    between atoms: C_9  and  C_11
REMARK    5  A    between atoms: C_9  and  N_28
REMARK    6  A    between atoms: C_11  and  N_12
REMARK    7  A    between atoms: C_13  and  C_15
REMARK    8  A    between atoms: C_15  and  C_16
REMARK    9  A    between atoms: C_16  and  C_17
REMARK   10  A    between atoms: C_17  and  N_18
REMARK   11  A    between atoms: N_18  and  C_19
REMARK   12  A    between atoms: C_22  and  N_25
REMARK                            x       y       z     vdW  Elec       q    Type
REMARK                         _______ _______ _______ _____ _____    ______ ____
ROOT
ATOM      1  N   UNL     1       1.739  -3.314  -1.680  0.00  0.00    -0.317 N 
ATOM      2  C   UNL     1       2.358  -3.216  -2.873  0.00  0.00    +0.213 C 
ATOM      3  O   UNL     1       1.837  -2.598  -3.777  0.00  0.00    -0.276 OA
ATOM      4  H   UNL     1       2.155  -3.809  -0.957  0.00  0.00    +0.149 HD
ENDROOT
BRANCH   1   5
ATOM      5  C   UNL     1       0.438  -2.673  -1.475  0.00  0.00    +0.093 C 
BRANCH   5   6
ATOM      6  C   UNL     1       0.019  -2.826  -0.011  0.00  0.00    -0.017 C 
BRANCH   6  12
ATOM      7  C   UNL     1      -1.376  -4.908  -0.066  0.00  0.00    +0.122 A 
ATOM      8  C   UNL     1      -1.566  -6.253   0.219  0.00  0.00    +0.046 A 
ATOM      9  C   UNL     1      -0.579  -6.966   0.871  0.00  0.00    +0.004 A 
ATOM     10  C   UNL     1       0.598  -6.340   1.241  0.00  0.00    +0.000 A 
ATOM     11  C   UNL     1       0.789  -5.000   0.959  0.00  0.00    +0.005 A 
ATOM     12  C   UNL     1      -0.193  -4.285   0.302  0.00  0.00    -0.018 A 
BRANCH   7  14
ATOM     13  C   UNL     1      -3.538  -4.912  -1.055  0.00  0.00    +0.277 C 
ATOM     14  O   UNL     1      -2.346  -4.205  -0.708  0.00  0.00    -0.495 OA
ENDBRANCH   7  14
ENDBRANCH   6  12
BRANCH   6  15
ATOM     15  N   UNL     1       1.073  -2.287   0.859  0.00  0.00    +0.385 N 
ATOM     16  C   UNL     1       1.322  -0.858   0.537  0.00  0.00    -0.078 C 
ATOM     17  C   UNL     1       1.980  -0.313   1.829  0.00  0.00    -0.020 C 
ATOM     18  C   UNL     1       1.215  -1.057   2.947  0.00  0.00    -0.020 C 
ATOM     19  C   UNL     1       0.632  -2.311   2.270  0.00  0.00    -0.078 C 
ATOM     20  H   UNL     1       1.922  -2.821   0.750  0.00  0.00    -0.081 HD
ENDBRANCH   6  15
ENDBRANCH   5   6
ENDBRANCH   1   5
BRANCH   2  21
ATOM     21  C   UNL     1       3.696  -3.876  -3.084  0.00  0.00    +0.097 C 
BRANCH  21  22
ATOM     22  C   UNL     1       4.175  -3.614  -4.513  0.00  0.00    +0.028 C 
BRANCH  22  23
ATOM     23  C   UNL     1       5.534  -4.283  -4.727  0.00  0.00    +0.102 C 
BRANCH  23  24
ATOM     24  N   UNL     1       5.991  -4.032  -6.096  0.00  0.00    -0.344 N 
ATOM     25  H   UNL     1       5.444  -3.508  -6.702  0.00  0.00    +0.146 HD
BRANCH  24  26
ATOM     26  C   UNL     1       7.215  -4.547  -6.529  0.00  0.00    +0.027 A 
ATOM     27  C   UNL     1       7.997  -5.302  -5.664  0.00  0.00    +0.025 A 
ATOM     28  C   UNL     1       9.207  -5.810  -6.095  0.00  0.00    +0.034 A 
ATOM     29  C   UNL     1       9.640  -5.568  -7.386  0.00  0.00    +0.126 A 
ATOM     30  C   UNL     1       8.864  -4.816  -8.249  0.00  0.00    +0.034 A 
ATOM     31  C   UNL     1       7.651  -4.310  -7.826  0.00  0.00    +0.025 A 
BRANCH  29  32
ATOM     32  N   UNL     1      10.938  -6.114  -7.844  0.00  0.00    +0.056 N 
ATOM     33  O   UNL     1      11.617  -6.770  -7.090  0.00  0.00    -0.126 OA
ATOM     34  O   UNL     1      11.317  -5.903  -8.972  0.00  0.00    -0.126 OA
ENDBRANCH  29  32
ENDBRANCH  24  26
ENDBRANCH  23  24
ENDBRANCH  22  23
ENDBRANCH  21  22
ENDBRANCH   2  21
TORSDOF 11
