REMARK  Name = ZINC36725587
REMARK  10 active torsions:
REMARK  status: ('A' for Active; 'I' for Inactive)
REMARK    1  A    between atoms: C_1  and  C_2
REMARK    2  A    between atoms: C_5  and  N_8
REMARK    3  A    between atoms: C_9  and  C_11
REMARK    4  A    between atoms: C_11  and  N_12
REMARK    5  A    between atoms: N_12  and  C_13
REMARK    6  A    between atoms: C_14  and  C_16
REMARK    7  A    between atoms: C_16  and  N_17
REMARK    8  A    between atoms: C_22  and  C_29
REMARK    9  A    between atoms: C_25  and  C_27
REMARK   10  A    between atoms: C_25  and  C_28
REMARK                            x       y       z     vdW  Elec       q    Type
REMARK                         _______ _______ _______ _____ _____    ______ ____
ROOT
ATOM      1  C   UNL     1       1.746  -7.479   4.485  0.00  0.00    +0.213 C 
ENDROOT
BRANCH   1   2
ATOM      2  N   UNL     1       3.156  -7.521   4.876  0.00  0.00    -0.215 N 
ATOM      3  C   UNL     1       3.971  -8.579   4.673  0.00  0.00    +0.247 C 
ATOM      4  O   UNL     1       3.726  -9.556   4.001  0.00  0.00    -0.273 OA
ATOM      5  C   UNL     1       5.228  -8.271   5.451  0.00  0.00    +0.113 C 
ATOM      6  C   UNL     1       6.464  -8.456   4.583  0.00  0.00    +0.038 C 
ATOM      7  C   UNL     1       6.724  -9.946   4.355  0.00  0.00    -0.011 C 
ATOM      8  C   UNL     1       6.995 -10.606   5.705  0.00  0.00    +0.009 C 
ATOM      9  C   UNL     1       5.789 -10.480   6.628  0.00  0.00    -0.032 C 
ATOM     10  C   UNL     1       5.295  -9.048   6.751  0.00  0.00    +0.041 C 
ATOM     11  C   UNL     1       4.663 -11.403   6.153  0.00  0.00    +0.011 C 
ATOM     12  C   UNL     1       6.219 -10.959   8.032  0.00  0.00    +0.011 C 
ATOM     13  C   UNL     1       7.952 -10.113   3.453  0.00  0.00    +0.007 C 
ATOM     14  N   UNL     1       5.078  -6.832   5.767  0.00  0.00    -0.285 N 
ATOM     15  C   UNL     1       3.811  -6.508   5.457  0.00  0.00    +0.310 C 
ATOM     16  O   UNL     1       3.315  -5.420   5.677  0.00  0.00    -0.252 OA
ATOM     17  H   UNL     1       5.766  -6.254   6.126  0.00  0.00    +0.151 HD
ENDBRANCH   1   2
BRANCH   1  20
ATOM     18  N   UNL     1       0.420  -6.845   2.495  0.00  0.00    -0.294 N 
ATOM     19  C   UNL     1      -0.787  -7.205   3.244  0.00  0.00    +0.132 C 
ATOM     20  C   UNL     1       1.632  -6.969   3.071  0.00  0.00    +0.234 C 
ATOM     21  O   UNL     1       2.631  -6.670   2.452  0.00  0.00    -0.274 OA
BRANCH  18  22
ATOM     22  C   UNL     1       0.309  -6.349   1.121  0.00  0.00    +0.203 C 
BRANCH  22  24
ATOM     23  N   UNL     1       0.059  -4.170  -0.021  0.00  0.00    -0.284 N 
ATOM     24  C   UNL     1       0.175  -4.848   1.138  0.00  0.00    +0.235 C 
ATOM     25  O   UNL     1       0.173  -4.251   2.193  0.00  0.00    -0.274 OA
ATOM     26  H   UNL     1      -0.017  -4.651  -0.860  0.00  0.00    +0.155 HD
BRANCH  23  31
ATOM     27  C   UNL     1       0.008   1.503   0.007  0.00  0.00    +0.044 C 
ATOM     28  C   UNL     1       0.022  -0.004  -0.001  0.00  0.00    -0.050 A 
ATOM     29  C   UNL     1       0.777  -0.692   0.931  0.00  0.00    +0.005 A 
ATOM     30  C   UNL     1       0.791  -2.073   0.927  0.00  0.00    +0.023 A 
ATOM     31  C   UNL     1       0.046  -2.771  -0.014  0.00  0.00    +0.033 A 
ATOM     32  C   UNL     1      -0.712  -2.077  -0.948  0.00  0.00    +0.023 A 
ATOM     33  C   UNL     1      -0.726  -0.696  -0.936  0.00  0.00    +0.005 A 
ENDBRANCH  23  31
ENDBRANCH  22  24
ENDBRANCH  18  22
ENDBRANCH   1  20
TORSDOF 5
