REMARK  Name = ZINC39738297
REMARK  5 active torsions:
REMARK  status: ('A' for Active; 'I' for Inactive)
REMARK    1  A    between atoms: C_1  and  C_2
REMARK    2  A    between atoms: C_5  and  C_8
REMARK    3  A    between atoms: C_10  and  N_14
REMARK    4  A    between atoms: N_14  and  N_15
REMARK    5  A    between atoms: C_17  and  C_29
REMARK                            x       y       z     vdW  Elec       q    Type
REMARK                         _______ _______ _______ _____ _____    ______ ____
ROOT
ATOM      1  N   UNL     1      -1.044  -8.570   1.132  0.00  0.00    -0.182 NA
ATOM      2  C   UNL     1      -2.076  -9.212   1.603  0.00  0.00    +0.151 C 
ATOM      3  C   UNL     1      -3.374  -8.487   1.846  0.00  0.00    +0.240 C 
ATOM      4  N   UNL     1      -3.741  -8.527   3.237  0.00  0.00    -0.368 N 
ATOM      5  C   UNL     1      -3.680  -9.431   4.127  0.00  0.00    +0.058 A 
ATOM      6  C   UNL     1      -4.073  -9.063   5.511  0.00  0.00    +0.027 A 
ATOM      7  C   UNL     1      -4.214 -10.027   6.440  0.00  0.00    +0.002 A 
ATOM      8  C   UNL     1      -3.999 -11.381   6.132  0.00  0.00    +0.002 A 
ATOM      9  C   UNL     1      -3.541 -11.780   4.929  0.00  0.00    +0.025 A 
ATOM     10  C   UNL     1      -3.258 -10.833   3.901  0.00  0.00    +0.057 A 
ATOM     11  N   UNL     1      -2.593 -11.266   2.869  0.00  0.00    -0.279 N 
ATOM     12  C   UNL     1      -1.985 -10.639   1.892  0.00  0.00    +0.266 C 
ATOM     13  O   UNL     1      -1.274 -11.307   1.161  0.00  0.00    -0.268 OA
ATOM     14  H   UNL     1      -4.112  -7.691   3.561  0.00  0.00    +0.161 HD
ATOM     15  H   UNL     1      -2.541 -12.233   2.809  0.00  0.00    +0.155 HD
ENDROOT
BRANCH   3  16
ATOM     16  C   UNL     1      -4.479  -9.146   1.018  0.00  0.00    +0.415 C 
ATOM     17  F   UNL     1      -4.610 -10.486   1.398  0.00  0.00    -0.168 F 
ATOM     18  F   UNL     1      -5.688  -8.479   1.238  0.00  0.00    -0.168 F 
ATOM     19  F   UNL     1      -4.148  -9.077  -0.340  0.00  0.00    -0.168 F 
ENDBRANCH   3  16
BRANCH   1  20
ATOM     20  N   UNL     1      -1.090  -7.177   0.990  0.00  0.00    -0.239 N 
ATOM     21  H   UNL     1      -1.859  -6.682   1.313  0.00  0.00    +0.171 HD
BRANCH  20  24
ATOM     22  C   UNL     1      -0.040  -4.268  -0.151  0.00  0.00    +0.093 C 
ATOM     23  C   UNL     1       0.158  -5.065   0.917  0.00  0.00    +0.052 C 
ATOM     24  C   UNL     1       0.023  -6.468   0.353  0.00  0.00    +0.253 C 
ATOM     25  N   UNL     1      -0.255  -6.231  -1.073  0.00  0.00    -0.159 NA
ATOM     26  N   UNL     1      -0.278  -5.013  -1.262  0.00  0.00    -0.152 NA
BRANCH  22  31
ATOM     27  C   UNL     1       0.081   1.489  -0.021  0.00  0.00    +0.044 C 
ATOM     28  C   UNL     1       0.049  -0.018  -0.055  0.00  0.00    -0.050 A 
ATOM     29  C   UNL     1      -0.203  -0.675  -1.246  0.00  0.00    +0.004 A 
ATOM     30  C   UNL     1      -0.233  -2.054  -1.283  0.00  0.00    +0.010 A 
ATOM     31  C   UNL     1      -0.009  -2.785  -0.117  0.00  0.00    +0.002 A 
ATOM     32  C   UNL     1       0.245  -2.118   1.079  0.00  0.00    +0.010 A 
ATOM     33  C   UNL     1       0.278  -0.738   1.104  0.00  0.00    +0.004 A 
ENDBRANCH  22  31
ENDBRANCH  20  24
ENDBRANCH   1  20
TORSDOF 4
