REMARK  Name = ZINC20339532
REMARK  4 active torsions:
REMARK  status: ('A' for Active; 'I' for Inactive)
REMARK    1  A    between atoms: C_2  and  C_3
REMARK    2  A    between atoms: C_3  and  N_4
REMARK    3  A    between atoms: C_7  and  N_23
REMARK    4  A    between atoms: C_13  and  C_14
REMARK                            x       y       z     vdW  Elec       q    Type
REMARK                         _______ _______ _______ _____ _____    ______ ____
ROOT
ATOM      1  N   UNL     1       0.319  -0.380  -0.662  0.00  0.00    -0.258 N 
ATOM      2  C   UNL     1       0.108   1.004  -0.626  0.00  0.00    +0.081 A 
ATOM      3  C   UNL     1      -1.160   1.518  -0.850  0.00  0.00    +0.050 A 
ATOM      4  C   UNL     1      -1.369   2.890  -0.807  0.00  0.00    +0.027 A 
ATOM      5  C   UNL     1      -0.306   3.748  -0.551  0.00  0.00    +0.026 A 
ATOM      6  C   UNL     1       0.960   3.237  -0.334  0.00  0.00    +0.050 A 
ATOM      7  C   UNL     1       1.171   1.869  -0.370  0.00  0.00    +0.150 A 
ATOM      8  O   UNL     1       2.421   1.365  -0.158  0.00  0.00    -0.449 OA
ATOM      9  C   UNL     1       2.476   0.090   0.336  0.00  0.00    +0.191 C 
ATOM     10  C   UNL     1       3.396  -0.270   1.259  0.00  0.00    +0.059 C 
ATOM     11  C   UNL     1       1.486  -0.876  -0.185  0.00  0.00    +0.287 C 
ATOM     12  O   UNL     1       1.711  -2.072  -0.185  0.00  0.00    -0.266 OA
ENDROOT
BRANCH  10  13
ATOM     13  C   UNL     1       3.306  -1.585   1.912  0.00  0.00    -0.021 A 
ATOM     14  C   UNL     1       4.470  -2.301   2.212  0.00  0.00    +0.009 A 
ATOM     15  C   UNL     1       4.379  -3.530   2.828  0.00  0.00    +0.020 A 
ATOM     16  C   UNL     1       3.138  -4.062   3.142  0.00  0.00    +0.041 A 
ATOM     17  C   UNL     1       1.982  -3.360   2.843  0.00  0.00    +0.020 A 
ATOM     18  C   UNL     1       2.058  -2.127   2.232  0.00  0.00    +0.009 A 
ATOM     19 CL   UNL     1       3.033  -5.613   3.913  0.00  0.00    -0.084 Cl
ENDBRANCH  10  13
BRANCH   4  20
ATOM     20  N   UNL     1      -2.649   3.409  -1.027  0.00  0.00    -0.358 N 
ATOM     21  H   UNL     1      -2.814   4.496  -0.993  0.00  0.00    +0.142 HD
ATOM     22  H   UNL     1      -3.490   2.731  -1.234  0.00  0.00    +0.142 HD
ENDBRANCH   4  20
BRANCH   1  23
ATOM     23  C   UNL     1      -0.704  -1.276  -1.208  0.00  0.00    +0.141 C 
BRANCH  23  25
ATOM     24  C   UNL     1      -0.344  -2.665  -3.183  0.00  0.00    +0.005 C 
ATOM     25  C   UNL     1      -0.473  -1.460  -2.686  0.00  0.00    -0.015 C 
ENDBRANCH  23  25
ENDBRANCH   1  23
TORSDOF 4
