REMARK  Name = ZINC25147112
REMARK  9 active torsions:
REMARK  status: ('A' for Active; 'I' for Inactive)
REMARK    1  A    between atoms: C_1  and  C_2
REMARK    2  A    between atoms: C_4  and  C_9
REMARK    3  A    between atoms: C_5  and  C_8
REMARK    4  A    between atoms: C_9  and  C_11
REMARK    5  A    between atoms: C_11  and  S_12
REMARK    6  A    between atoms: S_12  and  C_13
REMARK    7  A    between atoms: N_26  and  C_27
REMARK    8  A    between atoms: C_31  and  O_33
REMARK    9  A    between atoms: O_33  and  C_34
REMARK                            x       y       z     vdW  Elec       q    Type
REMARK                         _______ _______ _______ _____ _____    ______ ____
ROOT
ATOM      1  C   UNL     1      -2.680   7.594  -0.155  0.00  0.00    +0.198 A 
ATOM      2  N   UNL     1      -3.337   6.461  -0.231  0.00  0.00    -0.120 NA
ATOM      3  N   UNL     1      -2.519   5.471  -0.170  0.00  0.00    -0.109 NA
ATOM      4  C   UNL     1      -1.287   5.910  -0.064  0.00  0.00    +0.245 A 
ATOM      5  N   UNL     1      -1.352   7.279  -0.054  0.00  0.00    -0.255 N 
ATOM      6  C   UNL     1      -0.198   8.047   0.042  0.00  0.00    +0.064 A 
ATOM      7  C   UNL     1      -0.254   9.432   0.047  0.00  0.00    +0.027 A 
ATOM      8  C   UNL     1       0.911  10.168   0.142  0.00  0.00    +0.002 A 
ATOM      9  C   UNL     1       2.140   9.533   0.234  0.00  0.00    +0.001 A 
ATOM     10  C   UNL     1       2.215   8.156   0.230  0.00  0.00    +0.015 A 
ATOM     11  C   UNL     1       1.046   7.403   0.134  0.00  0.00    +0.064 A 
ATOM     12  C   UNL     1       1.085   5.929   0.127  0.00  0.00    +0.268 A 
ATOM     13  O   UNL     1       2.146   5.339   0.205  0.00  0.00    -0.267 OA
ATOM     14  N   UNL     1      -0.074   5.245   0.031  0.00  0.00    -0.245 N 
ENDROOT
BRANCH  14  15
ATOM     15  C   UNL     1      -0.051   3.846   0.023  0.00  0.00    +0.056 A 
ATOM     16  C   UNL     1       0.056   3.159  -1.180  0.00  0.00    +0.026 A 
ATOM     17  C   UNL     1       0.084   1.778  -1.187  0.00  0.00    +0.006 A 
ATOM     18  C   UNL     1      -0.006   1.076  -0.000  0.00  0.00    +0.046 A 
ATOM     19  C   UNL     1      -0.113   1.757   1.204  0.00  0.00    +0.122 A 
ATOM     20  C   UNL     1      -0.136   3.143   1.216  0.00  0.00    +0.072 A 
BRANCH  19  21
ATOM     21  O   UNL     1      -0.195   1.065   2.371  0.00  0.00    -0.495 OA
ATOM     22  C   UNL     1      -0.165  -0.361   2.284  0.00  0.00    +0.277 C 
ENDBRANCH  19  21
ENDBRANCH  14  15
BRANCH   1  23
ATOM     23  S   UNL     1      -3.373   9.213  -0.198  0.00  0.00    -0.078 S 
BRANCH  23  24
ATOM     24  C   UNL     1      -5.158   8.922  -0.340  0.00  0.00    +0.157 C 
BRANCH  24  25
ATOM     25  C   UNL     1      -5.880  10.244  -0.387  0.00  0.00    +0.175 C 
ATOM     26  O   UNL     1      -5.253  11.281  -0.330  0.00  0.00    -0.291 OA
BRANCH  25  30
ATOM     27  C   UNL     1     -10.756   8.818  -0.779  0.00  0.00    +0.063 C 
ATOM     28  C   UNL     1      -9.491   9.629  -0.674  0.00  0.00    +0.014 A 
ATOM     29  C   UNL     1      -8.249   9.126  -0.580  0.00  0.00    +0.034 A 
ATOM     30  C   UNL     1      -7.340  10.277  -0.501  0.00  0.00    +0.039 A 
ATOM     31  C   UNL     1      -8.146  11.399  -0.551  0.00  0.00    +0.024 A 
ATOM     32  N   UNL     1      -9.424  10.993  -0.659  0.00  0.00    -0.362 N 
ATOM     33  H   UNL     1     -10.345  11.589  -0.732  0.00  0.00    +0.165 HD
ATOM     34  C   UNL     1      -7.676  12.830  -0.496  0.00  0.00    +0.064 C 
ENDBRANCH  25  30
ENDBRANCH  24  25
ENDBRANCH  23  24
ENDBRANCH   1  23
TORSDOF 6
