REMARK  Name = ZINC15769164
REMARK  6 active torsions:
REMARK  status: ('A' for Active; 'I' for Inactive)
REMARK    1  A    between atoms: C_4  and  S_7
REMARK    2  A    between atoms: S_7  and  N_10
REMARK    3  A    between atoms: N_13  and  S_27
REMARK    4  A    between atoms: C_14  and  C_17
REMARK    5  A    between atoms: N_19  and  C_20
REMARK    6  A    between atoms: S_27  and  C_30
REMARK                            x       y       z     vdW  Elec       q    Type
REMARK                         _______ _______ _______ _____ _____    ______ ____
ROOT
ATOM      1  N   UNL     1      -2.510   3.366  -1.845  0.00  0.00    -0.173 NA
ATOM      2  C   UNL     1      -3.650   2.471  -2.089  0.00  0.00    +0.126 C 
ATOM      3  C   UNL     1      -3.830   1.563  -0.866  0.00  0.00    +0.127 C 
ATOM      4  N   UNL     1      -2.529   0.974  -0.522  0.00  0.00    -0.162 NA
ATOM      5  C   UNL     1      -1.389   1.869  -0.278  0.00  0.00    +0.181 C 
ATOM      6  C   UNL     1      -1.208   2.777  -1.501  0.00  0.00    +0.139 C 
ENDROOT
BRANCH   5   7
ATOM      7  C   UNL     1      -0.140   1.052  -0.066  0.00  0.00    +0.237 C 
ATOM      8  O   UNL     1       0.441   0.575  -1.018  0.00  0.00    -0.274 OA
ATOM      9  N   UNL     1       0.333   0.855   1.180  0.00  0.00    -0.283 N 
ATOM     10  H   UNL     1      -0.085   1.300   1.934  0.00  0.00    +0.155 HD
BRANCH   9  11
ATOM     11  C   UNL     1       1.428   0.008   1.388  0.00  0.00    +0.052 A 
ATOM     12  C   UNL     1       2.371  -0.168   0.384  0.00  0.00    +0.025 A 
ATOM     13  C   UNL     1       3.451  -1.004   0.592  0.00  0.00    +0.002 A 
ATOM     14  C   UNL     1       3.594  -1.665   1.798  0.00  0.00    +0.002 A 
ATOM     15  C   UNL     1       2.656  -1.493   2.800  0.00  0.00    +0.022 A 
ATOM     16  C   UNL     1       1.576  -0.654   2.600  0.00  0.00    +0.062 A 
ATOM     17 CL   UNL     1       0.404  -0.432   3.861  0.00  0.00    -0.082 Cl
ENDBRANCH   9  11
ENDBRANCH   5   7
BRANCH   1  18
ATOM     18  S   UNL     1      -2.689   5.008  -1.956  0.00  0.00    +0.061 S 
ATOM     19  O   UNL     1      -4.066   5.282  -1.738  0.00  0.00    -0.153 OA
ATOM     20  O   UNL     1      -1.662   5.584  -1.160  0.00  0.00    -0.153 OA
BRANCH  18  24
ATOM     21  C   UNL     1      -1.802   6.165  -6.242  0.00  0.00    +0.000 A 
ATOM     22  C   UNL     1      -3.093   5.843  -5.866  0.00  0.00    +0.002 A 
ATOM     23  C   UNL     1      -3.364   5.490  -4.557  0.00  0.00    +0.028 A 
ATOM     24  C   UNL     1      -2.344   5.458  -3.624  0.00  0.00    +0.105 A 
ATOM     25  C   UNL     1      -1.054   5.785  -4.000  0.00  0.00    +0.028 A 
ATOM     26  C   UNL     1      -0.782   6.133  -5.309  0.00  0.00    +0.002 A 
ENDBRANCH  18  24
ENDBRANCH   1  18
BRANCH   4  27
ATOM     27  S   UNL     1      -2.349  -0.669  -0.412  0.00  0.00    +0.062 S 
ATOM     28  O   UNL     1      -1.141  -0.898   0.299  0.00  0.00    -0.153 OA
ATOM     29  O   UNL     1      -3.599  -1.185   0.023  0.00  0.00    -0.153 OA
BRANCH  27  30
ATOM     30  C   UNL     1      -2.095  -1.276  -2.047  0.00  0.00    +0.106 A 
ATOM     31  C   UNL     1      -3.176  -1.657  -2.818  0.00  0.00    +0.028 A 
ATOM     32  C   UNL     1      -2.977  -2.129  -4.102  0.00  0.00    +0.002 A 
ATOM     33  C   UNL     1      -1.696  -2.229  -4.611  0.00  0.00    +0.000 A 
ATOM     34  C   UNL     1      -0.614  -1.852  -3.837  0.00  0.00    +0.002 A 
ATOM     35  C   UNL     1      -0.813  -1.376  -2.555  0.00  0.00    +0.028 A 
ENDBRANCH  27  30
ENDBRANCH   4  27
TORSDOF 6
