REMARK  Name = ZINC63161737
REMARK  8 active torsions:
REMARK  status: ('A' for Active; 'I' for Inactive)
REMARK    1  A    between atoms: C_1  and  C_2
REMARK    2  A    between atoms: N_7  and  C_8
REMARK    3  A    between atoms: C_8  and  C_9
REMARK    4  A    between atoms: C_9  and  C_10
REMARK    5  A    between atoms: C_10  and  C_11
REMARK    6  A    between atoms: C_11  and  N_12
REMARK    7  A    between atoms: N_15  and  C_16
REMARK    8  A    between atoms: C_18  and  C_24
REMARK                            x       y       z     vdW  Elec       q    Type
REMARK                         _______ _______ _______ _____ _____    ______ ____
ROOT
ATOM      1  N   UNL     1       0.488   0.478   7.316  0.00  0.00    -0.299 N 
ATOM      2  C   UNL     1       1.020   0.257   8.534  0.00  0.00    +0.304 C 
ATOM      3  O   UNL     1       2.116  -0.260   8.635  0.00  0.00    -0.253 OA
ATOM      4  N   UNL     1       0.337   0.610   9.642  0.00  0.00    -0.265 N 
ATOM      5  H   UNL     1      -0.386   0.891   7.236  0.00  0.00    +0.150 HD
ATOM      6  H   UNL     1      -0.503   1.088   9.562  0.00  0.00    +0.157 HD
ENDROOT
BRANCH   4   7
ATOM      7  C   UNL     1       0.840   0.284  10.909  0.00  0.00    +0.100 A 
ATOM      8  C   UNL     1       1.094   1.266  11.826  0.00  0.00    +0.042 A 
ATOM      9  C   UNL     1       1.597   0.913  13.087  0.00  0.00    +0.073 A 
ATOM     10  C   UNL     1       1.825  -0.386  13.385  0.00  0.00    +0.098 A 
ATOM     11  N   UNL     1       1.574  -1.364  12.474  0.00  0.00    -0.327 N 
ATOM     12  H   UNL     1       1.744  -2.291  12.706  0.00  0.00    +0.168 HD
ATOM     13  C   UNL     1       1.085  -1.062  11.256  0.00  0.00    +0.270 A 
ATOM     14  O   UNL     1       0.859  -1.952  10.451  0.00  0.00    -0.266 OA
BRANCH   9  15
ATOM     15  C   UNL     1       1.883   1.982  14.110  0.00  0.00    +0.419 C 
ATOM     16  F   UNL     1       2.373   1.389  15.279  0.00  0.00    -0.166 F 
ATOM     17  F   UNL     1       2.837   2.870  13.602  0.00  0.00    -0.166 F 
ATOM     18  F   UNL     1       0.705   2.679  14.399  0.00  0.00    -0.166 F 
ENDBRANCH   9  15
ENDBRANCH   4   7
BRANCH   1  19
ATOM     19  C   UNL     1       1.230   0.096   6.112  0.00  0.00    +0.105 C 
BRANCH  19  20
ATOM     20  C   UNL     1       0.410   0.453   4.872  0.00  0.00    +0.017 C 
BRANCH  20  21
ATOM     21  C   UNL     1       1.185   0.053   3.615  0.00  0.00    -0.017 C 
BRANCH  21  22
ATOM     22  C   UNL     1       0.364   0.411   2.374  0.00  0.00    -0.078 C 
BRANCH  22  29
ATOM     23  C   UNL     1       0.150   1.988   0.061  0.00  0.00    -0.013 C 
ATOM     24  C   UNL     1       0.376   0.477  -0.022  0.00  0.00    -0.072 C 
ATOM     25  C   UNL     1       1.186   0.152  -1.279  0.00  0.00    -0.016 C 
ATOM     26  C   UNL     1       1.410  -1.361  -1.358  0.00  0.00    -0.003 C 
ATOM     27  C   UNL     1       2.108  -1.831  -0.079  0.00  0.00    -0.019 C 
ATOM     28  C   UNL     1       1.264  -1.432   1.133  0.00  0.00    -0.078 C 
ATOM     29  N   UNL     1       1.109   0.027   1.167  0.00  0.00    +0.381 N 
ATOM     30  H   UNL     1       2.020   0.461   1.184  0.00  0.00    -0.081 HD
ENDBRANCH  22  29
ENDBRANCH  21  22
ENDBRANCH  20  21
ENDBRANCH  19  20
ENDBRANCH   1  19
TORSDOF 7
