REMARK  Name = ZINC58385421
REMARK  8 active torsions:
REMARK  status: ('A' for Active; 'I' for Inactive)
REMARK    1  A    between atoms: C_1  and  C_2
REMARK    2  A    between atoms: C_3  and  C_9
REMARK    3  A    between atoms: C_4  and  C_8
REMARK    4  A    between atoms: N_5  and  C_7
REMARK    5  A    between atoms: C_10  and  C_11
REMARK    6  A    between atoms: N_13  and  C_14
REMARK    7  A    between atoms: C_14  and  C_15
REMARK    8  A    between atoms: C_14  and  C_16
REMARK                            x       y       z     vdW  Elec       q    Type
REMARK                         _______ _______ _______ _____ _____    ______ ____
ROOT
ATOM      1  C   UNL     1      -0.928   0.969  -4.302  0.00  0.00    +0.237 C 
ATOM      2  O   UNL     1      -0.118   0.522  -5.094  0.00  0.00    -0.271 OA
ATOM      3  N   UNL     1      -1.837   1.877  -4.709  0.00  0.00    -0.305 N 
ATOM      4  H   UNL     1      -2.482   2.233  -4.078  0.00  0.00    +0.150 HD
ENDROOT
BRANCH   1   6
ATOM      5  C   UNL     1      -0.005  -0.377  -2.546  0.00  0.00    +0.016 C 
ATOM      6  C   UNL     1      -0.916   0.533  -2.953  0.00  0.00    +0.068 C 
BRANCH   5   9
ATOM      7  C   UNL     1      -0.018   1.503   0.010  0.00  0.00    +0.068 C 
ATOM      8  C   UNL     1       0.002  -0.004   0.002  0.00  0.00    +0.067 A 
ATOM      9  C   UNL     1       0.008  -0.829  -1.147  0.00  0.00    +0.018 A 
ATOM     10  C   UNL     1       0.028  -2.140  -0.707  0.00  0.00    +0.043 A 
ATOM     11  N   UNL     1       0.034  -2.112   0.636  0.00  0.00    -0.271 N 
ATOM     12  N   UNL     1       0.023  -0.776   1.053  0.00  0.00    -0.176 NA
ATOM     13  C   UNL     1       0.053  -3.283   1.517  0.00  0.00    +0.172 C 
ATOM     14  C   UNL     1       0.040  -3.372  -1.574  0.00  0.00    +0.066 C 
ENDBRANCH   5   9
ENDBRANCH   1   6
BRANCH   3  15
ATOM     15  C   UNL     1      -1.850   2.327  -6.103  0.00  0.00    +0.100 C 
ATOM     16  C   UNL     1      -0.847   3.469  -6.280  0.00  0.00    +0.033 C 
BRANCH  15  17
ATOM     17  C   UNL     1      -3.231   2.813  -6.461  0.00  0.00    -0.025 A 
ATOM     18  C   UNL     1      -3.958   3.557  -5.548  0.00  0.00    +0.007 A 
ATOM     19  C   UNL     1      -5.225   4.006  -5.867  0.00  0.00    +0.028 A 
ATOM     20  C   UNL     1      -5.770   3.711  -7.107  0.00  0.00    +0.067 A 
ATOM     21  C   UNL     1      -5.036   2.960  -8.028  0.00  0.00    +0.067 A 
ATOM     22  C   UNL     1      -3.763   2.518  -7.701  0.00  0.00    +0.033 A 
ATOM     23  N   UNL     1      -5.831   2.829  -9.164  0.00  0.00    -0.306 N 
ATOM     24  H   UNL     1      -5.588   2.356  -9.975  0.00  0.00    +0.170 HD
ATOM     25  C   UNL     1      -6.995   3.469  -8.944  0.00  0.00    +0.325 A 
ATOM     26  O   UNL     1      -7.913   3.546  -9.739  0.00  0.00    -0.247 OA
ATOM     27  N   UNL     1      -6.988   4.012  -7.712  0.00  0.00    -0.306 N 
ATOM     28  H   UNL     1      -7.708   4.524  -7.314  0.00  0.00    +0.170 HD
ENDBRANCH  15  17
ENDBRANCH   3  15
TORSDOF 4
