REMARK  Name = ZINC01246048
REMARK  5 active torsions:
REMARK  status: ('A' for Active; 'I' for Inactive)
REMARK    1  A    between atoms: C_1  and  C_2
REMARK    2  A    between atoms: C_2  and  C_26
REMARK    3  A    between atoms: C_10  and  C_16
REMARK    4  A    between atoms: C_12  and  O_15
REMARK    5  A    between atoms: C_17  and  C_18
REMARK                            x       y       z     vdW  Elec       q    Type
REMARK                         _______ _______ _______ _____ _____    ______ ____
ROOT
ATOM      1  C   UNL     1      -0.019   1.526   0.010  0.00  0.00    +0.020 C 
ATOM      2  C   UNL     1       0.002  -0.004   0.002  0.00  0.00    +0.037 C 
ATOM      3  C   UNL     1       0.815  -0.516  -1.169  0.00  0.00    -0.014 A 
ATOM      4  C   UNL     1       0.588  -0.444  -2.529  0.00  0.00    +0.044 A 
ATOM      5  C   UNL     1       1.484  -1.015  -3.416  0.00  0.00    +0.124 A 
ATOM      6  C   UNL     1       2.610  -1.661  -2.935  0.00  0.00    +0.040 A 
ATOM      7  C   UNL     1       2.845  -1.728  -1.578  0.00  0.00    +0.026 A 
ATOM      8  C   UNL     1       1.951  -1.146  -0.677  0.00  0.00    +0.036 A 
ATOM      9  N   UNL     1       2.013  -1.056   0.708  0.00  0.00    -0.301 N 
ATOM     10  C   UNL     1       0.738  -0.536   1.235  0.00  0.00    +0.159 C 
ATOM     11  N   UNL     1       1.049   0.517   2.193  0.00  0.00    -0.224 NA
ATOM     12  C   UNL     1       2.214   0.704   2.674  0.00  0.00    +0.186 C 
ATOM     13  C   UNL     1       3.462  -0.053   2.344  0.00  0.00    +0.114 C 
ATOM     14  C   UNL     1       3.142  -1.359   1.601  0.00  0.00    +0.117 C 
ATOM     15  F   UNL     1       1.260  -0.944  -4.746  0.00  0.00    -0.205 F 
ATOM     16  C   UNL     1      -1.424  -0.557  -0.050  0.00  0.00    +0.020 C 
ENDROOT
BRANCH  12  17
ATOM     17  O   UNL     1       2.337   1.694   3.582  0.00  0.00    -0.496 OA
ATOM     18  H   UNL     1       1.510   2.160   3.770  0.00  0.00    +0.293 HD
ENDBRANCH  12  17
BRANCH  10  19
ATOM     19  C   UNL     1      -0.054  -1.642   1.884  0.00  0.00    +0.024 C 
ATOM     20  C   UNL     1       0.472  -2.853   2.002  0.00  0.00    +0.007 C 
BRANCH  20  21
ATOM     21  C   UNL     1      -0.305  -3.937   2.639  0.00  0.00    -0.025 A 
ATOM     22  C   UNL     1      -1.594  -3.690   3.111  0.00  0.00    +0.011 A 
ATOM     23  C   UNL     1      -2.315  -4.706   3.704  0.00  0.00    +0.039 A 
ATOM     24  C   UNL     1      -1.760  -5.969   3.832  0.00  0.00    +0.123 A 
ATOM     25  C   UNL     1      -0.480  -6.220   3.365  0.00  0.00    +0.039 A 
ATOM     26  C   UNL     1       0.247  -5.213   2.764  0.00  0.00    +0.011 A 
ATOM     27  F   UNL     1      -2.470  -6.960   4.415  0.00  0.00    -0.205 F 
ENDBRANCH  20  21
ENDBRANCH  10  19
TORSDOF 3
