REMARK  Name = ZINC40489703
REMARK  4 active torsions:
REMARK  status: ('A' for Active; 'I' for Inactive)
REMARK    1  A    between atoms: C_1  and  C_2
REMARK    2  A    between atoms: N_15  and  C_18
REMARK    3  A    between atoms: C_18  and  C_19
REMARK    4  A    between atoms: C_19  and  O_20
REMARK                            x       y       z     vdW  Elec       q    Type
REMARK                         _______ _______ _______ _____ _____    ______ ____
ROOT
ATOM      1  C   UNL     1      -0.018   1.503   0.010  0.00  0.00    +0.066 C 
ATOM      2  C   UNL     1       0.002  -0.004   0.002  0.00  0.00    +0.046 A 
ATOM      3  C   UNL     1      -1.175  -0.722   0.004  0.00  0.00    +0.095 A 
ATOM      4  C   UNL     1      -1.135  -2.116  -0.005  0.00  0.00    +0.275 A 
ATOM      5  O   UNL     1      -2.174  -2.759  -0.004  0.00  0.00    -0.266 OA
ATOM      6  N   UNL     1       0.069  -2.763  -0.014  0.00  0.00    -0.170 N 
ATOM      7  C   UNL     1       1.185  -1.974  -0.015  0.00  0.00    +0.200 A 
ATOM      8  N   UNL     1       1.156  -0.666  -0.013  0.00  0.00    -0.227 NA
ATOM      9  S   UNL     1       2.503  -3.169  -0.028  0.00  0.00    -0.013 S 
ATOM     10  C   UNL     1       1.489  -4.639  -0.031  0.00  0.00    +0.184 A 
ATOM     11  N   UNL     1       0.283  -4.138  -0.023  0.00  0.00    -0.139 NA
ATOM     12  N   UNL     1       1.880  -5.966  -0.041  0.00  0.00    -0.306 N 
ATOM     13  C   UNL     1       0.882  -7.047  -0.049  0.00  0.00    +0.122 C 
ATOM     14  C   UNL     1       1.221  -8.014  -1.188  0.00  0.00    +0.103 C 
ATOM     15  N   UNL     1       2.615  -8.457  -1.052  0.00  0.00    -0.297 NA
ATOM     16  C   UNL     1       3.548  -7.329  -1.183  0.00  0.00    +0.103 C 
ATOM     17  C   UNL     1       3.304  -6.334  -0.050  0.00  0.00    +0.122 C 
ENDROOT
BRANCH  15  18
ATOM     18  C   UNL     1       2.929  -9.515  -2.022  0.00  0.00    +0.112 C 
BRANCH  18  19
ATOM     19  C   UNL     1       4.294 -10.121  -1.691  0.00  0.00    +0.171 C 
BRANCH  19  20
ATOM     20  O   UNL     1       4.230 -10.777  -0.423  0.00  0.00    -0.394 OA
ATOM     21  H   UNL     1       5.062 -11.186  -0.149  0.00  0.00    +0.209 HD
ENDBRANCH  19  20
ENDBRANCH  18  19
ENDBRANCH  15  18
TORSDOF 3
