REMARK  Name = ZINC67481920
REMARK  6 active torsions:
REMARK  status: ('A' for Active; 'I' for Inactive)
REMARK    1  A    between atoms: C_1  and  C_2
REMARK    2  A    between atoms: C_4  and  C_7
REMARK    3  A    between atoms: N_15  and  C_16
REMARK    4  A    between atoms: C_16  and  C_17
REMARK    5  A    between atoms: N_22  and  C_23
REMARK    6  A    between atoms: C_23  and  C_24
REMARK                            x       y       z     vdW  Elec       q    Type
REMARK                         _______ _______ _______ _____ _____    ______ ____
ROOT
ATOM      1  C   UNL     1       1.462  -3.752  -0.576  0.00  0.00    +0.081 C 
ATOM      2  C   UNL     1       2.521  -4.838  -0.774  0.00  0.00    +0.032 C 
ATOM      3  C   UNL     1       2.147  -5.696  -1.987  0.00  0.00    +0.110 C 
ATOM      4  N   UNL     1       0.783  -6.210  -1.800  0.00  0.00    -0.286 N 
ATOM      5  C   UNL     1      -0.298  -5.257  -1.513  0.00  0.00    +0.110 C 
ATOM      6  C   UNL     1       0.104  -4.405  -0.305  0.00  0.00    +0.032 C 
ATOM      7  C   UNL     1       0.529  -7.530  -1.891  0.00  0.00    +0.302 C 
ATOM      8  O   UNL     1       1.412  -8.299  -2.219  0.00  0.00    -0.253 OA
ATOM      9  N   UNL     1      -0.705  -7.999  -1.617  0.00  0.00    -0.301 N 
ATOM     10  H   UNL     1      -1.428  -7.381  -1.427  0.00  0.00    +0.150 HD
ENDROOT
BRANCH   1  14
ATOM     11  C   UNL     1       2.709   0.277   2.127  0.00  0.00    +0.091 C 
ATOM     12  C   UNL     1       2.385  -1.153   1.776  0.00  0.00    +0.169 A 
ATOM     13  N   UNL     1       2.068  -1.601   0.557  0.00  0.00    -0.196 NA
ATOM     14  C   UNL     1       1.844  -2.886   0.597  0.00  0.00    +0.231 A 
ATOM     15  O   UNL     1       2.014  -3.302   1.858  0.00  0.00    -0.338 OA
ATOM     16  N   UNL     1       2.372  -2.152   2.610  0.00  0.00    -0.062 NA
ENDBRANCH   1  14
BRANCH   9  17
ATOM     17  C   UNL     1      -0.954  -9.443  -1.607  0.00  0.00    +0.090 C 
BRANCH  17  18
ATOM     18  C   UNL     1      -2.441  -9.702  -1.357  0.00  0.00    -0.051 C 
ATOM     19  C   UNL     1      -2.682 -11.210  -1.136  0.00  0.00    -0.016 C 
ATOM     20  C   UNL     1      -4.029 -11.460  -1.863  0.00  0.00    -0.020 C 
ATOM     21  C   UNL     1      -3.916 -10.499  -3.072  0.00  0.00    -0.078 C 
ATOM     22  N   UNL     1      -3.225  -9.300  -2.540  0.00  0.00    +0.383 N 
ATOM     23  H   UNL     1      -3.905  -8.603  -2.276  0.00  0.00    -0.081 HD
BRANCH  22  24
ATOM     24  C   UNL     1      -2.328  -8.749  -3.564  0.00  0.00    -0.075 C 
BRANCH  24  25
ATOM     25  C   UNL     1      -3.158  -8.158  -4.705  0.00  0.00    -0.028 C 
ATOM     26  C   UNL     1      -3.797  -9.290  -5.511  0.00  0.00    +0.002 C 
ATOM     27  C   UNL     1      -4.627  -8.698  -6.652  0.00  0.00    +0.000 C 
ATOM     28  C   UNL     1      -3.722  -7.869  -7.565  0.00  0.00    +0.000 C 
ATOM     29  C   UNL     1      -3.083  -6.737  -6.759  0.00  0.00    +0.000 C 
ATOM     30  C   UNL     1      -2.253  -7.329  -5.618  0.00  0.00    +0.002 C 
ENDBRANCH  24  25
ENDBRANCH  22  24
ENDBRANCH  17  18
ENDBRANCH   9  17
TORSDOF 5
