REMARK  Name = ZINC01959688
REMARK  5 active torsions:
REMARK  status: ('A' for Active; 'I' for Inactive)
REMARK    1  A    between atoms: C_1  and  C_2
REMARK    2  A    between atoms: C_9  and  N_13
REMARK    3  A    between atoms: C_10  and  C_11
REMARK    4  A    between atoms: C_14  and  C_16
REMARK    5  A    between atoms: C_17  and  C_18
REMARK                            x       y       z     vdW  Elec       q    Type
REMARK                         _______ _______ _______ _____ _____    ______ ____
ROOT
ATOM      1  N   UNL     1      -1.183   6.349   0.048  0.00  0.00    -0.275 N 
ATOM      2  C   UNL     1      -0.010   5.685   0.033  0.00  0.00    +0.241 C 
ATOM      3  O   UNL     1       1.039   6.302   0.026  0.00  0.00    -0.270 OA
ATOM      4  H   UNL     1      -2.019   5.858   0.053  0.00  0.00    +0.156 HD
ENDROOT
BRANCH   1  12
ATOM      5  C   UNL     1      -0.816  14.162  -0.009  0.00  0.00    +0.008 C 
ATOM      6  C   UNL     1      -1.274  12.731  -0.299  0.00  0.00    -0.009 C 
ATOM      7  C   UNL     1      -2.507  12.406   0.549  0.00  0.00    +0.008 C 
ATOM      8  C   UNL     1      -3.118  11.080   0.091  0.00  0.00    +0.037 C 
ATOM      9  C   UNL     1      -2.026  10.017   0.075  0.00  0.00    -0.018 A 
ATOM     10  C   UNL     1      -0.719  10.363   0.064  0.00  0.00    -0.004 A 
ATOM     11  S   UNL     1       0.155   8.823   0.047  0.00  0.00    -0.077 S 
ATOM     12  C   UNL     1      -1.194   7.736   0.055  0.00  0.00    +0.090 A 
ATOM     13  C   UNL     1      -2.288   8.589   0.064  0.00  0.00    +0.084 A 
ATOM     14  C   UNL     1      -0.151  11.748   0.064  0.00  0.00    +0.046 C 
BRANCH  13  15
ATOM     15  C   UNL     1      -3.627   8.080   0.068  0.00  0.00    +0.102 C 
ATOM     16  N   UNL     1      -4.688   7.676   0.070  0.00  0.00    -0.191 NA
ENDBRANCH  13  15
ENDBRANCH   1  12
BRANCH   2  17
ATOM     17  C   UNL     1       0.002   4.222   0.025  0.00  0.00    +0.068 C 
ATOM     18  C   UNL     1       1.175   3.557   0.010  0.00  0.00    +0.014 C 
BRANCH  18  19
ATOM     19  C   UNL     1       1.187   2.087   0.002  0.00  0.00    -0.006 A 
ATOM     20  C   UNL     1      -0.017   1.374   0.010  0.00  0.00    +0.011 A 
ATOM     21  C   UNL     1       0.002  -0.004   0.002  0.00  0.00    +0.020 A 
ATOM     22  C   UNL     1       1.209  -0.685  -0.013  0.00  0.00    +0.042 A 
ATOM     23  C   UNL     1       2.405   0.013  -0.021  0.00  0.00    +0.040 A 
ATOM     24  C   UNL     1       2.403   1.393  -0.013  0.00  0.00    +0.049 A 
ATOM     25 CL   UNL     1       3.904   2.266  -0.022  0.00  0.00    -0.083 Cl
ATOM     26 CL   UNL     1       1.222  -2.421  -0.023  0.00  0.00    -0.083 Cl
ENDBRANCH  18  19
ENDBRANCH   2  17
TORSDOF 4
