REMARK  Name = ZINC22845243
REMARK  13 active torsions:
REMARK  status: ('A' for Active; 'I' for Inactive)
REMARK    1  A    between atoms: C_1  and  C_2
REMARK    2  A    between atoms: C_2  and  C_3
REMARK    3  A    between atoms: C_3  and  O_4
REMARK    4  A    between atoms: O_4  and  C_5
REMARK    5  A    between atoms: C_5  and  C_7
REMARK    6  A    between atoms: C_11  and  N_12
REMARK    7  A    between atoms: C_13  and  C_15
REMARK    8  A    between atoms: C_17  and  C_26
REMARK    9  A    between atoms: C_21  and  C_25
REMARK   10  A    between atoms: N_23  and  C_24
REMARK   11  A    between atoms: C_27  and  C_33
REMARK   12  A    between atoms: N_29  and  C_32
REMARK   13  A    between atoms: C_30  and  C_31
REMARK                            x       y       z     vdW  Elec       q    Type
REMARK                         _______ _______ _______ _____ _____    ______ ____
ROOT
ATOM      1  N   UNL     1      -0.957   1.447   5.109  0.00  0.00    -0.275 N 
ATOM      2  C   UNL     1      -1.332   2.287   6.094  0.00  0.00    +0.249 C 
ATOM      3  O   UNL     1      -1.476   3.471   5.861  0.00  0.00    -0.270 OA
ATOM      4  H   UNL     1      -0.827   0.375   5.320  0.00  0.00    +0.156 HD
ENDROOT
BRANCH   2   5
ATOM      5  C   UNL     1      -1.568   1.768   7.458  0.00  0.00    +0.051 A 
ATOM      6  C   UNL     1      -0.774   0.757   7.987  0.00  0.00    +0.042 A 
ATOM      7  C   UNL     1      -1.030   0.294   9.282  0.00  0.00    +0.078 A 
ATOM      8  N   UNL     1      -2.010   0.798  10.013  0.00  0.00    -0.227 NA
ATOM      9  C   UNL     1      -2.797   1.762   9.559  0.00  0.00    +0.160 A 
ATOM     10  C   UNL     1      -2.604   2.290   8.267  0.00  0.00    +0.054 A 
ATOM     11  C   UNL     1      -3.586   3.284   8.073  0.00  0.00    +0.070 A 
ATOM     12  N   UNL     1      -4.312   3.368   9.152  0.00  0.00    -0.174 NA
ATOM     13  N   UNL     1      -3.858   2.443  10.100  0.00  0.00    -0.249 N 
ATOM     14  C   UNL     1      -4.419   2.238  11.437  0.00  0.00    +0.174 C 
ATOM     15  C   UNL     1      -3.762   4.116   6.829  0.00  0.00    +0.068 C 
BRANCH   7  16
ATOM     16  C   UNL     1      -0.184  -0.784   9.847  0.00  0.00    +0.044 A 
ATOM     17  C   UNL     1       0.169  -1.989   9.206  0.00  0.00    +0.069 A 
ATOM     18  N   UNL     1       0.921  -2.677  10.022  0.00  0.00    -0.176 NA
ATOM     19  N   UNL     1       1.078  -1.947  11.207  0.00  0.00    -0.271 N 
ATOM     20  C   UNL     1       0.400  -0.789  11.081  0.00  0.00    +0.045 A 
ATOM     21  C   UNL     1       0.302   0.301  12.117  0.00  0.00    +0.066 C 
ATOM     22  C   UNL     1       1.851  -2.367  12.378  0.00  0.00    +0.172 C 
ATOM     23  C   UNL     1      -0.249  -2.410   7.821  0.00  0.00    +0.068 C 
ENDBRANCH   7  16
ENDBRANCH   2   5
BRANCH   1  28
ATOM     24  C   UNL     1      -0.348   1.231   2.696  0.00  0.00    +0.091 A 
ATOM     25  C   UNL     1      -0.181   1.984   1.467  0.00  0.00    -0.021 A 
ATOM     26  C   UNL     1      -0.430   3.310   1.565  0.00  0.00    -0.004 A 
ATOM     27  S   UNL     1      -0.875   3.562   3.260  0.00  0.00    -0.077 S 
ATOM     28  C   UNL     1      -0.736   1.932   3.831  0.00  0.00    +0.087 A 
ATOM     29  C   UNL     1      -0.343   4.330   0.472  0.00  0.00    +0.043 C 
ATOM     30  C   UNL     1       0.433   3.715  -0.702  0.00  0.00    +0.005 C 
ATOM     31  C   UNL     1      -0.134   2.323  -0.993  0.00  0.00    +0.005 C 
ATOM     32  C   UNL     1       0.235   1.363   0.139  0.00  0.00    +0.037 C 
BRANCH  24  33
ATOM     33  C   UNL     1      -0.115  -0.214   2.739  0.00  0.00    +0.342 C 
ATOM     34  O   UNL     1      -1.030  -0.984   2.517  0.00  0.00    -0.245 OA
BRANCH  33  35
ATOM     35  O   UNL     1       1.114  -0.690   3.024  0.00  0.00    -0.461 OA
BRANCH  35  36
ATOM     36  C   UNL     1       1.273  -2.133   3.049  0.00  0.00    +0.232 C 
BRANCH  36  38
ATOM     37  C   UNL     1       2.890  -4.002   3.413  0.00  0.00    +0.007 C 
ATOM     38  C   UNL     1       2.723  -2.482   3.387  0.00  0.00    +0.038 C 
ENDBRANCH  36  38
ENDBRANCH  35  36
ENDBRANCH  33  35
ENDBRANCH  24  33
ENDBRANCH   1  28
TORSDOF 7
