REMARK  Name = ZINC20717315
REMARK  6 active torsions:
REMARK  status: ('A' for Active; 'I' for Inactive)
REMARK    1  A    between atoms: C_1  and  C_2
REMARK    2  A    between atoms: C_2  and  C_3
REMARK    3  A    between atoms: C_2  and  O_4
REMARK    4  A    between atoms: O_4  and  C_5
REMARK    5  A    between atoms: C_10  and  C_11
REMARK    6  A    between atoms: C_20  and  O_23
REMARK                            x       y       z     vdW  Elec       q    Type
REMARK                         _______ _______ _______ _____ _____    ______ ____
ROOT
ATOM      1  C   UNL     1      -4.057  -1.267   0.026  0.00  0.00    +0.115 C 
ATOM      2  C   UNL     1      -3.785  -2.680   0.443  0.00  0.00    +0.033 A 
ATOM      3  C   UNL     1      -2.643  -3.337   0.094  0.00  0.00    +0.112 A 
ATOM      4  N   UNL     1      -2.689  -4.572   0.625  0.00  0.00    -0.282 N 
ATOM      5  H   UNL     1      -2.007  -5.256   0.537  0.00  0.00    +0.188 HD
ATOM      6  N   UNL     1      -3.891  -4.697   1.322  0.00  0.00    -0.154 NA
ATOM      7  C   UNL     1      -4.566  -3.552   1.212  0.00  0.00    +0.182 A 
ATOM      8  N   UNL     1      -5.784  -3.398   1.781  0.00  0.00    -0.195 NA
ATOM      9  C   UNL     1      -6.636  -2.486   1.857  0.00  0.00    +0.199 C 
ATOM     10  C   UNL     1      -6.596  -1.100   1.349  0.00  0.00    +0.165 C 
ATOM     11  S   UNL     1      -5.803  -0.952  -0.257  0.00  0.00    -0.138 S 
ENDROOT
BRANCH   1  17
ATOM     12  C   UNL     1      -1.965  -0.607  -1.189  0.00  0.00    +0.125 A 
ATOM     13  C   UNL     1      -1.269  -0.349  -2.361  0.00  0.00    +0.046 A 
ATOM     14  C   UNL     1      -1.908  -0.460  -3.581  0.00  0.00    +0.004 A 
ATOM     15  C   UNL     1      -3.240  -0.827  -3.634  0.00  0.00    +0.001 A 
ATOM     16  C   UNL     1      -3.936  -1.084  -2.468  0.00  0.00    +0.008 A 
ATOM     17  C   UNL     1      -3.300  -0.980  -1.245  0.00  0.00    +0.012 A 
BRANCH  12  18
ATOM     18  O   UNL     1      -1.339  -0.499   0.012  0.00  0.00    -0.489 OA
BRANCH  18  20
ATOM     19  C   UNL     1       0.299   1.273  -0.132  0.00  0.00    +0.051 C 
ATOM     20  C   UNL     1       0.066  -0.234  -0.010  0.00  0.00    +0.167 C 
ATOM     21  C   UNL     1       0.701  -0.745   1.285  0.00  0.00    +0.051 C 
ENDBRANCH  18  20
ENDBRANCH  12  18
ENDBRANCH   1  17
BRANCH   9  22
ATOM     22  O   UNL     1      -7.771  -2.822   2.504  0.00  0.00    -0.495 OA
ATOM     23  H   UNL     1      -7.783  -3.732   2.830  0.00  0.00    +0.293 HD
ENDBRANCH   9  22
TORSDOF 4
