REMARK  Name = ZINC39145925
REMARK  2 active torsions:
REMARK  status: ('A' for Active; 'I' for Inactive)
REMARK    1  A    between atoms: C_6  and  N_7
REMARK    2  A    between atoms: C_23  and  O_26
REMARK                            x       y       z     vdW  Elec       q    Type
REMARK                         _______ _______ _______ _____ _____    ______ ____
ROOT
ATOM      1  C   UNL     1      -0.017   1.378   0.010  0.00  0.00    +0.036 A 
ATOM      2  C   UNL     1       1.168   2.086   0.002  0.00  0.00    +0.048 A 
ATOM      3  C   UNL     1       2.386   1.413  -0.016  0.00  0.00    +0.127 A 
ATOM      4  C   UNL     1       2.398   0.029  -0.030  0.00  0.00    +0.002 A 
ATOM      5  C   UNL     1       1.210  -0.677  -0.017  0.00  0.00    +0.040 A 
ATOM      6  C   UNL     1       0.002  -0.004   0.002  0.00  0.00    +0.127 A 
ATOM      7  C   UNL     1       3.703  -0.737  -0.070  0.00  0.00    +0.052 C 
ATOM      8  C   UNL     1       4.816   0.166   0.424  0.00  0.00    +0.077 C 
ATOM      9  C   UNL     1       6.195  -0.401   0.467  0.00  0.00    +0.085 C 
ATOM     10  S   UNL     1       6.611  -1.620  -0.784  0.00  0.00    -0.111 S 
ATOM     11  C   UNL     1       5.189  -2.025  -1.546  0.00  0.00    +0.082 C 
ATOM     12  N   UNL     1       4.996  -3.132  -2.198  0.00  0.00    -0.168 NA
ATOM     13  C   UNL     1       3.825  -3.513  -2.739  0.00  0.00    +0.296 C 
ATOM     14  O   UNL     1       3.598  -4.454  -3.478  0.00  0.00    -0.261 OA
ATOM     15  S   UNL     1       2.684  -2.289  -2.099  0.00  0.00    -0.055 S 
ATOM     16  C   UNL     1       3.970  -1.133  -1.527  0.00  0.00    +0.116 C 
ATOM     17  C   UNL     1       4.757   1.501  -0.318  0.00  0.00    +0.309 C 
ATOM     18  O   UNL     1       3.529   2.148  -0.012  0.00  0.00    -0.463 OA
ENDROOT
BRANCH   6  19
ATOM     19  N   UNL     1      -1.269  -0.763   0.015  0.00  0.00    +0.056 N 
ATOM     20  O   UNL     1      -2.324  -0.173   0.032  0.00  0.00    -0.126 OA
ATOM     21  O   UNL     1      -1.251  -1.972   0.008  0.00  0.00    -0.126 OA
ENDBRANCH   6  19
BRANCH  17  22
ATOM     22  O   UNL     1       5.861   2.320   0.074  0.00  0.00    -0.357 OA
ATOM     23  H   UNL     1       5.883   3.183  -0.360  0.00  0.00    +0.214 HD
ENDBRANCH  17  22
TORSDOF 2
