REMARK  Name = ZINC04113077
REMARK  10 active torsions:
REMARK  status: ('A' for Active; 'I' for Inactive)
REMARK    1  A    between atoms: C_1  and  C_2
REMARK    2  A    between atoms: C_3  and  C_31
REMARK    3  A    between atoms: C_4  and  C_20
REMARK    4  A    between atoms: C_10  and  C_15
REMARK    5  A    between atoms: C_22  and  O_29
REMARK    6  A    between atoms: C_25  and  O_26
REMARK    7  A    between atoms: O_26  and  C_27
REMARK    8  A    between atoms: O_29  and  C_30
REMARK    9  A    between atoms: C_31  and  O_33
REMARK   10  A    between atoms: O_33  and  C_34
REMARK                            x       y       z     vdW  Elec       q    Type
REMARK                         _______ _______ _______ _____ _____    ______ ____
ROOT
ATOM      1  C   UNL     1       4.774   8.321   3.807  0.00  0.00    +0.061 C 
ATOM      2  C   UNL     1       4.536   7.648   2.479  0.00  0.00    +0.031 C 
ATOM      3  C   UNL     1       4.807   8.306   1.339  0.00  0.00    +0.154 C 
ATOM      4  C   UNL     1       4.587   7.668   0.000  0.00  0.00    +0.077 C 
ATOM      5  C   UNL     1       3.678   6.469   0.114  0.00  0.00    +0.025 C 
ATOM      6  C   UNL     1       3.453   5.886   1.309  0.00  0.00    +0.049 C 
ATOM      7  N   UNL     1       4.045   6.373   2.443  0.00  0.00    -0.260 NA
ATOM      8  C   UNL     1       2.544   4.687   1.430  0.00  0.00    +0.065 C 
ATOM      9  C   UNL     1       2.592   3.871   0.140  0.00  0.00    +0.039 C 
ATOM     10  C   UNL     1       2.175   4.774  -1.026  0.00  0.00    +0.088 C 
ATOM     11  C   UNL     1       3.076   5.979  -1.058  0.00  0.00    +0.162 C 
ATOM     12  O   UNL     1       3.286   6.538  -2.116  0.00  0.00    -0.292 OA
ENDROOT
BRANCH   4  13
ATOM     13  C   UNL     1       5.917   7.229  -0.556  0.00  0.00    +0.006 A 
ATOM     14  C   UNL     1       6.674   6.293   0.121  0.00  0.00    +0.054 A 
ATOM     15  C   UNL     1       7.898   5.889  -0.390  0.00  0.00    +0.134 A 
ATOM     16  C   UNL     1       8.362   6.425  -1.583  0.00  0.00    +0.063 A 
ATOM     17  C   UNL     1       7.604   7.362  -2.261  0.00  0.00    +0.064 A 
ATOM     18  C   UNL     1       6.378   7.761  -1.751  0.00  0.00    +0.125 A 
ATOM     19 BR   UNL     1      10.031   5.875  -2.282  0.00  0.00    -0.046 Br
BRANCH  18  20
ATOM     20  O   UNL     1       5.629   8.678  -2.420  0.00  0.00    -0.495 OA
ATOM     21  C   UNL     1       6.165   9.184  -3.644  0.00  0.00    +0.277 C 
ENDBRANCH  18  20
BRANCH  15  22
ATOM     22  O   UNL     1       8.643   4.967   0.276  0.00  0.00    -0.494 OA
ATOM     23  C   UNL     1       8.104   4.458   1.498  0.00  0.00    +0.277 C 
ENDBRANCH  15  22
ENDBRANCH   4  13
BRANCH   9  24
ATOM     24  C   UNL     1       1.644   2.704   0.241  0.00  0.00    -0.006 A 
ATOM     25  C   UNL     1       1.911   1.378   0.166  0.00  0.00    +0.011 A 
ATOM     26  C   UNL     1       0.871   0.476   0.287  0.00  0.00    +0.008 A 
ATOM     27  C   UNL     1      -0.387   0.945   0.472  0.00  0.00    +0.045 A 
ATOM     28  S   UNL     1      -0.124   2.711   0.491  0.00  0.00    -0.101 S 
ENDBRANCH   9  24
BRANCH   3  29
ATOM     29  C   UNL     1       5.307   9.627   1.402  0.00  0.00    +0.316 C 
ATOM     30  O   UNL     1       5.373  10.203   2.473  0.00  0.00    -0.250 OA
BRANCH  29  31
ATOM     31  O   UNL     1       5.712  10.251   0.276  0.00  0.00    -0.467 OA
ATOM     32  C   UNL     1       6.205  11.585   0.414  0.00  0.00    +0.280 C 
ENDBRANCH  29  31
ENDBRANCH   3  29
TORSDOF 6
