REMARK  Name = ZINC37944603
REMARK  8 active torsions:
REMARK  status: ('A' for Active; 'I' for Inactive)
REMARK    1  A    between atoms: C_1  and  O_2
REMARK    2  A    between atoms: O_2  and  C_3
REMARK    3  A    between atoms: C_7  and  N_9
REMARK    4  A    between atoms: N_9  and  C_10
REMARK    5  A    between atoms: C_10  and  C_12
REMARK    6  A    between atoms: C_10  and  C_20
REMARK    7  A    between atoms: C_15  and  O_19
REMARK    8  A    between atoms: C_16  and  O_18
REMARK                            x       y       z     vdW  Elec       q    Type
REMARK                         _______ _______ _______ _____ _____    ______ ____
ROOT
ATOM      1  C   UNL     1       1.977  -4.642  -3.432  0.00  0.00    +0.187 C 
ENDROOT
BRANCH   1   2
ATOM      2  C   UNL     1       1.403  -6.022  -3.624  0.00  0.00    -0.015 A 
ATOM      3  C   UNL     1       1.115  -6.809  -2.523  0.00  0.00    +0.010 A 
ATOM      4  C   UNL     1       0.589  -8.075  -2.694  0.00  0.00    +0.049 A 
ATOM      5  C   UNL     1       0.347  -8.559  -3.970  0.00  0.00    +0.158 A 
ATOM      6  C   UNL     1       0.636  -7.768  -5.077  0.00  0.00    +0.159 A 
ATOM      7  C   UNL     1       1.159  -6.497  -4.899  0.00  0.00    +0.055 A 
BRANCH   6   8
ATOM      8  O   UNL     1       0.401  -8.238  -6.331  0.00  0.00    -0.503 OA
ATOM      9  H   UNL     1      -0.484  -8.038  -6.667  0.00  0.00    +0.292 HD
ENDBRANCH   6   8
BRANCH   5  10
ATOM     10  O   UNL     1      -0.170  -9.805  -4.139  0.00  0.00    -0.503 OA
ATOM     11  H   UNL     1      -1.137  -9.830  -4.161  0.00  0.00    +0.292 HD
ENDBRANCH   5  10
ENDBRANCH   1   2
BRANCH   1  12
ATOM     12  C   UNL     1       3.458  -4.745  -3.173  0.00  0.00    +0.235 C 
ATOM     13  O   UNL     1       3.923  -4.322  -2.136  0.00  0.00    -0.274 OA
ATOM     14  N   UNL     1       4.265  -5.309  -4.093  0.00  0.00    -0.328 N 
ATOM     15  H   UNL     1       3.893  -5.648  -4.922  0.00  0.00    +0.145 HD
ATOM     16  H   UNL     1       5.218  -5.375  -3.926  0.00  0.00    +0.145 HD
ENDBRANCH   1  12
BRANCH   1  17
ATOM     17  N   UNL     1       1.325  -3.996  -2.290  0.00  0.00    -0.329 N 
ATOM     18  H   UNL     1       0.930  -4.537  -1.588  0.00  0.00    +0.147 HD
BRANCH  17  23
ATOM     19  C   UNL     1       0.606  -0.607  -1.056  0.00  0.00    +0.122 A 
ATOM     20  C   UNL     1       1.173   0.162  -2.063  0.00  0.00    +0.046 A 
ATOM     21  C   UNL     1       1.787  -0.450  -3.139  0.00  0.00    +0.005 A 
ATOM     22  C   UNL     1       1.839  -1.828  -3.216  0.00  0.00    +0.023 A 
ATOM     23  C   UNL     1       1.273  -2.603  -2.212  0.00  0.00    +0.031 A 
ATOM     24  C   UNL     1       0.660  -1.990  -1.127  0.00  0.00    +0.068 A 
BRANCH  19  26
ATOM     25  C   UNL     1      -0.017   1.425   0.010  0.00  0.00    +0.277 C 
ATOM     26  O   UNL     1       0.002  -0.004   0.002  0.00  0.00    -0.495 OA
ENDBRANCH  19  26
ENDBRANCH  17  23
ENDBRANCH   1  17
TORSDOF 7
