REMARK  Name = ZINC63964887
REMARK  3 active torsions:
REMARK  status: ('A' for Active; 'I' for Inactive)
REMARK    1  A    between atoms: C_3  and  C_8
REMARK    2  A    between atoms: C_8  and  C_9
REMARK    3  A    between atoms: C_15  and  C_17
REMARK                            x       y       z     vdW  Elec       q    Type
REMARK                         _______ _______ _______ _____ _____    ______ ____
ROOT
ATOM      1  C   UNL     1       4.126   2.452   1.733  0.00  0.00    +0.081 C 
ATOM      2  C   UNL     1       5.466   3.092   2.152  0.00  0.00    +0.024 C 
ATOM      3  C   UNL     1       5.087   3.886   3.430  0.00  0.00    +0.021 C 
ATOM      4  C   UNL     1       3.658   4.371   3.083  0.00  0.00    +0.108 C 
ATOM      5  N   UNL     1       3.049   3.251   2.336  0.00  0.00    -0.294 N 
ATOM      6  C   UNL     1       1.729   3.004   2.223  0.00  0.00    +0.247 C 
ATOM      7  O   UNL     1       1.346   1.979   1.693  0.00  0.00    -0.270 OA
ENDROOT
BRANCH   6   8
ATOM      8  C   UNL     1       0.746   3.979   2.744  0.00  0.00    +0.039 A 
ATOM      9  C   UNL     1       1.193   5.314   3.134  0.00  0.00    +0.015 A 
ATOM     10  C   UNL     1       0.337   6.240   3.615  0.00  0.00    +0.026 A 
ATOM     11  C   UNL     1      -1.040   5.942   3.758  0.00  0.00    +0.055 A 
ATOM     12  N   UNL     1      -1.876   6.848   4.228  0.00  0.00    -0.276 N 
ATOM     13  C   UNL     1      -3.183   6.553   4.360  0.00  0.00    +0.304 C 
ATOM     14  O   UNL     1      -3.957   7.384   4.792  0.00  0.00    -0.265 OA
ATOM     15  C   UNL     1      -3.676   5.196   3.970  0.00  0.00    +0.304 C 
ATOM     16  O   UNL     1      -4.852   4.916   4.083  0.00  0.00    -0.265 OA
ATOM     17  N   UNL     1      -2.801   4.283   3.491  0.00  0.00    -0.276 N 
ATOM     18  C   UNL     1      -1.530   4.595   3.372  0.00  0.00    +0.056 A 
ATOM     19  C   UNL     1      -0.567   3.621   2.848  0.00  0.00    +0.038 A 
ATOM     20  H   UNL     1      -3.111   3.400   3.236  0.00  0.00    +0.155 HD
ATOM     21  H   UNL     1      -1.549   7.726   4.479  0.00  0.00    +0.155 HD
ENDBRANCH   6   8
BRANCH   1  22
ATOM     22  C   UNL     1       3.995   2.469   0.208  0.00  0.00    +0.057 C 
BRANCH  22  25
ATOM     23  C   UNL     1       0.494   1.755  -1.014  0.00  0.00    +0.003 A 
ATOM     24  C   UNL     1       1.641   2.432  -0.642  0.00  0.00    +0.004 A 
ATOM     25  C   UNL     1       2.746   1.730  -0.197  0.00  0.00    -0.043 A 
ATOM     26  C   UNL     1       2.705   0.350  -0.124  0.00  0.00    +0.042 A 
ATOM     27  C   UNL     1       1.557  -0.328  -0.496  0.00  0.00    +0.124 A 
ATOM     28  C   UNL     1       0.451   0.376  -0.941  0.00  0.00    +0.038 A 
ATOM     29  F   UNL     1       1.516  -1.677  -0.425  0.00  0.00    -0.205 F 
ENDBRANCH  22  25
ENDBRANCH   1  22
TORSDOF 3
