REMARK  Name = ZINC09418856
REMARK  7 active torsions:
REMARK  status: ('A' for Active; 'I' for Inactive)
REMARK    1  A    between atoms: C_1  and  C_2
REMARK    2  A    between atoms: C_2  and  C_3
REMARK    3  A    between atoms: C_2  and  N_4
REMARK    4  A    between atoms: C_11  and  N_30
REMARK    5  A    between atoms: C_21  and  C_22
REMARK    6  A    between atoms: C_21  and  N_66
REMARK    7  A    between atoms: C_23  and  C_24
REMARK                            x       y       z     vdW  Elec       q    Type
REMARK                         _______ _______ _______ _____ _____    ______ ____
ROOT
ATOM      1  N   UNL     1      -2.322   0.131  -2.491  0.00  0.00    -0.222 N 
ATOM      2  C   UNL     1      -2.045   0.846  -1.391  0.00  0.00    +0.240 C 
ATOM      3  O   UNL     1      -2.862   0.892  -0.497  0.00  0.00    -0.274 OA
ATOM      4  C   UNL     1      -0.750   1.591  -1.235  0.00  0.00    +0.144 C 
ATOM      5  C   UNL     1      -0.013   1.086   0.008  0.00  0.00    +0.064 C 
ATOM      6  C   UNL     1      -0.715   1.571   1.251  0.00  0.00    -0.023 A 
ATOM      7  C   UNL     1      -0.401   0.965   2.458  0.00  0.00    +0.038 A 
ATOM      8  C   UNL     1      -1.008   1.376   3.627  0.00  0.00    +0.127 A 
ATOM      9  C   UNL     1      -1.939   2.398   3.598  0.00  0.00    +0.034 A 
ATOM     10  C   UNL     1      -2.257   3.003   2.405  0.00  0.00    +0.025 A 
ATOM     11  C   UNL     1      -1.650   2.590   1.218  0.00  0.00    +0.033 A 
ATOM     12  N   UNL     1      -2.021   3.232   0.040  0.00  0.00    -0.329 N 
ATOM     13  C   UNL     1      -1.039   3.084  -1.036  0.00  0.00    +0.081 C 
ATOM     14  C   UNL     1      -1.605   3.676  -2.328  0.00  0.00    -0.054 C 
ATOM     15  C   UNL     1      -2.914   5.244  -1.024  0.00  0.00    -0.059 C 
ATOM     16  C   UNL     1      -2.348   4.646   0.267  0.00  0.00    +0.087 C 
ATOM     17  C   UNL     1       0.119   1.407  -2.446  0.00  0.00    +0.238 C 
ATOM     18  O   UNL     1       1.204   1.947  -2.480  0.00  0.00    -0.274 OA
ATOM     19  N   UNL     1      -0.270   0.661  -3.490  0.00  0.00    -0.239 N 
ATOM     20  C   UNL     1      -1.459   0.039  -3.514  0.00  0.00    +0.315 C 
ATOM     21  O   UNL     1      -1.761  -0.623  -4.486  0.00  0.00    -0.252 OA
ATOM     22  H   UNL     1       0.325   0.569  -4.250  0.00  0.00    +0.159 HD
ATOM     23  N   UNL     1      -1.908   5.106  -2.099  0.00  0.00    +0.384 N 
ATOM     24  H   UNL     1      -1.048   5.587  -1.813  0.00  0.00    -0.081 HD
ENDROOT
BRANCH   1  26
ATOM     25  C   UNL     1      -4.388  -0.055  -3.787  0.00  0.00    +0.028 C 
ATOM     26  C   UNL     1      -3.604  -0.571  -2.578  0.00  0.00    +0.080 C 
ATOM     27  C   UNL     1      -3.355  -2.073  -2.735  0.00  0.00    +0.028 C 
ENDBRANCH   1  26
BRANCH   8  28
ATOM     28  N   UNL     1      -0.665   0.722   4.910  0.00  0.00    +0.056 N 
ATOM     29  O   UNL     1       0.155  -0.178   4.934  0.00  0.00    -0.126 OA
ATOM     30  O   UNL     1      -1.202   1.085   5.941  0.00  0.00    -0.126 OA
ENDBRANCH   8  28
BRANCH  23  31
ATOM     31  C   UNL     1      -2.413   5.721  -3.344  0.00  0.00    -0.051 C 
BRANCH  31  32
ATOM     32  C   UNL     1      -2.966   7.088  -3.031  0.00  0.00    -0.045 C 
ATOM     33  C   UNL     1      -2.502   8.153  -3.669  0.00  0.00    +0.002 C 
BRANCH  33  34
ATOM     34  C   UNL     1      -3.045   9.493  -3.362  0.00  0.00    -0.025 A 
ATOM     35  C   UNL     1      -4.050   9.639  -2.405  0.00  0.00    +0.008 A 
ATOM     36  C   UNL     1      -4.549  10.894  -2.119  0.00  0.00    +0.001 A 
ATOM     37  C   UNL     1      -4.062  12.004  -2.786  0.00  0.00    +0.000 A 
ATOM     38  C   UNL     1      -3.069  11.864  -3.740  0.00  0.00    +0.001 A 
ATOM     39  C   UNL     1      -2.558  10.616  -4.031  0.00  0.00    +0.008 A 
ENDBRANCH  33  34
ENDBRANCH  31  32
ENDBRANCH  23  31
TORSDOF 5
