REMARK  Name = ZINC57005432
REMARK  6 active torsions:
REMARK  status: ('A' for Active; 'I' for Inactive)
REMARK    1  A    between atoms: C_1  and  C_2
REMARK    2  A    between atoms: C_10  and  C_11
REMARK    3  A    between atoms: C_11  and  C_13
REMARK    4  A    between atoms: C_11  and  N_14
REMARK    5  A    between atoms: N_17  and  C_18
REMARK    6  A    between atoms: C_27  and  O_29
REMARK                            x       y       z     vdW  Elec       q    Type
REMARK                         _______ _______ _______ _____ _____    ______ ____
ROOT
ATOM      1  N   UNL     1      -0.928  -1.145   3.277  0.00  0.00    -0.290 N 
ATOM      2  C   UNL     1      -1.473  -0.636   4.399  0.00  0.00    +0.301 C 
ATOM      3  O   UNL     1      -1.169   0.481   4.770  0.00  0.00    -0.253 OA
ATOM      4  N   UNL     1      -2.355  -1.366   5.111  0.00  0.00    -0.290 N 
ATOM      5  H   UNL     1      -1.171  -2.037   2.981  0.00  0.00    +0.151 HD
ATOM      6  H   UNL     1      -2.598  -2.257   4.815  0.00  0.00    +0.151 HD
ENDROOT
BRANCH   4   7
ATOM      7  C   UNL     1      -2.948  -0.812   6.331  0.00  0.00    +0.134 C 
ATOM      8  C   UNL     1      -2.066  -1.111   7.525  0.00  0.00    -0.021 A 
ATOM      9  C   UNL     1      -0.896  -0.505   7.950  0.00  0.00    +0.006 A 
ATOM     10  C   UNL     1      -0.253  -0.954   9.087  0.00  0.00    +0.000 A 
ATOM     11  C   UNL     1      -0.780  -2.013   9.804  0.00  0.00    +0.000 A 
ATOM     12  C   UNL     1      -1.947  -2.618   9.382  0.00  0.00    +0.004 A 
ATOM     13  C   UNL     1      -2.593  -2.169   8.242  0.00  0.00    -0.040 A 
ATOM     14  C   UNL     1      -3.864  -2.654   7.579  0.00  0.00    +0.069 C 
ATOM     15  C   UNL     1      -4.292  -1.506   6.636  0.00  0.00    +0.143 C 
BRANCH  15  16
ATOM     16  O   UNL     1      -4.881  -2.022   5.440  0.00  0.00    -0.389 OA
ATOM     17  H   UNL     1      -5.728  -2.467   5.578  0.00  0.00    +0.210 HD
ENDBRANCH  15  16
ENDBRANCH   4   7
BRANCH   1  18
ATOM     18  C   UNL     1       0.030  -0.352   2.503  0.00  0.00    +0.138 C 
ATOM     19  C   UNL     1       1.432  -0.532   3.090  0.00  0.00    +0.036 C 
BRANCH  18  29
ATOM     20  C   UNL     1      -0.018   1.503   0.010  0.00  0.00    +0.048 C 
ATOM     21  C   UNL     1       0.002  -0.004   0.002  0.00  0.00    +0.000 A 
ATOM     22  C   UNL     1       0.009  -0.879  -1.177  0.00  0.00    +0.023 A 
ATOM     23  C   UNL     1       0.000  -0.660  -2.553  0.00  0.00    +0.012 A 
ATOM     24  C   UNL     1       0.011  -1.726  -3.409  0.00  0.00    +0.001 A 
ATOM     25  C   UNL     1       0.031  -3.023  -2.916  0.00  0.00    +0.004 A 
ATOM     26  C   UNL     1       0.040  -3.259  -1.558  0.00  0.00    +0.047 A 
ATOM     27  C   UNL     1       0.029  -2.190  -0.671  0.00  0.00    +0.136 A 
ATOM     28  O   UNL     1       0.033  -2.100   0.674  0.00  0.00    -0.458 OA
ATOM     29  C   UNL     1       0.023  -0.814   1.069  0.00  0.00    +0.129 A 
ENDBRANCH  18  29
ENDBRANCH   1  18
TORSDOF 4
