REMARK  Name = ZINC13125975
REMARK  8 active torsions:
REMARK  status: ('A' for Active; 'I' for Inactive)
REMARK    1  A    between atoms: C_1  and  C_2
REMARK    2  A    between atoms: C_4  and  O_9
REMARK    3  A    between atoms: O_9  and  C_10
REMARK    4  A    between atoms: C_10  and  C_11
REMARK    5  A    between atoms: C_11  and  O_13
REMARK    6  A    between atoms: O_13  and  C_14
REMARK    7  A    between atoms: C_14  and  C_15
REMARK    8  A    between atoms: N_17  and  C_18
REMARK                            x       y       z     vdW  Elec       q    Type
REMARK                         _______ _______ _______ _____ _____    ______ ____
ROOT
ATOM      1  C   UNL     1      -3.601   1.693   0.129  0.00  0.00    +0.255 C 
ATOM      2  O   UNL     1      -3.621   2.905   0.137  0.00  0.00    -0.272 OA
ATOM      3  N   UNL     1      -2.428   1.038   0.018  0.00  0.00    -0.283 N 
ATOM      4  H   UNL     1      -2.418   0.072  -0.065  0.00  0.00    +0.155 HD
ENDROOT
BRANCH   3   5
ATOM      5  C   UNL     1      -1.224   1.754   0.023  0.00  0.00    +0.037 A 
ATOM      6  C   UNL     1      -0.148   1.309  -0.734  0.00  0.00    +0.027 A 
ATOM      7  C   UNL     1       1.043   2.009  -0.725  0.00  0.00    +0.051 A 
ATOM      8  C   UNL     1       1.165   3.160   0.034  0.00  0.00    +0.167 A 
ATOM      9  C   UNL     1       0.084   3.614   0.790  0.00  0.00    +0.169 A 
ATOM     10  C   UNL     1      -1.108   2.912   0.781  0.00  0.00    +0.073 A 
ATOM     11  O   UNL     1       0.465   4.759   1.440  0.00  0.00    -0.447 OA
ATOM     12  C   UNL     1       1.581   5.232   0.672  0.00  0.00    +0.254 C 
ATOM     13  O   UNL     1       2.212   4.027   0.216  0.00  0.00    -0.448 OA
ATOM     14  C   UNL     1       2.533   6.069   1.533  0.00  0.00    +0.093 C 
ATOM     15  C   UNL     1       3.061   7.155   0.559  0.00  0.00    +0.008 C 
ATOM     16  C   UNL     1       1.818   7.473  -0.310  0.00  0.00    +0.008 C 
ATOM     17  C   UNL     1       1.126   6.104  -0.498  0.00  0.00    +0.093 C 
ENDBRANCH   3   5
BRANCH   1  18
ATOM     18  C   UNL     1      -4.888   0.917   0.243  0.00  0.00    +0.328 C 
BRANCH  18  19
ATOM     19  O   UNL     1      -6.003   1.842   0.350  0.00  0.00    -0.453 OA
BRANCH  19  20
ATOM     20  C   UNL     1      -7.229   1.309   0.460  0.00  0.00    +0.346 C 
ATOM     21  O   UNL     1      -7.367   0.108   0.466  0.00  0.00    -0.247 OA
BRANCH  20  22
ATOM     22  C   UNL     1      -8.434   2.206   0.575  0.00  0.00    +0.349 C 
BRANCH  22  23
ATOM     23  O   UNL     1      -9.615   1.408   0.679  0.00  0.00    -0.481 OA
BRANCH  23  27
ATOM     24  C   UNL     1     -14.473   1.254   1.124  0.00  0.00    +0.045 C 
ATOM     25  C   UNL     1     -13.185   2.028   1.010  0.00  0.00    -0.029 A 
ATOM     26  C   UNL     1     -11.983   1.355   0.896  0.00  0.00    +0.050 A 
ATOM     27  C   UNL     1     -10.798   2.068   0.791  0.00  0.00    +0.122 A 
ATOM     28  C   UNL     1     -10.821   3.455   0.806  0.00  0.00    +0.047 A 
ATOM     29  C   UNL     1     -12.025   4.124   0.914  0.00  0.00    +0.024 A 
ATOM     30  C   UNL     1     -13.206   3.411   1.019  0.00  0.00    +0.044 A 
ATOM     31 CL   UNL     1     -14.717   4.253   1.162  0.00  0.00    -0.083 Cl
ENDBRANCH  23  27
ENDBRANCH  22  23
ENDBRANCH  20  22
ENDBRANCH  19  20
ENDBRANCH  18  19
ENDBRANCH   1  18
TORSDOF 7
