REMARK  Name = ZINC43766786
REMARK  6 active torsions:
REMARK  status: ('A' for Active; 'I' for Inactive)
REMARK    1  A    between atoms: C_1  and  C_2
REMARK    2  A    between atoms: C_10  and  C_22
REMARK    3  A    between atoms: C_12  and  C_18
REMARK    4  A    between atoms: C_12  and  C_20
REMARK    5  A    between atoms: C_13  and  N_17
REMARK    6  A    between atoms: C_14  and  C_15
REMARK                            x       y       z     vdW  Elec       q    Type
REMARK                         _______ _______ _______ _____ _____    ______ ____
ROOT
ATOM      1  C   UNL     1       0.282   1.550  -0.069  0.00  0.00    +0.008 C 
ATOM      2  C   UNL     1       0.411   0.026  -0.111  0.00  0.00    -0.010 C 
ATOM      3  C   UNL     1      -0.986  -0.610  -0.126  0.00  0.00    +0.030 C 
ATOM      4  C   UNL     1      -1.716  -0.139   1.106  0.00  0.00    -0.021 C 
ATOM      5  C   UNL     1      -1.067   0.101   2.228  0.00  0.00    -0.029 C 
ATOM      6  C   UNL     1       0.407  -0.117   2.403  0.00  0.00    +0.031 C 
ATOM      7  C   UNL     1       1.149  -0.462   1.134  0.00  0.00    +0.012 C 
ATOM      8  C   UNL     1       0.994   1.112   3.099  0.00  0.00    +0.066 C 
ATOM      9  C   UNL     1       0.375   1.234   4.492  0.00  0.00    +0.188 C 
ATOM     10  C   UNL     1      -1.121   1.155   4.443  0.00  0.00    +0.054 C 
ATOM     11  C   UNL     1      -1.812   0.621   3.405  0.00  0.00    +0.074 C 
ENDROOT
BRANCH   8  12
ATOM     12  C   UNL     1       0.680   2.347   2.294  0.00  0.00    -0.038 A 
ATOM     13  C   UNL     1      -0.609   2.846   2.270  0.00  0.00    +0.007 A 
ATOM     14  C   UNL     1      -0.900   3.978   1.532  0.00  0.00    +0.041 A 
ATOM     15  C   UNL     1       0.100   4.614   0.818  0.00  0.00    +0.158 A 
ATOM     16  C   UNL     1       1.393   4.114   0.843  0.00  0.00    +0.159 A 
ATOM     17  C   UNL     1       1.682   2.982   1.586  0.00  0.00    +0.045 A 
ATOM     18  F   UNL     1       2.371   4.732   0.146  0.00  0.00    -0.202 F 
ATOM     19  F   UNL     1      -0.183   5.720   0.096  0.00  0.00    -0.202 F 
ENDBRANCH   8  12
BRANCH  10  20
ATOM     20  N   UNL     1      -1.829   1.648   5.504  0.00  0.00    -0.358 N 
ATOM     21  H   UNL     1      -1.362   2.036   6.260  0.00  0.00    +0.142 HD
ATOM     22  H   UNL     1      -2.798   1.610   5.500  0.00  0.00    +0.142 HD
ENDBRANCH  10  20
BRANCH  11  23
ATOM     23  C   UNL     1      -3.242   0.558   3.442  0.00  0.00    +0.101 C 
ATOM     24  N   UNL     1      -4.377   0.509   3.471  0.00  0.00    -0.191 NA
ENDBRANCH  11  23
BRANCH   9  25
ATOM     25  C   UNL     1       0.885   0.146   5.342  0.00  0.00    +0.091 C 
ATOM     26  N   UNL     1       1.280  -0.694   5.997  0.00  0.00    -0.194 NA
ENDBRANCH   9  25
BRANCH   9  27
ATOM     27  C   UNL     1       0.768   2.525   5.081  0.00  0.00    +0.091 C 
ATOM     28  N   UNL     1       1.071   3.521   5.535  0.00  0.00    -0.194 NA
ENDBRANCH   9  27
TORSDOF 5
