REMARK  Name = ZINC12285338
REMARK  8 active torsions:
REMARK  status: ('A' for Active; 'I' for Inactive)
REMARK    1  A    between atoms: C_1  and  C_2
REMARK    2  A    between atoms: C_2  and  O_3
REMARK    3  A    between atoms: O_3  and  C_4
REMARK    4  A    between atoms: C_7  and  N_10
REMARK    5  A    between atoms: C_11  and  C_13
REMARK    6  A    between atoms: N_18  and  C_29
REMARK    7  A    between atoms: N_20  and  C_21
REMARK    8  A    between atoms: C_29  and  C_30
REMARK                            x       y       z     vdW  Elec       q    Type
REMARK                         _______ _______ _______ _____ _____    ______ ____
ROOT
ATOM      1  C   UNL     1      -2.559  -8.484  -0.181  0.00  0.00    +0.149 C 
ATOM      2  C   UNL     1      -3.853  -8.748  -0.955  0.00  0.00    +0.120 C 
ATOM      3  C   UNL     1      -4.504 -10.027  -0.556  0.00  0.00    +0.223 C 
ATOM      4  O   UNL     1      -5.178 -10.562  -1.410  0.00  0.00    -0.275 OA
ATOM      5  N   UNL     1      -4.446 -10.656   0.608  0.00  0.00    -0.246 N 
ATOM      6  C   UNL     1      -3.622 -10.282   1.655  0.00  0.00    +0.164 C 
ATOM      7  N   UNL     1      -3.367 -11.100   2.649  0.00  0.00    -0.223 NA
ATOM      8  S   UNL     1      -2.923  -8.654   1.597  0.00  0.00    -0.077 S 
ENDROOT
BRANCH   7   9
ATOM      9  C   UNL     1      -2.630 -10.667   3.720  0.00  0.00    +0.102 A 
ATOM     10  C   UNL     1      -2.967  -9.478   4.368  0.00  0.00    +0.031 A 
ATOM     11  C   UNL     1      -2.221  -9.047   5.446  0.00  0.00    +0.002 A 
ATOM     12  C   UNL     1      -1.140  -9.791   5.885  0.00  0.00    +0.003 A 
ATOM     13  C   UNL     1      -0.798 -10.970   5.248  0.00  0.00    +0.040 A 
ATOM     14  C   UNL     1      -1.540 -11.416   4.171  0.00  0.00    +0.149 A 
ATOM     15  F   UNL     1      -1.209 -12.571   3.553  0.00  0.00    -0.203 F 
ENDBRANCH   7   9
BRANCH   1  17
ATOM     16  N   UNL     1      -0.745  -6.838  -0.521  0.00  0.00    -0.285 N 
ATOM     17  C   UNL     1      -2.068  -7.089  -0.470  0.00  0.00    +0.231 C 
ATOM     18  O   UNL     1      -2.864  -6.192  -0.656  0.00  0.00    -0.274 OA
ATOM     19  H   UNL     1      -0.109  -7.565  -0.431  0.00  0.00    +0.155 HD
BRANCH  16  23
ATOM     20  C   UNL     1       0.616  -2.934  -1.065  0.00  0.00    +0.121 A 
ATOM     21  C   UNL     1      -0.551  -3.168  -0.353  0.00  0.00    +0.047 A 
ATOM     22  C   UNL     1      -1.003  -4.461  -0.173  0.00  0.00    +0.027 A 
ATOM     23  C   UNL     1      -0.288  -5.526  -0.704  0.00  0.00    +0.034 A 
ATOM     24  C   UNL     1       0.880  -5.291  -1.416  0.00  0.00    +0.027 A 
ATOM     25  C   UNL     1       1.328  -3.997  -1.601  0.00  0.00    +0.047 A 
BRANCH  20  26
ATOM     26  O   UNL     1       1.060  -1.661  -1.242  0.00  0.00    -0.492 OA
BRANCH  26  28
ATOM     27  C   UNL     1       0.930   0.736  -0.965  0.00  0.00    +0.048 C 
ATOM     28  C   UNL     1       0.278  -0.615  -0.663  0.00  0.00    +0.225 C 
ENDBRANCH  26  28
ENDBRANCH  20  26
ENDBRANCH  16  23
ENDBRANCH   1  17
BRANCH   5  29
ATOM     29  C   UNL     1      -5.310 -11.824   0.800  0.00  0.00    +0.150 C 
BRANCH  29  30
ATOM     30  C   UNL     1      -4.580 -13.066   0.358  0.00  0.00    -0.026 A 
ATOM     31  C   UNL     1      -4.675 -13.493  -0.953  0.00  0.00    +0.009 A 
ATOM     32  C   UNL     1      -4.007 -14.632  -1.363  0.00  0.00    +0.050 A 
ATOM     33  C   UNL     1      -3.241 -15.349  -0.459  0.00  0.00    +0.166 A 
ATOM     34  C   UNL     1      -3.145 -14.920   0.862  0.00  0.00    +0.167 A 
ATOM     35  C   UNL     1      -3.812 -13.774   1.264  0.00  0.00    +0.054 A 
ATOM     36  O   UNL     1      -2.341 -15.786   1.545  0.00  0.00    -0.453 OA
ATOM     37  C   UNL     1      -2.277 -16.973   0.733  0.00  0.00    +0.466 C 
ATOM     38  O   UNL     1      -2.497 -16.485  -0.604  0.00  0.00    -0.453 OA
ENDBRANCH  29  30
ENDBRANCH   5  29
TORSDOF 7
