REMARK  Name = ZINC51330020
REMARK  4 active torsions:
REMARK  status: ('A' for Active; 'I' for Inactive)
REMARK    1  A    between atoms: C_4  and  O_26
REMARK    2  A    between atoms: C_5  and  C_7
REMARK    3  A    between atoms: C_17  and  C_19
REMARK    4  A    between atoms: C_24  and  O_25
REMARK                            x       y       z     vdW  Elec       q    Type
REMARK                         _______ _______ _______ _____ _____    ______ ____
ROOT
ATOM      1  C   UNL     1       1.252  -2.155  -0.022  0.00  0.00    +0.017 C 
ATOM      2  C   UNL     1       0.102  -2.852   0.087  0.00  0.00    -0.024 C 
ATOM      3  C   UNL     1       0.149  -4.346   0.197  0.00  0.00    +0.037 C 
ATOM      4  C   UNL     1      -1.205  -5.022   0.151  0.00  0.00    +0.005 C 
ATOM      5  C   UNL     1      -2.329  -4.183   0.757  0.00  0.00    +0.012 C 
ATOM      6  C   UNL     1      -2.460  -2.902  -0.067  0.00  0.00    +0.066 C 
ATOM      7  C   UNL     1      -1.135  -2.164   0.103  0.00  0.00    +0.067 C 
ATOM      8  N   UNL     1      -1.386  -0.911   0.259  0.00  0.00    -0.191 NA
ATOM      9  N   UNL     1      -2.751  -0.625   0.383  0.00  0.00    -0.261 N 
ATOM     10  C   UNL     1      -3.484  -1.925   0.530  0.00  0.00    +0.131 C 
ATOM     11  H   UNL     1      -3.157   0.255   0.359  0.00  0.00    +0.169 HD
ENDROOT
BRANCH   1  16
ATOM     12  C   UNL     1       0.314   1.134  -1.562  0.00  0.00    +0.001 A 
ATOM     13  C   UNL     1       1.139   2.003  -0.869  0.00  0.00    +0.004 A 
ATOM     14  C   UNL     1       2.003   1.526   0.099  0.00  0.00    +0.046 A 
ATOM     15  C   UNL     1       2.048   0.171   0.383  0.00  0.00    +0.124 A 
ATOM     16  C   UNL     1       1.213  -0.714  -0.315  0.00  0.00    +0.017 A 
ATOM     17  C   UNL     1       0.344  -0.218  -1.292  0.00  0.00    +0.011 A 
BRANCH  15  18
ATOM     18  O   UNL     1       2.897  -0.299   1.334  0.00  0.00    -0.506 OA
ATOM     19  H   UNL     1       2.515  -0.327   2.222  0.00  0.00    +0.292 HD
ENDBRANCH  15  18
ENDBRANCH   1  16
BRANCH  10  20
ATOM     20  C   UNL     1      -4.772  -1.946  -0.252  0.00  0.00    +0.016 A 
ATOM     21  C   UNL     1      -4.986  -1.021  -1.257  0.00  0.00    +0.009 A 
ATOM     22  C   UNL     1      -6.168  -1.040  -1.974  0.00  0.00    +0.001 A 
ATOM     23  C   UNL     1      -7.138  -1.983  -1.689  0.00  0.00    +0.004 A 
ATOM     24  C   UNL     1      -6.929  -2.909  -0.686  0.00  0.00    +0.046 A 
ATOM     25  C   UNL     1      -5.741  -2.896   0.032  0.00  0.00    +0.122 A 
BRANCH  25  26
ATOM     26  O   UNL     1      -5.531  -3.810   1.016  0.00  0.00    -0.506 OA
ATOM     27  H   UNL     1      -5.835  -3.526   1.888  0.00  0.00    +0.292 HD
ENDBRANCH  25  26
ENDBRANCH  10  20
TORSDOF 4
