REMARK  Name = ZINC06077550
REMARK  11 active torsions:
REMARK  status: ('A' for Active; 'I' for Inactive)
REMARK    1  A    between atoms: C_1  and  C_2
REMARK    2  A    between atoms: C_2  and  C_3
REMARK    3  A    between atoms: C_3  and  C_4
REMARK    4  A    between atoms: C_3  and  C_5
REMARK    5  A    between atoms: C_3  and  N_6
REMARK    6  A    between atoms: C_7  and  C_11
REMARK    7  A    between atoms: C_11  and  C_13
REMARK    8  A    between atoms: C_11  and  N_71
REMARK    9  A    between atoms: C_17  and  C_25
REMARK   10  A    between atoms: N_28  and  C_31
REMARK   11  A    between atoms: C_36  and  C_37
REMARK                            x       y       z     vdW  Elec       q    Type
REMARK                         _______ _______ _______ _____ _____    ______ ____
ROOT
ATOM      1  C   UNL     1       2.230   0.942   0.122  0.00  0.00    +0.039 C 
ENDROOT
BRANCH   1   2
ATOM      2  C   UNL     1       1.073   1.872   0.383  0.00  0.00    +0.011 A 
ATOM      3  C   UNL     1      -0.150   1.363   0.674  0.00  0.00    +0.017 A 
ATOM      4  C   UNL     1      -1.254   2.293   0.917  0.00  0.00    -0.001 A 
ATOM      5  C   UNL     1      -2.539   1.827   1.217  0.00  0.00    +0.013 A 
ATOM      6  C   UNL     1      -3.548   2.721   1.438  0.00  0.00    -0.050 A 
ATOM      7  C   UNL     1      -3.310   4.087   1.368  0.00  0.00    +0.005 A 
ATOM      8  C   UNL     1      -2.051   4.568   1.083  0.00  0.00    +0.026 A 
ATOM      9  C   UNL     1      -1.008   3.677   0.850  0.00  0.00    +0.049 A 
ATOM     10  N   UNL     1       0.258   4.130   0.549  0.00  0.00    -0.322 N 
ATOM     11  H   UNL     1       0.431   5.114   0.498  0.00  0.00    +0.169 HD
ATOM     12  C   UNL     1       1.266   3.269   0.323  0.00  0.00    +0.251 A 
ATOM     13  O   UNL     1       2.373   3.705   0.059  0.00  0.00    -0.268 OA
ATOM     14  C   UNL     1      -4.932   2.220   1.761  0.00  0.00    +0.044 C 
ENDBRANCH   1   2
BRANCH   1  20
ATOM     15  C   UNL     1       1.838   1.091  -2.263  0.00  0.00    -0.058 C 
ATOM     16  C   UNL     1       2.471   1.501  -3.595  0.00  0.00    +0.086 C 
ATOM     17  N   UNL     1       3.660   0.674  -3.844  0.00  0.00    -0.333 N 
ATOM     18  C   UNL     1       4.646   0.836  -2.766  0.00  0.00    +0.086 C 
ATOM     19  C   UNL     1       4.013   0.427  -1.434  0.00  0.00    -0.058 C 
ATOM     20  N   UNL     1       2.832   1.280  -1.185  0.00  0.00    +0.391 N 
ATOM     21  H   UNL     1       3.127   2.264  -1.173  0.00  0.00    -0.080 HD
BRANCH  17  22
ATOM     22  C   UNL     1       4.224   0.970  -5.087  0.00  0.00    +0.034 A 
ATOM     23  C   UNL     1       4.742   2.235  -5.332  0.00  0.00    +0.043 A 
ATOM     24  C   UNL     1       5.303   2.523  -6.562  0.00  0.00    +0.043 A 
ATOM     25  C   UNL     1       5.341   1.555  -7.551  0.00  0.00    +0.020 A 
ATOM     26  C   UNL     1       4.821   0.297  -7.310  0.00  0.00    +0.006 A 
ATOM     27  C   UNL     1       4.263   0.001  -6.082  0.00  0.00    -0.029 A 
ATOM     28  C   UNL     1       3.697  -1.371  -5.821  0.00  0.00    +0.045 C 
ATOM     29 CL   UNL     1       5.957   4.102  -6.869  0.00  0.00    -0.083 Cl
ENDBRANCH  17  22
ENDBRANCH   1  20
BRANCH   1  31
ATOM     30  N   UNL     1       3.589   0.231   2.160  0.00  0.00    -0.225 N 
ATOM     31  C   UNL     1       3.268   1.119   1.200  0.00  0.00    +0.143 A 
ATOM     32  N   UNL     1       4.038   2.164   1.381  0.00  0.00    -0.115 NA
ATOM     33  N   UNL     1       4.787   1.933   2.404  0.00  0.00    -0.023 NA
ATOM     34  N   UNL     1       4.521   0.765   2.875  0.00  0.00    -0.043 NA
BRANCH  30  35
ATOM     35  C   UNL     1       2.993  -1.093   2.355  0.00  0.00    +0.061 C 
ATOM     36  C   UNL     1       1.481  -0.949   2.537  0.00  0.00    +0.036 C 
ATOM     37  C   UNL     1       3.279  -1.966   1.132  0.00  0.00    +0.036 C 
BRANCH  35  39
ATOM     38  C   UNL     1       2.975  -3.128   3.804  0.00  0.00    +0.006 C 
ATOM     39  C   UNL     1       3.597  -1.746   3.600  0.00  0.00    +0.026 C 
ENDBRANCH  35  39
ENDBRANCH  30  35
ENDBRANCH   1  31
TORSDOF 6
