REMARK  Name = ZINC58897785
REMARK  7 active torsions:
REMARK  status: ('A' for Active; 'I' for Inactive)
REMARK    1  A    between atoms: C_1  and  C_2
REMARK    2  A    between atoms: C_2  and  C_3
REMARK    3  A    between atoms: C_2  and  N_17
REMARK    4  A    between atoms: N_5  and  C_6
REMARK    5  A    between atoms: C_10  and  N_12
REMARK    6  A    between atoms: C_18  and  C_20
REMARK    7  A    between atoms: C_24  and  N_26
REMARK                            x       y       z     vdW  Elec       q    Type
REMARK                         _______ _______ _______ _____ _____    ______ ____
ROOT
ATOM      1  C   UNL     1      -0.033   1.520   0.013  0.00  0.00    +0.038 C 
ATOM      2  C   UNL     1      -0.002  -0.009   0.002  0.00  0.00    +0.156 C 
ENDROOT
BRANCH   2   3
ATOM      3  C   UNL     1       0.708  -0.489  -1.238  0.00  0.00    +0.237 C 
ATOM      4  O   UNL     1       1.709  -1.167  -1.140  0.00  0.00    -0.273 OA
ATOM      5  N   UNL     1       0.231  -0.164  -2.456  0.00  0.00    -0.284 N 
ATOM      6  H   UNL     1      -0.606   0.320  -2.535  0.00  0.00    +0.155 HD
BRANCH   5   7
ATOM      7  C   UNL     1       0.942  -0.526  -3.605  0.00  0.00    +0.035 A 
ATOM      8  C   UNL     1       1.638  -1.728  -3.643  0.00  0.00    +0.023 A 
ATOM      9  C   UNL     1       2.340  -2.086  -4.777  0.00  0.00    +0.004 A 
ATOM     10  C   UNL     1       2.353  -1.250  -5.878  0.00  0.00    +0.026 A 
ATOM     11  C   UNL     1       1.659  -0.048  -5.846  0.00  0.00    +0.048 A 
ATOM     12  C   UNL     1       0.949   0.312  -4.710  0.00  0.00    +0.049 A 
BRANCH  11  13
ATOM     13  N   UNL     1       1.673   0.800  -6.963  0.00  0.00    -0.323 N 
ATOM     14  C   UNL     1       1.040   2.006  -7.055  0.00  0.00    +0.091 A 
ATOM     15  C   UNL     1       1.286   2.519  -8.278  0.00  0.00    +0.019 A 
ATOM     16  C   UNL     1       2.100   1.598  -8.967  0.00  0.00    +0.019 A 
ATOM     17  C   UNL     1       2.327   0.558  -8.138  0.00  0.00    +0.091 A 
ENDBRANCH  11  13
ENDBRANCH   5   7
ENDBRANCH   2   3
BRANCH   2  18
ATOM     18  N   UNL     1       0.709  -0.492   1.189  0.00  0.00    -0.300 N 
ATOM     19  C   UNL     1       0.049  -0.642   2.354  0.00  0.00    +0.245 C 
ATOM     20  O   UNL     1      -1.136  -0.378   2.421  0.00  0.00    -0.270 OA
ATOM     21  H   UNL     1       1.654  -0.703   1.136  0.00  0.00    +0.150 HD
BRANCH  19  22
ATOM     22  C   UNL     1       0.766  -1.129   3.552  0.00  0.00    +0.039 A 
ATOM     23  C   UNL     1       2.127  -1.429   3.481  0.00  0.00    +0.013 A 
ATOM     24  C   UNL     1       2.790  -1.882   4.602  0.00  0.00    +0.003 A 
ATOM     25  C   UNL     1       2.108  -2.041   5.796  0.00  0.00    +0.033 A 
ATOM     26  C   UNL     1       0.759  -1.746   5.873  0.00  0.00    +0.127 A 
ATOM     27  C   UNL     1       0.085  -1.286   4.761  0.00  0.00    +0.045 A 
BRANCH  26  28
ATOM     28  N   UNL     1       0.038  -1.919   7.154  0.00  0.00    +0.056 N 
ATOM     29  O   UNL     1       0.628  -2.318   8.131  0.00  0.00    -0.126 OA
ATOM     30  O   UNL     1      -1.142  -1.662   7.223  0.00  0.00    -0.126 OA
ENDBRANCH  26  28
ENDBRANCH  19  22
ENDBRANCH   2  18
TORSDOF 6
