REMARK  Name = ZINC64410699
REMARK  5 active torsions:
REMARK  status: ('A' for Active; 'I' for Inactive)
REMARK    1  A    between atoms: C_1  and  S_2
REMARK    2  A    between atoms: S_2  and  N_5
REMARK    3  A    between atoms: C_8  and  C_11
REMARK    4  A    between atoms: N_16  and  C_19
REMARK    5  A    between atoms: C_19  and  C_20
REMARK                            x       y       z     vdW  Elec       q    Type
REMARK                         _______ _______ _______ _____ _____    ______ ____
ROOT
ATOM      1  C   UNL     1       2.249  -3.593  -3.993  0.00  0.00    +0.219 C 
ATOM      2  O   UNL     1       1.421  -4.460  -4.177  0.00  0.00    -0.275 OA
ATOM      3  N   UNL     1       3.543  -3.822  -4.295  0.00  0.00    -0.299 N 
ATOM      4  C   UNL     1       4.579  -2.828  -3.976  0.00  0.00    +0.123 C 
ATOM      5  C   UNL     1       5.406  -2.565  -5.239  0.00  0.00    +0.103 C 
ATOM      6  N   UNL     1       5.909  -3.841  -5.766  0.00  0.00    -0.296 NA
ATOM      7  C   UNL     1       4.806  -4.721  -6.176  0.00  0.00    +0.103 C 
ATOM      8  C   UNL     1       3.956  -5.074  -4.945  0.00  0.00    +0.123 C 
ENDROOT
BRANCH   1  12
ATOM      9  N   UNL     1       0.050  -0.088  -3.100  0.00  0.00    -0.181 NA
ATOM     10  C   UNL     1       1.203   0.090  -3.993  0.00  0.00    +0.110 C 
ATOM     11  C   UNL     1       1.593  -1.273  -4.573  0.00  0.00    +0.030 C 
ATOM     12  C   UNL     1       1.832  -2.260  -3.428  0.00  0.00    +0.078 C 
ATOM     13  C   UNL     1       0.542  -2.430  -2.621  0.00  0.00    +0.030 C 
ATOM     14  C   UNL     1       0.142  -1.075  -2.016  0.00  0.00    +0.110 C 
BRANCH   9  16
ATOM     15  C   UNL     1      -1.067   2.297  -2.299  0.00  0.00    +0.215 C 
ATOM     16  S   UNL     1      -1.325   0.811  -3.308  0.00  0.00    +0.029 S 
ATOM     17  O   UNL     1      -2.365   0.018  -2.753  0.00  0.00    -0.158 OA
ATOM     18  O   UNL     1      -1.331   1.152  -4.687  0.00  0.00    -0.158 OA
ENDBRANCH   9  16
ENDBRANCH   1  12
BRANCH   6  19
ATOM     19  C   UNL     1       6.847  -3.620  -6.875  0.00  0.00    +0.131 C 
BRANCH  19  20
ATOM     20  C   UNL     1       8.212  -3.213  -6.316  0.00  0.00    +0.188 C 
ATOM     21  N   UNL     1       8.101  -1.941  -5.591  0.00  0.00    -0.362 N 
ATOM     22  C   UNL     1       8.450  -2.163  -4.357  0.00  0.00    +0.060 A 
ATOM     23  C   UNL     1       8.541  -1.296  -3.174  0.00  0.00    +0.027 A 
ATOM     24  C   UNL     1       8.944  -1.817  -1.998  0.00  0.00    +0.002 A 
ATOM     25  C   UNL     1       9.287  -3.173  -1.846  0.00  0.00    +0.002 A 
ATOM     26  C   UNL     1       9.237  -4.053  -2.866  0.00  0.00    +0.027 A 
ATOM     27  C   UNL     1       8.812  -3.597  -4.197  0.00  0.00    +0.060 A 
ATOM     28  N   UNL     1       8.672  -4.207  -5.338  0.00  0.00    -0.362 N 
ATOM     29  H   UNL     1       7.819  -1.091  -5.964  0.00  0.00    +0.162 HD
ATOM     30  H   UNL     1       8.842  -5.147  -5.511  0.00  0.00    +0.162 HD
ENDBRANCH  19  20
ENDBRANCH   6  19
TORSDOF 4
