REMARK  Name = ZINC40988436
REMARK  6 active torsions:
REMARK  status: ('A' for Active; 'I' for Inactive)
REMARK    1  A    between atoms: C_6  and  C_7
REMARK    2  A    between atoms: C_7  and  C_9
REMARK    3  A    between atoms: C_7  and  N_30
REMARK    4  A    between atoms: C_9  and  N_10
REMARK    5  A    between atoms: C_11  and  C_13
REMARK    6  A    between atoms: N_16  and  C_18
REMARK                            x       y       z     vdW  Elec       q    Type
REMARK                         _______ _______ _______ _____ _____    ______ ____
ROOT
ATOM      1  N   UNL     1      -2.867  -2.037  -1.357  0.00  0.00    -0.311 N 
ATOM      2  C   UNL     1      -3.370  -2.541  -2.502  0.00  0.00    +0.264 C 
ATOM      3  O   UNL     1      -2.893  -2.213  -3.571  0.00  0.00    -0.268 OA
ATOM      4  H   UNL     1      -3.248  -2.299  -0.504  0.00  0.00    +0.149 HD
ENDROOT
BRANCH   2   5
ATOM      5  C   UNL     1      -4.500  -3.490  -2.457  0.00  0.00    +0.150 A 
ATOM      6  C   UNL     1      -5.126  -4.102  -3.556  0.00  0.00    +0.006 A 
ATOM      7  C   UNL     1      -6.104  -4.886  -3.039  0.00  0.00    +0.044 A 
ATOM      8  N   UNL     1      -6.060  -4.748  -1.704  0.00  0.00    -0.263 N 
ATOM      9  N   UNL     1      -5.116  -3.935  -1.375  0.00  0.00    -0.166 NA
ATOM     10  C   UNL     1      -7.035  -5.727  -3.873  0.00  0.00    +0.055 C 
ATOM     11  C   UNL     1      -6.966  -5.231  -5.323  0.00  0.00    +0.006 C 
ATOM     12  C   UNL     1      -5.503  -5.128  -5.763  0.00  0.00    +0.005 C 
ATOM     13  C   UNL     1      -4.827  -3.966  -5.023  0.00  0.00    +0.039 C 
BRANCH   8  14
ATOM     14  C   UNL     1      -6.950  -5.428  -0.759  0.00  0.00    +0.130 C 
ATOM     15  C   UNL     1      -7.710  -4.387   0.080  0.00  0.00    +0.051 C 
ATOM     16  C   UNL     1      -8.399  -5.078   1.280  0.00  0.00    +0.168 C 
ATOM     17  S   UNL     1      -7.312  -6.529   1.590  0.00  0.00    -0.029 S 
ATOM     18  O   UNL     1      -6.634  -6.342   2.825  0.00  0.00    -0.174 OA
ATOM     19  O   UNL     1      -8.057  -7.719   1.374  0.00  0.00    -0.174 OA
ATOM     20  C   UNL     1      -6.112  -6.311   0.209  0.00  0.00    +0.192 C 
ENDBRANCH   8  14
ENDBRANCH   2   5
BRANCH   1  21
ATOM     21  C   UNL     1      -1.746  -1.095  -1.401  0.00  0.00    +0.094 C 
BRANCH  21  22
ATOM     22  C   UNL     1      -1.457  -0.580   0.011  0.00  0.00    -0.020 C 
BRANCH  22  28
ATOM     23  C   UNL     1      -3.552  -0.336   1.358  0.00  0.00    +0.003 A 
ATOM     24  C   UNL     1      -4.627   0.408   1.807  0.00  0.00    +0.020 A 
ATOM     25  C   UNL     1      -4.779   1.720   1.397  0.00  0.00    +0.041 A 
ATOM     26  C   UNL     1      -3.855   2.288   0.538  0.00  0.00    +0.020 A 
ATOM     27  C   UNL     1      -2.780   1.543   0.089  0.00  0.00    +0.003 A 
ATOM     28  C   UNL     1      -2.629   0.231   0.499  0.00  0.00    -0.059 A 
ATOM     29 CL   UNL     1      -6.129   2.655   1.960  0.00  0.00    -0.084 Cl
ENDBRANCH  22  28
BRANCH  22  30
ATOM     30  N   UNL     1      -0.254   0.263  -0.013  0.00  0.00    +0.385 N 
ATOM     31  C   UNL     1       0.050   0.760   1.353  0.00  0.00    -0.078 C 
ATOM     32  C   UNL     1       1.556   1.113   1.276  0.00  0.00    -0.020 C 
ATOM     33  C   UNL     1       2.128  -0.007   0.376  0.00  0.00    -0.020 C 
ATOM     34  C   UNL     1       0.921  -0.538  -0.421  0.00  0.00    -0.078 C 
ATOM     35  H   UNL     1      -0.384   1.038  -0.645  0.00  0.00    -0.081 HD
ENDBRANCH  22  30
ENDBRANCH  21  22
ENDBRANCH   1  21
TORSDOF 6
