REMARK  Name = ZINC06993184
REMARK  8 active torsions:
REMARK  status: ('A' for Active; 'I' for Inactive)
REMARK    1  A    between atoms: C_1  and  C_2
REMARK    2  A    between atoms: C_4  and  O_11
REMARK    3  A    between atoms: C_7  and  C_8
REMARK    4  A    between atoms: C_8  and  C_9
REMARK    5  A    between atoms: C_8  and  C_10
REMARK    6  A    between atoms: O_11  and  C_12
REMARK    7  A    between atoms: C_12  and  C_13
REMARK    8  A    between atoms: N_15  and  N_16
REMARK                            x       y       z     vdW  Elec       q    Type
REMARK                         _______ _______ _______ _____ _____    ______ ____
ROOT
ATOM      1  C   UNL     1      -1.256   1.768   0.652  0.00  0.00    +0.267 C 
ATOM      2  O   UNL     1      -1.331   2.962   0.854  0.00  0.00    -0.271 OA
ATOM      3  N   UNL     1      -0.054   1.158   0.651  0.00  0.00    -0.221 N 
ATOM      4  H   UNL     1       0.005   0.204   0.490  0.00  0.00    +0.174 HD
ENDROOT
BRANCH   3   5
ATOM      5  N   UNL     1       1.110   1.904   0.879  0.00  0.00    -0.137 N 
ATOM      6  C   UNL     1       1.810   1.884   2.031  0.00  0.00    +0.263 C 
ATOM      7  O   UNL     1       1.563   1.241   3.029  0.00  0.00    -0.271 OA
ATOM      8  C   UNL     1       2.969   2.830   1.816  0.00  0.00    +0.114 C 
ATOM      9  C   UNL     1       4.293   2.084   1.936  0.00  0.00    +0.035 C 
ATOM     10  C   UNL     1       5.452   3.053   1.687  0.00  0.00    +0.003 C 
ATOM     11  C   UNL     1       5.394   4.189   2.710  0.00  0.00    +0.000 C 
ATOM     12  C   UNL     1       4.071   4.943   2.561  0.00  0.00    +0.003 C 
ATOM     13  C   UNL     1       2.906   3.982   2.813  0.00  0.00    +0.035 C 
ATOM     14  N   UNL     1       2.777   3.323   0.447  0.00  0.00    -0.284 N 
ATOM     15  C   UNL     1       1.668   2.721  -0.023  0.00  0.00    +0.326 C 
ATOM     16  O   UNL     1       1.221   2.902  -1.139  0.00  0.00    -0.251 OA
ATOM     17  H   UNL     1       3.341   3.954  -0.028  0.00  0.00    +0.151 HD
ENDBRANCH   3   5
BRANCH   1  18
ATOM     18  C   UNL     1      -2.508   0.967   0.401  0.00  0.00    +0.326 C 
BRANCH  18  19
ATOM     19  O   UNL     1      -3.645   1.831   0.452  0.00  0.00    -0.483 OA
BRANCH  19  23
ATOM     20  C   UNL     1      -8.490   2.309   0.108  0.00  0.00    +0.044 C 
ATOM     21  C   UNL     1      -7.244   1.462   0.070  0.00  0.00    -0.044 A 
ATOM     22  C   UNL     1      -6.008   2.043   0.281  0.00  0.00    +0.049 A 
ATOM     23  C   UNL     1      -4.862   1.263   0.245  0.00  0.00    +0.121 A 
ATOM     24  C   UNL     1      -4.959  -0.098  -0.007  0.00  0.00    +0.046 A 
ATOM     25  C   UNL     1      -6.197  -0.675  -0.211  0.00  0.00    +0.008 A 
ATOM     26  C   UNL     1      -7.339   0.105  -0.176  0.00  0.00    -0.042 A 
BRANCH  26  27
ATOM     27  C   UNL     1      -8.688  -0.525  -0.405  0.00  0.00    +0.013 C 
ATOM     28  C   UNL     1      -8.675  -1.290  -1.730  0.00  0.00    +0.012 C 
ATOM     29  C   UNL     1      -9.000  -1.492   0.739  0.00  0.00    +0.012 C 
ENDBRANCH  26  27
ENDBRANCH  19  23
ENDBRANCH  18  19
ENDBRANCH   1  18
TORSDOF 5
