REMARK  Name = ZINC63198980
REMARK  8 active torsions:
REMARK  status: ('A' for Active; 'I' for Inactive)
REMARK    1  A    between atoms: C_1  and  C_2
REMARK    2  A    between atoms: C_3  and  C_8
REMARK    3  A    between atoms: C_4  and  C_7
REMARK    4  A    between atoms: C_8  and  N_9
REMARK    5  A    between atoms: N_9  and  S_10
REMARK    6  A    between atoms: S_10  and  C_13
REMARK    7  A    between atoms: C_14  and  C_20
REMARK    8  A    between atoms: N_16  and  C_19
REMARK                            x       y       z     vdW  Elec       q    Type
REMARK                         _______ _______ _______ _____ _____    ______ ____
ROOT
ATOM      1  S   UNL     1       1.681  -0.023  -4.660  0.00  0.00    +0.063 S 
ATOM      2  O   UNL     1       3.084   0.155  -4.791  0.00  0.00    -0.153 OA
ATOM      3  O   UNL     1       0.983  -1.078  -5.308  0.00  0.00    -0.153 OA
ENDROOT
BRANCH   1   4
ATOM      4  C   UNL     1       0.930   1.479  -5.195  0.00  0.00    +0.164 A 
ATOM      5  C   UNL     1      -0.376   1.622  -5.675  0.00  0.00    +0.088 A 
ATOM      6  N   UNL     1      -0.567   2.882  -5.971  0.00  0.00    -0.173 NA
ATOM      7  N   UNL     1       0.613   3.583  -5.690  0.00  0.00    -0.254 N 
ATOM      8  C   UNL     1       1.515   2.701  -5.210  0.00  0.00    +0.153 A 
ATOM      9 CL   UNL     1       3.135   3.067  -4.705  0.00  0.00    -0.060 Cl
ATOM     10  C   UNL     1       0.827   5.019  -5.879  0.00  0.00    +0.174 C 
ATOM     11  C   UNL     1      -1.388   0.515  -5.824  0.00  0.00    +0.069 C 
ENDBRANCH   1   4
BRANCH   1  12
ATOM     12  N   UNL     1       1.371  -0.174  -3.041  0.00  0.00    -0.185 NA
ATOM     13  H   UNL     1       2.102  -0.149  -2.403  0.00  0.00    +0.148 HD
BRANCH  12  14
ATOM     14  C   UNL     1      -0.005  -0.348  -2.571  0.00  0.00    +0.146 C 
BRANCH  14  17
ATOM     15  C   UNL     1      -0.018   1.503   0.010  0.00  0.00    +0.069 C 
ATOM     16  C   UNL     1       0.002  -0.004   0.002  0.00  0.00    +0.085 A 
ATOM     17  C   UNL     1       0.008  -0.824  -1.141  0.00  0.00    +0.032 A 
ATOM     18  C   UNL     1       0.027  -2.108  -0.735  0.00  0.00    +0.139 A 
ATOM     19  O   UNL     1       0.034  -2.119   0.606  0.00  0.00    -0.359 OA
ATOM     20  N   UNL     1       0.023  -0.775   1.052  0.00  0.00    -0.083 NA
ATOM     21  C   UNL     1       0.039  -3.320  -1.631  0.00  0.00    +0.089 C 
ENDBRANCH  14  17
ENDBRANCH  12  14
ENDBRANCH   1  12
TORSDOF 4
