REMARK  Name = ZINC63032167
REMARK  11 active torsions:
REMARK  status: ('A' for Active; 'I' for Inactive)
REMARK    1  A    between atoms: C_1  and  C_2
REMARK    2  A    between atoms: C_2  and  C_4
REMARK    3  A    between atoms: C_2  and  C_19
REMARK    4  A    between atoms: C_7  and  S_13
REMARK    5  A    between atoms: C_9  and  N_10
REMARK    6  A    between atoms: S_13  and  N_16
REMARK    7  A    between atoms: N_16  and  C_17
REMARK    8  A    between atoms: N_16  and  C_18
REMARK    9  A    between atoms: C_19  and  C_21
REMARK   10  A    between atoms: C_19  and  N_22
REMARK   11  A    between atoms: N_22  and  C_23
REMARK                            x       y       z     vdW  Elec       q    Type
REMARK                         _______ _______ _______ _____ _____    ______ ____
ROOT
ATOM      1  C   UNL     1      -1.785  -0.051  -0.364  0.00  0.00    -0.016 A 
ATOM      2  C   UNL     1      -2.602   0.181   0.727  0.00  0.00    +0.008 A 
ATOM      3  C   UNL     1      -3.526  -0.772   1.113  0.00  0.00    +0.029 A 
ATOM      4  C   UNL     1      -3.633  -1.957   0.409  0.00  0.00    +0.108 A 
ATOM      5  C   UNL     1      -2.816  -2.188  -0.682  0.00  0.00    +0.061 A 
ATOM      6  C   UNL     1      -1.895  -1.234  -1.071  0.00  0.00    +0.131 A 
ENDROOT
BRANCH   6   7
ATOM      7  N   UNL     1      -1.025  -1.480  -2.243  0.00  0.00    +0.057 N 
ATOM      8  O   UNL     1      -1.474  -2.019  -3.227  0.00  0.00    -0.126 OA
ATOM      9  O   UNL     1       0.136  -1.141  -2.215  0.00  0.00    -0.126 OA
ENDBRANCH   6   7
BRANCH   4  10
ATOM     10  S   UNL     1      -4.809  -3.172   0.902  0.00  0.00    +0.060 S 
ATOM     11  O   UNL     1      -4.336  -4.419   0.412  0.00  0.00    -0.153 OA
ATOM     12  O   UNL     1      -5.073  -2.946   2.280  0.00  0.00    -0.153 OA
BRANCH  10  13
ATOM     13  N   UNL     1      -6.217  -2.848   0.092  0.00  0.00    -0.183 NA
ATOM     14  C   UNL     1      -6.463  -3.456  -1.219  0.00  0.00    +0.131 C 
ATOM     15  C   UNL     1      -7.215  -1.955   0.685  0.00  0.00    +0.131 C 
ENDBRANCH  10  13
ENDBRANCH   4  10
BRANCH   1  17
ATOM     16  C   UNL     1      -1.491   2.318  -1.032  0.00  0.00    +0.011 C 
ATOM     17  C   UNL     1      -0.777   0.987  -0.785  0.00  0.00    +0.004 C 
BRANCH  17  18
ATOM     18  C   UNL     1       0.265   1.165   0.320  0.00  0.00    -0.068 C 
ATOM     19  C   UNL     1       0.978  -0.166   0.567  0.00  0.00    -0.013 C 
BRANCH  18  20
ATOM     20  N   UNL     1       1.247   2.177  -0.091  0.00  0.00    +0.379 N 
ATOM     21  C   UNL     1       2.178   2.435   1.016  0.00  0.00    -0.100 C 
ATOM     22  H   UNL     1       1.761   1.842  -0.891  0.00  0.00    -0.086 HD
ATOM     23  H   UNL     1       0.768   3.032  -0.333  0.00  0.00    -0.086 HD
ENDBRANCH  18  20
ENDBRANCH  17  18
ENDBRANCH   1  17
TORSDOF 6
