REMARK  Name = ZINC19945772
REMARK  9 active torsions:
REMARK  status: ('A' for Active; 'I' for Inactive)
REMARK    1  A    between atoms: C_1  and  C_2
REMARK    2  A    between atoms: C_3  and  C_20
REMARK    3  A    between atoms: N_6  and  C_16
REMARK    4  A    between atoms: N_11  and  C_12
REMARK    5  A    between atoms: C_12  and  C_13
REMARK    6  A    between atoms: C_13  and  O_14
REMARK    7  A    between atoms: C_16  and  C_17
REMARK    8  A    between atoms: C_17  and  C_18
REMARK    9  A    between atoms: C_17  and  C_19
REMARK                            x       y       z     vdW  Elec       q    Type
REMARK                         _______ _______ _______ _____ _____    ______ ____
ROOT
ATOM      1  C   UNL     1      -6.077  -0.347   1.360  0.00  0.00    +0.046 C 
ATOM      2  C   UNL     1      -4.650   0.132   1.432  0.00  0.00    -0.014 A 
ATOM      3  C   UNL     1      -4.321   1.428   1.054  0.00  0.00    +0.120 A 
ATOM      4  C   UNL     1      -2.924   1.857   1.146  0.00  0.00    +0.271 A 
ATOM      5  O   UNL     1      -2.613   2.991   0.825  0.00  0.00    -0.266 OA
ATOM      6  N   UNL     1      -1.982   0.999   1.579  0.00  0.00    -0.292 N 
ATOM      7  C   UNL     1      -2.308  -0.278   1.950  0.00  0.00    +0.144 A 
ATOM      8  C   UNL     1      -3.633  -0.724   1.883  0.00  0.00    +0.063 A 
ATOM      9  C   UNL     1      -3.626  -2.115   2.346  0.00  0.00    +0.148 A 
ATOM     10  N   UNL     1      -2.388  -2.413   2.646  0.00  0.00    -0.154 NA
ATOM     11  N   UNL     1      -1.567  -1.307   2.412  0.00  0.00    -0.244 N 
ATOM     12  N   UNL     1      -4.730  -2.961   2.448  0.00  0.00    -0.341 N 
ATOM     13  H   UNL     1      -4.602  -3.991   2.811  0.00  0.00    +0.144 HD
ATOM     14  H   UNL     1      -5.729  -2.598   2.165  0.00  0.00    +0.144 HD
ENDROOT
BRANCH   3  15
ATOM     15  C   UNL     1      -5.331   2.330   0.589  0.00  0.00    +0.105 C 
ATOM     16  N   UNL     1      -6.133   3.046   0.221  0.00  0.00    -0.191 NA
ENDBRANCH   3  15
BRANCH  11  17
ATOM     17  C   UNL     1      -0.119  -1.269   2.635  0.00  0.00    +0.173 C 
BRANCH  17  18
ATOM     18  C   UNL     1       0.165  -0.791   4.061  0.00  0.00    +0.179 C 
BRANCH  18  19
ATOM     19  O   UNL     1       1.576  -0.754   4.279  0.00  0.00    -0.393 OA
ATOM     20  H   UNL     1       1.974  -0.433   5.252  0.00  0.00    +0.209 HD
ENDBRANCH  18  19
ENDBRANCH  17  18
ENDBRANCH  11  17
BRANCH   6  21
ATOM     21  C   UNL     1      -0.587   1.439   1.659  0.00  0.00    +0.130 C 
BRANCH  21  22
ATOM     22  C   UNL     1       0.148   1.043   0.377  0.00  0.00    +0.003 C 
ATOM     23  C   UNL     1       1.605   1.503   0.461  0.00  0.00    +0.009 C 
ATOM     24  C   UNL     1      -0.528   1.707  -0.824  0.00  0.00    +0.009 C 
ENDBRANCH  21  22
ENDBRANCH   6  21
TORSDOF 6
