REMARK  Name = ZINC20114657
REMARK  13 active torsions:
REMARK  status: ('A' for Active; 'I' for Inactive)
REMARK    1  A    between atoms: C_1  and  C_2
REMARK    2  A    between atoms: C_2  and  S_3
REMARK    3  A    between atoms: S_3  and  C_4
REMARK    4  A    between atoms: C_12  and  C_13
REMARK    5  A    between atoms: C_16  and  O_21
REMARK    6  A    between atoms: C_17  and  O_19
REMARK    7  A    between atoms: O_19  and  C_20
REMARK    8  A    between atoms: O_21  and  C_22
REMARK    9  A    between atoms: C_22  and  C_23
REMARK   10  A    between atoms: C_23  and  O_24
REMARK   11  A    between atoms: O_24  and  C_25
REMARK   12  A    between atoms: C_30  and  O_31
REMARK   13  A    between atoms: O_31  and  C_32
REMARK                            x       y       z     vdW  Elec       q    Type
REMARK                         _______ _______ _______ _____ _____    ______ ____
ROOT
ATOM      1  C   UNL     1       2.406  -4.447   6.840  0.00  0.00    -0.021 A 
ATOM      2  C   UNL     1       2.492  -5.807   6.509  0.00  0.00    +0.012 A 
ATOM      3  C   UNL     1       2.633  -6.749   7.502  0.00  0.00    +0.050 A 
ATOM      4  C   UNL     1       2.690  -6.357   8.834  0.00  0.00    +0.162 A 
ATOM      5  C   UNL     1       2.605  -5.006   9.173  0.00  0.00    +0.162 A 
ATOM      6  C   UNL     1       2.470  -4.053   8.184  0.00  0.00    +0.057 A 
ENDROOT
BRANCH   1  15
ATOM      7  C   UNL     1       1.573   1.285   5.159  0.00  0.00    +0.175 C 
ATOM      8  N   UNL     1       1.236   2.342   5.846  0.00  0.00    -0.185 NA
ATOM      9  S   UNL     1       0.492   1.724   7.215  0.00  0.00    +0.048 S 
ATOM     10  C   UNL     1       0.667   0.095   6.911  0.00  0.00    +0.183 C 
ATOM     11  N   UNL     1       0.332  -0.944   7.643  0.00  0.00    -0.152 NA
ATOM     12  C   UNL     1       0.635  -2.183   7.215  0.00  0.00    +0.273 C 
ATOM     13  O   UNL     1       0.222  -3.168   7.805  0.00  0.00    -0.268 OA
ATOM     14  C   UNL     1       1.485  -2.323   6.006  0.00  0.00    +0.079 C 
ATOM     15  C   UNL     1       2.256  -3.442   5.785  0.00  0.00    +0.024 C 
ATOM     16  C   UNL     1       1.457  -1.184   5.043  0.00  0.00    +0.137 C 
ATOM     17  N   UNL     1       1.595  -1.330   3.753  0.00  0.00    -0.284 NA
ATOM     18  N   UNL     1       1.259   0.065   5.663  0.00  0.00    -0.211 N 
ATOM     19  H   UNL     1       1.725  -2.215   3.377  0.00  0.00    +0.188 HD
BRANCH   7  20
ATOM     20  S   UNL     1       2.408   1.438   3.615  0.00  0.00    -0.089 S 
BRANCH  20  22
ATOM     21  C   UNL     1       3.312   3.507   2.069  0.00  0.00    +0.016 C 
ATOM     22  C   UNL     1       2.592   3.229   3.391  0.00  0.00    +0.074 C 
ENDBRANCH  20  22
ENDBRANCH   7  20
ENDBRANCH   1  15
BRANCH   5  23
ATOM     23  O   UNL     1       2.661  -4.628  10.478  0.00  0.00    -0.491 OA
ATOM     24  C   UNL     1       2.568  -3.229  10.753  0.00  0.00    +0.277 C 
ENDBRANCH   5  23
BRANCH   4  25
ATOM     25  O   UNL     1       2.828  -7.292   9.809  0.00  0.00    -0.485 OA
BRANCH  25  26
ATOM     26  C   UNL     1       2.908  -8.657   9.393  0.00  0.00    +0.270 C 
BRANCH  26  27
ATOM     27  C   UNL     1       3.060  -9.556  10.621  0.00  0.00    +0.270 C 
BRANCH  27  28
ATOM     28  O   UNL     1       1.879  -9.474  11.421  0.00  0.00    -0.485 OA
BRANCH  28  29
ATOM     29  C   UNL     1       1.850 -10.219  12.558  0.00  0.00    +0.162 A 
ATOM     30  C   UNL     1       2.937 -11.007  12.900  0.00  0.00    +0.049 A 
ATOM     31  C   UNL     1       2.907 -11.763  14.056  0.00  0.00    +0.004 A 
ATOM     32  C   UNL     1       1.793 -11.736  14.875  0.00  0.00    +0.004 A 
ATOM     33  C   UNL     1       0.705 -10.952  14.540  0.00  0.00    +0.049 A 
ATOM     34  C   UNL     1       0.731 -10.186  13.385  0.00  0.00    +0.161 A 
BRANCH  34  35
ATOM     35  O   UNL     1      -0.336  -9.410  13.057  0.00  0.00    -0.491 OA
ATOM     36  C   UNL     1      -1.450  -9.427  13.953  0.00  0.00    +0.277 C 
ENDBRANCH  34  35
ENDBRANCH  28  29
ENDBRANCH  27  28
ENDBRANCH  26  27
ENDBRANCH  25  26
ENDBRANCH   4  25
TORSDOF 10
