REMARK  Name = ZINC67021858
REMARK  8 active torsions:
REMARK  status: ('A' for Active; 'I' for Inactive)
REMARK    1  A    between atoms: C_1  and  C_2
REMARK    2  A    between atoms: C_5  and  N_25
REMARK    3  A    between atoms: C_6  and  N_8
REMARK    4  A    between atoms: C_9  and  C_11
REMARK    5  A    between atoms: C_11  and  C_12
REMARK    6  A    between atoms: C_13  and  C_24
REMARK    7  A    between atoms: C_22  and  C_23
REMARK    8  A    between atoms: C_26  and  C_28
REMARK                            x       y       z     vdW  Elec       q    Type
REMARK                         _______ _______ _______ _____ _____    ______ ____
ROOT
ATOM      1  N   UNL     1       0.071  -3.168   2.437  0.00  0.00    -0.284 N 
ATOM      2  C   UNL     1       0.023  -2.726   3.710  0.00  0.00    +0.222 C 
ATOM      3  O   UNL     1      -0.179  -1.552   3.937  0.00  0.00    -0.275 OA
ATOM      4  H   UNL     1       0.176  -4.115   2.256  0.00  0.00    +0.155 HD
ENDROOT
BRANCH   1  10
ATOM      5  C   UNL     1      -1.507   1.154   0.704  0.00  0.00    +0.044 C 
ATOM      6  C   UNL     1      -0.790  -0.157   0.507  0.00  0.00    -0.049 A 
ATOM      7  C   UNL     1      -0.234  -0.462  -0.723  0.00  0.00    +0.005 A 
ATOM      8  C   UNL     1       0.424  -1.662  -0.910  0.00  0.00    +0.025 A 
ATOM      9  C   UNL     1       0.529  -2.566   0.137  0.00  0.00    +0.055 A 
ATOM     10  C   UNL     1      -0.031  -2.259   1.376  0.00  0.00    +0.055 A 
ATOM     11  C   UNL     1      -0.686  -1.050   1.557  0.00  0.00    +0.028 A 
BRANCH   9  12
ATOM     12  N   UNL     1       1.195  -3.784  -0.051  0.00  0.00    -0.284 N 
ATOM     13  C   UNL     1       1.133  -4.409  -1.243  0.00  0.00    +0.214 C 
ATOM     14  O   UNL     1       0.420  -3.971  -2.122  0.00  0.00    -0.276 OA
ATOM     15  C   UNL     1       1.948  -5.653  -1.485  0.00  0.00    +0.109 C 
ATOM     16  H   UNL     1       1.702  -4.177   0.677  0.00  0.00    +0.155 HD
ENDBRANCH   9  12
ENDBRANCH   1  10
BRANCH   2  17
ATOM     17  C   UNL     1       0.220  -3.691   4.850  0.00  0.00    +0.134 C 
BRANCH  17  18
ATOM     18  C   UNL     1       0.120  -2.950   6.159  0.00  0.00    +0.003 A 
ATOM     19  C   UNL     1       1.240  -2.299   6.688  0.00  0.00    +0.046 A 
ATOM     20  N   UNL     1       1.150  -1.653   7.831  0.00  0.00    -0.233 NA
ATOM     21  C   UNL     1      -0.005  -1.605   8.504  0.00  0.00    +0.158 A 
ATOM     22  C   UNL     1      -0.360  -1.002   9.709  0.00  0.00    +0.119 A 
ATOM     23  C   UNL     1      -1.708  -1.274   9.939  0.00  0.00    +0.267 A 
ATOM     24  O   UNL     1      -2.357  -0.901  10.903  0.00  0.00    -0.266 OA
ATOM     25  N   UNL     1      -2.171  -2.017   8.916  0.00  0.00    -0.258 N 
ATOM     26  H   UNL     1      -3.079  -2.347   8.820  0.00  0.00    +0.191 HD
ATOM     27  N   UNL     1      -1.123  -2.232   8.013  0.00  0.00    -0.238 N 
ATOM     28  C   UNL     1      -1.060  -2.903   6.832  0.00  0.00    +0.045 A 
ATOM     29  C   UNL     1      -2.281  -3.590   6.279  0.00  0.00    +0.066 C 
ATOM     30  C   UNL     1       2.552  -2.338   5.948  0.00  0.00    +0.066 C 
ENDBRANCH  17  18
ENDBRANCH   2  17
TORSDOF 4
