REMARK  Name = ZINC22017502
REMARK  6 active torsions:
REMARK  status: ('A' for Active; 'I' for Inactive)
REMARK    1  A    between atoms: C_1  and  C_2
REMARK    2  A    between atoms: N_7  and  C_10
REMARK    3  A    between atoms: C_10  and  C_11
REMARK    4  A    between atoms: N_13  and  C_14
REMARK    5  A    between atoms: N_13  and  C_22
REMARK    6  A    between atoms: C_29  and  C_30
REMARK                            x       y       z     vdW  Elec       q    Type
REMARK                         _______ _______ _______ _____ _____    ______ ____
ROOT
ATOM      1  C   UNL     1       0.289  -4.735  -2.063  0.00  0.00    +0.046 C 
ATOM      2  C   UNL     1       0.020  -3.569  -1.147  0.00  0.00    -0.021 A 
ATOM      3  C   UNL     1      -0.528  -2.383  -1.661  0.00  0.00    +0.076 A 
ATOM      4  C   UNL     1      -0.742  -1.352  -0.723  0.00  0.00    +0.116 A 
ATOM      5  N   UNL     1      -1.254  -0.177  -1.072  0.00  0.00    -0.230 NA
ATOM      6  C   UNL     1      -1.584   0.072  -2.312  0.00  0.00    +0.203 A 
ATOM      7  N   UNL     1      -1.415  -0.860  -3.284  0.00  0.00    -0.290 N 
ATOM      8  C   UNL     1      -0.902  -2.073  -3.011  0.00  0.00    +0.263 A 
ATOM      9  O   UNL     1      -0.757  -2.897  -3.898  0.00  0.00    -0.267 OA
ATOM     10  S   UNL     1      -0.181  -2.065   0.802  0.00  0.00    -0.068 S 
ATOM     11  C   UNL     1       0.302  -3.665   0.177  0.00  0.00    +0.025 A 
ENDROOT
BRANCH  11  12
ATOM     12  C   UNL     1       0.871  -4.811   0.918  0.00  0.00    -0.011 A 
ATOM     13  C   UNL     1       1.945  -4.619   1.789  0.00  0.00    +0.009 A 
ATOM     14  C   UNL     1       2.471  -5.693   2.477  0.00  0.00    +0.001 A 
ATOM     15  C   UNL     1       1.937  -6.958   2.305  0.00  0.00    +0.000 A 
ATOM     16  C   UNL     1       0.873  -7.155   1.443  0.00  0.00    +0.001 A 
ATOM     17  C   UNL     1       0.334  -6.089   0.753  0.00  0.00    +0.009 A 
ENDBRANCH  11  12
BRANCH   7  18
ATOM     18  C   UNL     1      -1.800  -0.537  -4.661  0.00  0.00    +0.222 C 
BRANCH  18  19
ATOM     19  C   UNL     1      -0.624   0.071  -5.381  0.00  0.00    +0.236 C 
ATOM     20  O   UNL     1       0.488  -0.008  -4.902  0.00  0.00    -0.274 OA
ATOM     21  N   UNL     1      -0.807   0.702  -6.558  0.00  0.00    -0.292 N 
BRANCH  21  22
ATOM     22  C   UNL     1       0.349   1.163  -7.330  0.00  0.00    +0.099 C 
ATOM     23  C   UNL     1       1.304  -0.015  -7.588  0.00  0.00    +0.046 C 
ATOM     24  C   UNL     1       2.662   0.512  -8.113  0.00  0.00    +0.168 C 
ATOM     25  S   UNL     1       2.759   2.191  -7.368  0.00  0.00    -0.029 S 
ATOM     26  O   UNL     1       2.774   3.158  -8.409  0.00  0.00    -0.174 OA
ATOM     27  O   UNL     1       3.787   2.203  -6.388  0.00  0.00    -0.174 OA
ATOM     28  C   UNL     1       1.122   2.245  -6.523  0.00  0.00    +0.188 C 
ENDBRANCH  21  22
BRANCH  21  29
ATOM     29  C   UNL     1      -2.163   0.927  -7.065  0.00  0.00    +0.076 C 
ATOM     30  C   UNL     1      -2.894   1.910  -6.148  0.00  0.00    +0.022 C 
ATOM     31  C   UNL     1      -4.310   2.145  -6.678  0.00  0.00    +0.002 C 
ATOM     32  C   UNL     1      -5.069   0.817  -6.710  0.00  0.00    +0.000 C 
ATOM     33  C   UNL     1      -4.338  -0.167  -7.626  0.00  0.00    +0.002 C 
ATOM     34  C   UNL     1      -2.922  -0.401  -7.097  0.00  0.00    +0.022 C 
ENDBRANCH  21  29
ENDBRANCH  18  19
ENDBRANCH   7  18
TORSDOF 5
