REMARK  Name = ZINC05330272
REMARK  7 active torsions:
REMARK  status: ('A' for Active; 'I' for Inactive)
REMARK    1  A    between atoms: C_1  and  O_2
REMARK    2  A    between atoms: O_2  and  C_3
REMARK    3  A    between atoms: C_8  and  C_9
REMARK    4  A    between atoms: N_10  and  N_11
REMARK    5  A    between atoms: C_12  and  C_14
REMARK    6  A    between atoms: C_16  and  N_23
REMARK    7  A    between atoms: C_18  and  N_20
REMARK                            x       y       z     vdW  Elec       q    Type
REMARK                         _______ _______ _______ _____ _____    ______ ____
ROOT
ATOM      1  N   UNL     1       3.600   5.951  -0.000  0.00  0.00    -0.203 N 
ATOM      2  C   UNL     1       3.579   7.298   0.007  0.00  0.00    +0.263 C 
ATOM      3  O   UNL     1       2.516   7.889   0.019  0.00  0.00    -0.268 OA
ATOM      4  H   UNL     1       4.448   5.480  -0.010  0.00  0.00    +0.178 HD
ENDROOT
BRANCH   2   5
ATOM      5  C   UNL     1       4.846   8.058  -0.001  0.00  0.00    +0.042 A 
ATOM      6  C   UNL     1       4.826   9.453   0.006  0.00  0.00    +0.036 A 
ATOM      7  C   UNL     1       6.020  10.159  -0.001  0.00  0.00    +0.027 A 
ATOM      8  C   UNL     1       7.231   9.476  -0.015  0.00  0.00    +0.055 A 
ATOM      9  C   UNL     1       7.250   8.094  -0.023  0.00  0.00    +0.129 A 
ATOM     10  C   UNL     1       6.068   7.382  -0.009  0.00  0.00    +0.046 A 
BRANCH   9  11
ATOM     11  N   UNL     1       8.544   7.375  -0.039  0.00  0.00    +0.057 N 
ATOM     12  O   UNL     1       9.589   8.001  -0.046  0.00  0.00    -0.126 OA
ATOM     13  O   UNL     1       8.564   6.157  -0.046  0.00  0.00    -0.126 OA
ENDBRANCH   9  11
BRANCH   7  14
ATOM     14  N   UNL     1       6.005  11.556   0.007  0.00  0.00    -0.358 N 
ATOM     15  H   UNL     1       5.160  12.032   0.017  0.00  0.00    +0.142 HD
ATOM     16  H   UNL     1       6.840  12.050   0.002  0.00  0.00    +0.142 HD
ENDBRANCH   7  14
ENDBRANCH   2   5
BRANCH   1  18
ATOM     17  C   UNL     1       2.420   3.933   0.000  0.00  0.00    +0.142 C 
ATOM     18  N   UNL     1       2.399   5.231   0.007  0.00  0.00    -0.187 NA
BRANCH  17  24
ATOM     19  C   UNL     1      -0.071   3.852   0.022  0.00  0.00    +0.129 A 
ATOM     20  C   UNL     1      -1.254   3.130   0.030  0.00  0.00    +0.046 A 
ATOM     21  C   UNL     1      -1.222   1.749   0.017  0.00  0.00    +0.004 A 
ATOM     22  C   UNL     1      -0.013   1.076   0.008  0.00  0.00    +0.001 A 
ATOM     23  C   UNL     1       1.174   1.779   0.000  0.00  0.00    +0.013 A 
ATOM     24  C   UNL     1       1.156   3.175   0.008  0.00  0.00    +0.036 A 
BRANCH  19  26
ATOM     25  C   UNL     1      -1.388   5.830   0.045  0.00  0.00    +0.277 C 
ATOM     26  O   UNL     1      -0.101   5.210   0.030  0.00  0.00    -0.494 OA
ENDBRANCH  19  26
ENDBRANCH  17  24
ENDBRANCH   1  18
TORSDOF 6
