REMARK  Name = ZINC27807757
REMARK  3 active torsions:
REMARK  status: ('A' for Active; 'I' for Inactive)
REMARK    1  A    between atoms: C_1  and  C_2
REMARK    2  A    between atoms: C_4  and  C_14
REMARK    3  A    between atoms: N_16  and  C_17
REMARK                            x       y       z     vdW  Elec       q    Type
REMARK                         _______ _______ _______ _____ _____    ______ ____
ROOT
ATOM      1  C   UNL     1       4.783   3.988  -0.222  0.00  0.00    +0.262 C 
ATOM      2  O   UNL     1       4.734   5.130   0.184  0.00  0.00    -0.271 OA
ATOM      3  N   UNL     1       5.975   3.376  -0.370  0.00  0.00    -0.282 N 
ATOM      4  H   UNL     1       6.025   2.367  -0.805  0.00  0.00    +0.155 HD
ENDROOT
BRANCH   3   5
ATOM      5  C   UNL     1       7.150   4.025   0.031  0.00  0.00    +0.036 A 
ATOM      6  C   UNL     1       8.334   3.808  -0.664  0.00  0.00    +0.025 A 
ATOM      7  C   UNL     1       9.494   4.447  -0.277  0.00  0.00    +0.029 A 
ATOM      8  C   UNL     1       9.482   5.301   0.816  0.00  0.00    +0.067 A 
ATOM      9  C   UNL     1       8.296   5.517   1.520  0.00  0.00    +0.069 A 
ATOM     10  C   UNL     1       7.131   4.877   1.125  0.00  0.00    +0.051 A 
ATOM     11  N   UNL     1       8.594   6.409   2.548  0.00  0.00    -0.306 N 
ATOM     12  H   UNL     1       7.804   6.730   3.243  0.00  0.00    +0.170 HD
ATOM     13  C   UNL     1       9.901   6.721   2.474  0.00  0.00    +0.325 A 
ATOM     14  O   UNL     1      10.484   7.478   3.227  0.00  0.00    -0.247 OA
ATOM     15  N   UNL     1      10.465   6.069   1.439  0.00  0.00    -0.306 N 
ATOM     16  H   UNL     1      11.496   6.060   1.056  0.00  0.00    +0.170 HD
ENDBRANCH   3   5
BRANCH   1  19
ATOM     17  C   UNL     1       4.425   1.145   0.438  0.00  0.00    +0.056 C 
ATOM     18  C   UNL     1       3.265   2.143   0.468  0.00  0.00    +0.220 C 
ATOM     19  C   UNL     1       3.512   3.254  -0.561  0.00  0.00    +0.299 C 
ATOM     20  O   UNL     1       2.404   4.160  -0.517  0.00  0.00    -0.472 OA
ATOM     21  C   UNL     1       1.161   3.607  -0.508  0.00  0.00    +0.163 A 
ATOM     22  C   UNL     1       0.064   4.393  -0.827  0.00  0.00    +0.049 A 
ATOM     23  C   UNL     1      -1.206   3.845  -0.820  0.00  0.00    +0.004 A 
ATOM     24  C   UNL     1      -1.384   2.512  -0.500  0.00  0.00    +0.004 A 
ATOM     25  C   UNL     1      -0.295   1.725  -0.177  0.00  0.00    +0.049 A 
ATOM     26  C   UNL     1       0.981   2.267  -0.184  0.00  0.00    +0.163 A 
ATOM     27  O   UNL     1       2.045   1.476   0.123  0.00  0.00    -0.481 OA
ENDBRANCH   1  19
TORSDOF 2
