REMARK  Name = ZINC45795287
REMARK  6 active torsions:
REMARK  status: ('A' for Active; 'I' for Inactive)
REMARK    1  A    between atoms: C_7  and  C_11
REMARK    2  A    between atoms: C_14  and  S_16
REMARK    3  A    between atoms: S_16  and  C_17
REMARK    4  A    between atoms: C_17  and  C_18
REMARK    5  A    between atoms: C_20  and  C_23
REMARK    6  A    between atoms: C_26  and  C_29
REMARK                            x       y       z     vdW  Elec       q    Type
REMARK                         _______ _______ _______ _____ _____    ______ ____
ROOT
ATOM      1  S   UNL     1      -0.250  -7.026  -0.027  0.00  0.00    -0.056 S 
ENDROOT
BRANCH   1   5
ATOM      2  C   UNL     1       0.685  -3.260  -0.022  0.00  0.00    +0.251 A 
ATOM      3  N   UNL     1      -0.626  -3.213  -0.015  0.00  0.00    -0.106 NA
ATOM      4  N   UNL     1      -1.097  -4.410  -0.015  0.00  0.00    -0.101 NA
ATOM      5  C   UNL     1      -0.106  -5.270  -0.024  0.00  0.00    +0.278 A 
ATOM      6  O   UNL     1       1.042  -4.564  -0.034  0.00  0.00    -0.411 OA
BRANCH   2  13
ATOM      7  C   UNL     1      -0.017   1.363   0.009  0.00  0.00    +0.001 A 
ATOM      8  C   UNL     1       1.170   2.083   0.002  0.00  0.00    +0.002 A 
ATOM      9  C   UNL     1       2.385   1.434  -0.013  0.00  0.00    +0.026 A 
ATOM     10  C   UNL     1       2.425   0.043  -0.021  0.00  0.00    +0.047 A 
ATOM     11  C   UNL     1       1.221  -0.680  -0.013  0.00  0.00    +0.012 A 
ATOM     12  C   UNL     1       0.002  -0.004   0.002  0.00  0.00    +0.011 A 
ATOM     13  C   UNL     1       1.601  -2.103  -0.025  0.00  0.00    +0.063 A 
ATOM     14  C   UNL     1       2.959  -2.143  -0.039  0.00  0.00    +0.097 A 
ATOM     15  N   UNL     1       3.456  -0.872  -0.036  0.00  0.00    -0.360 N 
ATOM     16  H   UNL     1       4.399  -0.646  -0.044  0.00  0.00    +0.165 HD
ENDBRANCH   2  13
ENDBRANCH   1   5
BRANCH   1  17
ATOM     17  C   UNL     1      -2.040  -7.320  -0.018  0.00  0.00    +0.177 C 
BRANCH  17  18
ATOM     18  C   UNL     1      -2.305  -8.803  -0.020  0.00  0.00    +0.238 A 
ATOM     19  N   UNL     1      -2.438  -9.554   1.036  0.00  0.00    -0.191 NA
ATOM     20  C   UNL     1      -2.667 -10.828   0.670  0.00  0.00    +0.202 A 
ATOM     21  N   UNL     1      -2.680 -10.891  -0.639  0.00  0.00    -0.056 NA
ATOM     22  O   UNL     1      -2.450  -9.571  -1.107  0.00  0.00    -0.337 OA
BRANCH  20  23
ATOM     23  C   UNL     1      -2.870 -11.972   1.594  0.00  0.00    +0.022 A 
ATOM     24  C   UNL     1      -2.837 -11.771   2.972  0.00  0.00    +0.012 A 
ATOM     25  C   UNL     1      -3.026 -12.838   3.827  0.00  0.00    +0.013 A 
ATOM     26  C   UNL     1      -3.248 -14.105   3.317  0.00  0.00    +0.055 A 
ATOM     27  C   UNL     1      -3.281 -14.310   1.950  0.00  0.00    +0.013 A 
ATOM     28  C   UNL     1      -3.099 -13.249   1.086  0.00  0.00    +0.012 A 
BRANCH  26  29
ATOM     29  C   UNL     1      -3.452 -15.266   4.255  0.00  0.00    +0.417 C 
ATOM     30  F   UNL     1      -4.815 -15.398   4.544  0.00  0.00    -0.166 F 
ATOM     31  F   UNL     1      -2.988 -16.440   3.653  0.00  0.00    -0.166 F 
ATOM     32  F   UNL     1      -2.744 -15.039   5.441  0.00  0.00    -0.166 F 
ENDBRANCH  26  29
ENDBRANCH  20  23
ENDBRANCH  17  18
ENDBRANCH   1  17
TORSDOF 6
