REMARK  Name = ZINC34747117
REMARK  6 active torsions:
REMARK  status: ('A' for Active; 'I' for Inactive)
REMARK    1  A    between atoms: C_1  and  C_2
REMARK    2  A    between atoms: C_2  and  N_3
REMARK    3  A    between atoms: N_22  and  C_23
REMARK    4  A    between atoms: C_23  and  C_24
REMARK    5  A    between atoms: N_26  and  C_27
REMARK    6  A    between atoms: C_32  and  C_33
REMARK                            x       y       z     vdW  Elec       q    Type
REMARK                         _______ _______ _______ _____ _____    ______ ____
ROOT
ATOM      1  N   UNL     1      -2.412   0.384   0.097  0.00  0.00    +0.382 N 
ATOM      2  C   UNL     1      -3.856   0.179   0.261  0.00  0.00    -0.060 C 
ATOM      3  C   UNL     1      -4.153  -1.323   0.332  0.00  0.00    +0.089 C 
ATOM      4  N   UNL     1      -3.579  -1.968  -0.859  0.00  0.00    -0.304 N 
ATOM      5  C   UNL     1      -2.175  -1.685  -1.192  0.00  0.00    +0.089 C 
ATOM      6  C   UNL     1      -1.972  -0.166  -1.191  0.00  0.00    -0.060 C 
ATOM      7  C   UNL     1      -4.333  -2.810  -1.638  0.00  0.00    +0.202 A 
ATOM      8  N   UNL     1      -5.097  -2.308  -2.586  0.00  0.00    -0.208 NA
ATOM      9  C   UNL     1      -5.837  -3.100  -3.354  0.00  0.00    +0.117 A 
ATOM     10  C   UNL     1      -5.845  -4.496  -3.199  0.00  0.00    +0.076 A 
ATOM     11  C   UNL     1      -6.710  -5.237  -4.118  0.00  0.00    -0.023 A 
ATOM     12  C   UNL     1      -7.409  -4.514  -5.017  0.00  0.00    -0.004 A 
ATOM     13  S   UNL     1      -6.963  -2.829  -4.699  0.00  0.00    -0.073 S 
ATOM     14  C   UNL     1      -8.356  -5.030  -6.058  0.00  0.00    +0.043 C 
ATOM     15  C   UNL     1      -8.140  -6.543  -6.202  0.00  0.00    +0.005 C 
ATOM     16  C   UNL     1      -8.111  -7.171  -4.805  0.00  0.00    +0.005 C 
ATOM     17  C   UNL     1      -6.832  -6.758  -4.077  0.00  0.00    +0.037 C 
ATOM     18  C   UNL     1      -5.006  -5.013  -2.161  0.00  0.00    +0.264 A 
ATOM     19  O   UNL     1      -4.948  -6.212  -1.952  0.00  0.00    -0.267 OA
ATOM     20  N   UNL     1      -4.277  -4.155  -1.422  0.00  0.00    -0.271 N 
ATOM     21  H   UNL     1      -1.921  -0.081   0.846  0.00  0.00    -0.082 HD
ENDROOT
BRANCH   1  23
ATOM     22  C   UNL     1      -2.459   2.373   1.525  0.00  0.00    -0.017 C 
ATOM     23  C   UNL     1      -2.116   1.823   0.140  0.00  0.00    -0.082 C 
ENDBRANCH   1  23
BRANCH  20  24
ATOM     24  C   UNL     1      -3.412  -4.677  -0.361  0.00  0.00    +0.224 C 
BRANCH  24  25
ATOM     25  C   UNL     1      -4.219  -4.867   0.897  0.00  0.00    +0.237 C 
ATOM     26  O   UNL     1      -5.401  -4.593   0.907  0.00  0.00    -0.274 OA
ATOM     27  N   UNL     1      -3.628  -5.341   2.012  0.00  0.00    -0.284 N 
ATOM     28  H   UNL     1      -2.671  -5.499   2.024  0.00  0.00    +0.155 HD
BRANCH  27  29
ATOM     29  C   UNL     1      -4.395  -5.606   3.152  0.00  0.00    +0.036 A 
ATOM     30  C   UNL     1      -5.487  -4.804   3.458  0.00  0.00    +0.023 A 
ATOM     31  C   UNL     1      -6.241  -5.067   4.584  0.00  0.00    +0.002 A 
ATOM     32  C   UNL     1      -5.910  -6.129   5.407  0.00  0.00    +0.000 A 
ATOM     33  C   UNL     1      -4.824  -6.929   5.106  0.00  0.00    +0.005 A 
ATOM     34  C   UNL     1      -4.069  -6.674   3.977  0.00  0.00    -0.029 A 
ATOM     35  C   UNL     1      -2.889  -7.551   3.645  0.00  0.00    +0.045 C 
ENDBRANCH  27  29
ENDBRANCH  24  25
ENDBRANCH  20  24
TORSDOF 4
