REMARK  Name = ZINC39657817
REMARK  4 active torsions:
REMARK  status: ('A' for Active; 'I' for Inactive)
REMARK    1  A    between atoms: C_1  and  C_2
REMARK    2  A    between atoms: C_6  and  C_15
REMARK    3  A    between atoms: N_17  and  C_18
REMARK    4  A    between atoms: C_21  and  C_24
REMARK                            x       y       z     vdW  Elec       q    Type
REMARK                         _______ _______ _______ _____ _____    ______ ____
ROOT
ATOM      1  C   UNL     1      -0.157   1.339   0.086  0.00  0.00    +0.109 C 
ATOM      2  C   UNL     1      -0.030  -0.162   0.036  0.00  0.00    +0.212 C 
ATOM      3  O   UNL     1       0.043  -0.798   1.066  0.00  0.00    -0.276 OA
ATOM      4  N   UNL     1       0.002  -0.796  -1.152  0.00  0.00    -0.300 N 
ATOM      5  C   UNL     1      -0.067  -0.196  -2.505  0.00  0.00    +0.121 C 
ATOM      6  C   UNL     1       0.936  -1.015  -3.348  0.00  0.00    +0.100 C 
ATOM      7  C   UNL     1       1.050  -2.365  -2.619  0.00  0.00    -0.004 C 
ATOM      8  C   UNL     1       0.121  -2.253  -1.401  0.00  0.00    +0.115 C 
ATOM      9  C   UNL     1       2.486  -2.599  -2.161  0.00  0.00    -0.010 C 
ATOM     10  C   UNL     1       2.586  -3.971  -1.490  0.00  0.00    -0.082 C 
ATOM     11  N   UNL     1       2.178  -5.013  -2.441  0.00  0.00    +0.379 N 
ATOM     12  C   UNL     1       0.768  -4.835  -2.805  0.00  0.00    -0.082 C 
ATOM     13  C   UNL     1       0.591  -3.498  -3.532  0.00  0.00    -0.010 C 
ATOM     14  H   UNL     1       2.749  -4.951  -3.271  0.00  0.00    -0.086 HD
ATOM     15  H   UNL     1       2.303  -5.920  -2.017  0.00  0.00    -0.086 HD
ENDROOT
BRANCH   6  16
ATOM     16  C   UNL     1       0.408  -1.213  -4.745  0.00  0.00    +0.218 C 
ATOM     17  O   UNL     1      -0.788  -1.278  -4.938  0.00  0.00    -0.275 OA
ATOM     18  N   UNL     1       1.264  -1.318  -5.780  0.00  0.00    -0.312 N 
ATOM     19  H   UNL     1       2.220  -1.266  -5.626  0.00  0.00    +0.149 HD
BRANCH  18  20
ATOM     20  C   UNL     1       0.751  -1.511  -7.139  0.00  0.00    +0.073 C 
ATOM     21  C   UNL     1       0.406  -0.152  -7.752  0.00  0.00    +0.023 C 
ATOM     22  C   UNL     1      -0.130  -0.353  -9.171  0.00  0.00    +0.016 C 
ATOM     23  C   UNL     1       0.936  -1.043 -10.025  0.00  0.00    +0.102 C 
ATOM     24  C   UNL     1       1.280  -2.402  -9.413  0.00  0.00    +0.016 C 
ATOM     25  C   UNL     1       1.816  -2.201  -7.994  0.00  0.00    +0.023 C 
BRANCH  23  26
ATOM     26  C   UNL     1       0.408  -1.241 -11.423  0.00  0.00    +0.359 C 
ATOM     27  O   UNL     1       1.140  -1.064 -12.382  0.00  0.00    -0.246 OA
ATOM     28  O   UNL     1      -0.751  -1.577 -11.594  0.00  0.00    -0.246 OA
ENDBRANCH  23  26
ENDBRANCH  18  20
ENDBRANCH   6  16
TORSDOF 3
