REMARK  Name = ZINC07403968
REMARK  4 active torsions:
REMARK  status: ('A' for Active; 'I' for Inactive)
REMARK    1  A    between atoms: C_1  and  C_2
REMARK    2  A    between atoms: C_5  and  N_9
REMARK    3  A    between atoms: N_9  and  S_10
REMARK    4  A    between atoms: S_10  and  C_13
REMARK                            x       y       z     vdW  Elec       q    Type
REMARK                         _______ _______ _______ _____ _____    ______ ____
ROOT
ATOM      1  S   UNL     1       2.513  -0.377  -0.741  0.00  0.00    +0.074 S 
ATOM      2  O   UNL     1       2.064  -0.282  -2.086  0.00  0.00    -0.150 OA
ATOM      3  O   UNL     1       3.821  -0.818  -0.404  0.00  0.00    -0.150 OA
ENDROOT
BRANCH   1   4
ATOM      4  C   UNL     1       1.390  -1.450   0.090  0.00  0.00    +0.127 A 
ATOM      5  C   UNL     1       0.361  -2.051  -0.611  0.00  0.00    +0.031 A 
ATOM      6  C   UNL     1      -0.520  -2.893   0.041  0.00  0.00    +0.017 A 
ATOM      7  C   UNL     1      -0.373  -3.135   1.395  0.00  0.00    +0.019 A 
ATOM      8  C   UNL     1       0.656  -2.534   2.097  0.00  0.00    +0.037 A 
ATOM      9  C   UNL     1       1.541  -1.695   1.443  0.00  0.00    +0.069 A 
ATOM     10 CL   UNL     1       2.838  -0.947   2.322  0.00  0.00    -0.081 Cl
ATOM     11 BR   UNL     1      -1.579  -4.287   2.287  0.00  0.00    -0.050 Br
ENDBRANCH   1   4
BRANCH   1  12
ATOM     12  N   UNL     1       2.336   1.129  -0.075  0.00  0.00    -0.215 N 
ATOM     13  H   UNL     1       3.055   1.516   0.448  0.00  0.00    +0.174 HD
BRANCH  12  18
ATOM     14  C   UNL     1      -2.480   4.023  -0.857  0.00  0.00    +0.044 C 
ATOM     15  C   UNL     1      -1.200   3.255  -0.649  0.00  0.00    -0.049 A 
ATOM     16  C   UNL     1      -1.236   1.879  -0.517  0.00  0.00    +0.005 A 
ATOM     17  C   UNL     1      -0.066   1.171  -0.321  0.00  0.00    +0.026 A 
ATOM     18  C   UNL     1       1.149   1.842  -0.268  0.00  0.00    +0.066 A 
ATOM     19  C   UNL     1       1.183   3.225  -0.406  0.00  0.00    +0.064 A 
ATOM     20  C   UNL     1       0.007   3.927  -0.597  0.00  0.00    +0.025 A 
ATOM     21 CL   UNL     1       2.698   4.069  -0.339  0.00  0.00    -0.082 Cl
ENDBRANCH  12  18
ENDBRANCH   1  12
TORSDOF 3
