REMARK  Name = ZINC66908184
REMARK  10 active torsions:
REMARK  status: ('A' for Active; 'I' for Inactive)
REMARK    1  A    between atoms: C_1  and  C_2
REMARK    2  A    between atoms: C_2  and  S_3
REMARK    3  A    between atoms: S_3  and  N_6
REMARK    4  A    between atoms: N_6  and  C_7
REMARK    5  A    between atoms: N_6  and  C_8
REMARK    6  A    between atoms: N_16  and  C_17
REMARK    7  A    between atoms: C_17  and  C_18
REMARK    8  A    between atoms: N_20  and  C_21
REMARK    9  A    between atoms: C_21  and  C_22
REMARK   10  A    between atoms: C_21  and  C_23
REMARK                            x       y       z     vdW  Elec       q    Type
REMARK                         _______ _______ _______ _____ _____    ______ ____
ROOT
ATOM      1  C   UNL     1       1.896  -2.961  -0.718  0.00  0.00    +0.082 C 
ATOM      2  C   UNL     1       2.563  -3.921  -1.705  0.00  0.00    +0.039 C 
ATOM      3  C   UNL     1       3.718  -4.645  -1.006  0.00  0.00    +0.111 C 
ATOM      4  N   UNL     1       3.204  -5.291   0.210  0.00  0.00    -0.286 N 
ATOM      5  C   UNL     1       2.466  -4.476   1.185  0.00  0.00    +0.111 C 
ATOM      6  C   UNL     1       1.325  -3.754   0.461  0.00  0.00    +0.039 C 
ATOM      7  C   UNL     1       3.405  -6.606   0.427  0.00  0.00    +0.303 C 
ATOM      8  O   UNL     1       3.932  -7.289  -0.429  0.00  0.00    -0.253 OA
ATOM      9  N   UNL     1       3.021  -7.163   1.592  0.00  0.00    -0.291 N 
ATOM     10  H   UNL     1       2.536  -6.636   2.246  0.00  0.00    +0.151 HD
ENDROOT
BRANCH   1  11
ATOM     11  N   UNL     1       0.812  -2.243  -1.393  0.00  0.00    -0.181 NA
ATOM     12  C   UNL     1      -0.309  -2.986  -1.974  0.00  0.00    +0.131 C 
BRANCH  11  13
ATOM     13  S   UNL     1       0.853  -0.590  -1.498  0.00  0.00    +0.032 S 
ATOM     14  O   UNL     1       0.088  -0.281  -2.655  0.00  0.00    -0.158 OA
ATOM     15  O   UNL     1       2.233  -0.258  -1.431  0.00  0.00    -0.158 OA
BRANCH  13  17
ATOM     16  C   UNL     1      -0.024   1.523   0.001  0.00  0.00    +0.029 C 
ATOM     17  C   UNL     1      -0.002  -0.007  -0.008  0.00  0.00    +0.182 C 
ENDBRANCH  13  17
ENDBRANCH  11  13
ENDBRANCH   1  11
BRANCH   9  18
ATOM     18  C   UNL     1       3.337  -8.566   1.872  0.00  0.00    +0.201 C 
BRANCH  18  19
ATOM     19  C   UNL     1       2.802  -8.940   3.231  0.00  0.00    +0.230 C 
ATOM     20  O   UNL     1       2.214  -8.116   3.899  0.00  0.00    -0.274 OA
ATOM     21  N   UNL     1       2.976 -10.190   3.703  0.00  0.00    -0.312 N 
ATOM     22  H   UNL     1       3.446 -10.849   3.168  0.00  0.00    +0.149 HD
BRANCH  21  23
ATOM     23  C   UNL     1       2.456 -10.554   5.023  0.00  0.00    +0.067 C 
ATOM     24  C   UNL     1       2.210 -12.063   5.077  0.00  0.00    +0.027 C 
ATOM     25  C   UNL     1       3.473 -10.164   6.097  0.00  0.00    +0.027 C 
ENDBRANCH  21  23
ENDBRANCH  18  19
ENDBRANCH   9  18
TORSDOF 6
