REMARK  Name = ZINC63900636
REMARK  14 active torsions:
REMARK  status: ('A' for Active; 'I' for Inactive)
REMARK    1  A    between atoms: C_1  and  C_2
REMARK    2  A    between atoms: C_2  and  O_3
REMARK    3  A    between atoms: O_3  and  C_4
REMARK    4  A    between atoms: C_4  and  C_6
REMARK    5  A    between atoms: C_9  and  C_36
REMARK    6  A    between atoms: C_9  and  C_37
REMARK    7  A    between atoms: C_11  and  C_34
REMARK    8  A    between atoms: C_11  and  C_35
REMARK    9  A    between atoms: C_15  and  N_17
REMARK   10  A    between atoms: C_18  and  C_20
REMARK   11  A    between atoms: C_20  and  O_21
REMARK   12  A    between atoms: O_21  and  C_22
REMARK   13  A    between atoms: C_22  and  C_24
REMARK   14  A    between atoms: C_24  and  C_25
REMARK                            x       y       z     vdW  Elec       q    Type
REMARK                         _______ _______ _______ _____ _____    ______ ____
ROOT
ATOM      1  C   UNL     1      -2.794  -2.413  -0.005  0.00  0.00    +0.067 C 
ATOM      2  C   UNL     1      -2.981  -3.707   0.002  0.00  0.00    -0.047 C 
ATOM      3  C   UNL     1      -1.888  -4.770   0.126  0.00  0.00    +0.019 C 
ATOM      4  C   UNL     1      -2.577  -6.109  -0.162  0.00  0.00    -0.069 C 
ATOM      5  N   UNL     1      -3.651  -6.397   0.780  0.00  0.00    +0.387 N 
ATOM      6  C   UNL     1      -4.508  -5.255   1.097  0.00  0.00    -0.057 C 
ATOM      7  C   UNL     1      -4.432  -4.214  -0.020  0.00  0.00    +0.063 C 
ATOM      8  S   UNL     1      -5.339  -2.692   0.467  0.00  0.00    -0.127 S 
ATOM      9  C   UNL     1      -4.008  -1.500   0.007  0.00  0.00    +0.169 C 
ATOM     10  C   UNL     1      -4.045  -4.624   2.412  0.00  0.00    -0.009 C 
ATOM     11  C   UNL     1      -5.953  -5.733   1.249  0.00  0.00    -0.009 C 
ATOM     12  C   UNL     1      -1.537  -7.228  -0.086  0.00  0.00    -0.010 C 
ATOM     13  C   UNL     1      -3.158  -6.072  -1.578  0.00  0.00    -0.010 C 
ATOM     14  H   UNL     1      -4.226  -7.130   0.393  0.00  0.00    -0.084 HD
ATOM     15  H   UNL     1      -3.241  -6.737   1.637  0.00  0.00    -0.084 HD
ENDROOT
BRANCH   9  16
ATOM     16  N   UNL     1      -4.251  -0.927  -1.319  0.00  0.00    -0.297 N 
ATOM     17  C   UNL     1      -5.501  -0.898  -1.822  0.00  0.00    +0.252 C 
ATOM     18  O   UNL     1      -6.425  -1.346  -1.176  0.00  0.00    -0.272 OA
ATOM     19  H   UNL     1      -3.512  -0.569  -1.835  0.00  0.00    +0.150 HD
BRANCH  17  20
ATOM     20  C   UNL     1      -5.751  -0.308  -3.186  0.00  0.00    +0.327 C 
BRANCH  20  21
ATOM     21  O   UNL     1      -7.144  -0.392  -3.493  0.00  0.00    -0.455 OA
BRANCH  21  22
ATOM     22  C   UNL     1      -7.536   0.094  -4.681  0.00  0.00    +0.312 C 
ATOM     23  O   UNL     1      -6.724   0.574  -5.436  0.00  0.00    -0.250 OA
BRANCH  22  24
ATOM     24  C   UNL     1      -8.990   0.040  -5.075  0.00  0.00    +0.153 C 
BRANCH  24  25
ATOM     25  C   UNL     1      -9.163   0.644  -6.444  0.00  0.00    -0.031 C 
ATOM     26  C   UNL     1      -9.197  -0.014  -7.625  0.00  0.00    -0.001 A 
ATOM     27  C   UNL     1      -9.087  -1.435  -7.976  0.00  0.00    +0.010 A 
ATOM     28  C   UNL     1      -9.159  -1.798  -9.276  0.00  0.00    +0.001 A 
ATOM     29  C   UNL     1      -9.336  -0.853 -10.296  0.00  0.00    +0.002 A 
ATOM     30  C   UNL     1      -9.445   0.471 -10.053  0.00  0.00    +0.026 A 
ATOM     31  C   UNL     1      -9.384   0.964  -8.721  0.00  0.00    +0.043 A 
ATOM     32  N   UNL     1      -9.462   2.180  -8.236  0.00  0.00    -0.380 N 
ATOM     33  C   UNL     1      -9.339   2.109  -6.776  0.00  0.00    +0.145 C 
ATOM     34  H   UNL     1      -9.584   2.990  -8.755  0.00  0.00    +0.160 HD
ENDBRANCH  24  25
ENDBRANCH  22  24
ENDBRANCH  21  22
ENDBRANCH  20  21
ENDBRANCH  17  20
ENDBRANCH   9  16
BRANCH   1  35
ATOM     35  C   UNL     1      -1.436  -1.852  -0.019  0.00  0.00    +0.338 C 
ATOM     36  O   UNL     1      -0.473  -2.593  -0.028  0.00  0.00    -0.245 OA
BRANCH  35  37
ATOM     37  O   UNL     1      -1.259  -0.516  -0.021  0.00  0.00    -0.462 OA
BRANCH  37  39
ATOM     38  C   UNL     1       0.090   1.489  -0.035  0.00  0.00    +0.048 C 
ATOM     39  C   UNL     1       0.089  -0.041  -0.035  0.00  0.00    +0.229 C 
ENDBRANCH  37  39
ENDBRANCH  35  37
ENDBRANCH   1  35
TORSDOF 9
