REMARK  Name = ZINC36684790
REMARK  11 active torsions:
REMARK  status: ('A' for Active; 'I' for Inactive)
REMARK    1  A    between atoms: C_1  and  C_2
REMARK    2  A    between atoms: N_10  and  C_14
REMARK    3  A    between atoms: C_14  and  C_15
REMARK    4  A    between atoms: N_17  and  C_18
REMARK    5  A    between atoms: C_18  and  C_19
REMARK    6  A    between atoms: C_19  and  C_21
REMARK    7  A    between atoms: C_19  and  N_29
REMARK    8  A    between atoms: C_25  and  O_27
REMARK    9  A    between atoms: O_27  and  C_28
REMARK   10  A    between atoms: N_29  and  C_30
REMARK   11  A    between atoms: N_29  and  C_31
REMARK                            x       y       z     vdW  Elec       q    Type
REMARK                         _______ _______ _______ _____ _____    ______ ____
ROOT
ATOM      1  C   UNL     1       3.644  -6.258  -1.332  0.00  0.00    +0.231 C 
ATOM      2  O   UNL     1       3.502  -5.425  -2.203  0.00  0.00    -0.274 OA
ATOM      3  N   UNL     1       4.028  -7.509  -1.653  0.00  0.00    -0.315 N 
ATOM      4  H   UNL     1       4.142  -8.175  -0.956  0.00  0.00    +0.149 HD
ENDROOT
BRANCH   1   5
ATOM      5  C   UNL     1       3.392  -5.892   0.108  0.00  0.00    +0.213 C 
BRANCH   5  15
ATOM      6  C   UNL     1       0.665   1.615   0.511  0.00  0.00    +0.007 C 
ATOM      7  C   UNL     1       0.561   0.094   0.376  0.00  0.00    -0.014 C 
ATOM      8  C   UNL     1       1.342  -0.363  -0.857  0.00  0.00    +0.006 C 
ATOM      9  C   UNL     1       1.228  -1.883  -0.997  0.00  0.00    +0.035 C 
ATOM     10  C   UNL     1       1.783  -2.554   0.255  0.00  0.00    +0.113 C 
ATOM     11  C   UNL     1       1.027  -2.091   1.495  0.00  0.00    +0.035 C 
ATOM     12  C   UNL     1       1.142  -0.570   1.626  0.00  0.00    +0.006 C 
ATOM     13  C   UNL     1       1.712  -4.058   0.124  0.00  0.00    +0.247 C 
ATOM     14  O   UNL     1       0.717  -4.736  -0.014  0.00  0.00    -0.273 OA
ATOM     15  N   UNL     1       2.990  -4.486   0.192  0.00  0.00    -0.215 N 
ATOM     16  C   UNL     1       3.844  -3.467   0.345  0.00  0.00    +0.310 C 
ATOM     17  O   UNL     1       5.049  -3.602   0.432  0.00  0.00    -0.252 OA
ATOM     18  N   UNL     1       3.218  -2.275   0.394  0.00  0.00    -0.285 N 
ATOM     19  H   UNL     1       3.634  -1.405   0.499  0.00  0.00    +0.151 HD
ENDBRANCH   5  15
ENDBRANCH   1   5
BRANCH   3  20
ATOM     20  C   UNL     1       4.273  -7.864  -3.053  0.00  0.00    +0.093 C 
BRANCH  20  21
ATOM     21  C   UNL     1       4.801  -9.298  -3.130  0.00  0.00    -0.021 C 
BRANCH  21  22
ATOM     22  C   UNL     1       3.740 -10.251  -2.643  0.00  0.00    -0.056 A 
ATOM     23  C   UNL     1       2.710 -10.627  -3.486  0.00  0.00    +0.002 A 
ATOM     24  C   UNL     1       1.735 -11.502  -3.042  0.00  0.00    +0.004 A 
ATOM     25  C   UNL     1       1.788 -12.001  -1.755  0.00  0.00    +0.045 A 
ATOM     26  C   UNL     1       2.820 -11.626  -0.908  0.00  0.00    +0.120 A 
ATOM     27  C   UNL     1       3.800 -10.753  -1.357  0.00  0.00    +0.047 A 
BRANCH  26  28
ATOM     28  O   UNL     1       2.873 -12.116   0.358  0.00  0.00    -0.495 OA
ATOM     29  C   UNL     1       1.834 -13.014   0.751  0.00  0.00    +0.277 C 
ENDBRANCH  26  28
ENDBRANCH  21  22
BRANCH  21  30
ATOM     30  N   UNL     1       5.146  -9.619  -4.521  0.00  0.00    +0.382 N 
ATOM     31  C   UNL     1       6.181  -8.691  -4.995  0.00  0.00    -0.096 C 
ATOM     32  C   UNL     1       5.652 -10.996  -4.596  0.00  0.00    -0.096 C 
ATOM     33  H   UNL     1       4.324  -9.530  -5.100  0.00  0.00    -0.082 HD
ENDBRANCH  21  30
ENDBRANCH  20  21
ENDBRANCH   3  20
TORSDOF 7
