REMARK  Name = ZINC13691077
REMARK  5 active torsions:
REMARK  status: ('A' for Active; 'I' for Inactive)
REMARK    1  A    between atoms: C_1  and  C_2
REMARK    2  A    between atoms: C_3  and  C_8
REMARK    3  A    between atoms: N_5  and  C_7
REMARK    4  A    between atoms: N_17  and  C_20
REMARK    5  A    between atoms: C_20  and  C_21
REMARK                            x       y       z     vdW  Elec       q    Type
REMARK                         _______ _______ _______ _____ _____    ______ ____
ROOT
ATOM      1  C   UNL     1       0.217  -0.376  -2.542  0.00  0.00    +0.083 C 
ATOM      2  N   UNL     1       0.157  -1.192  -3.663  0.00  0.00    -0.264 N 
ATOM      3  O   UNL     1       0.839  -0.476  -4.712  0.00  0.00    -0.256 OA
ATOM      4  C   UNL     1       0.335   0.849  -4.484  0.00  0.00    +0.271 C 
ATOM      5  C   UNL     1       0.390   0.919  -2.950  0.00  0.00    +0.081 C 
ATOM      6  H   UNL     1      -0.259  -2.066  -3.727  0.00  0.00    +0.194 HD
ATOM      7  C   UNL     1       0.686   2.264  -2.722  0.00  0.00    +0.254 C 
ATOM      8  O   UNL     1       0.387   2.891  -1.721  0.00  0.00    -0.270 OA
ATOM      9  N   UNL     1       1.356   2.761  -3.781  0.00  0.00    -0.231 N 
ATOM     10  C   UNL     1       1.268   1.958  -4.885  0.00  0.00    +0.259 C 
ATOM     11  O   UNL     1       1.813   2.103  -5.958  0.00  0.00    -0.272 OA
ENDROOT
BRANCH   1  14
ATOM     12  C   UNL     1       0.073  -3.394  -1.572  0.00  0.00    +0.068 C 
ATOM     13  C   UNL     1       0.043  -2.168  -0.697  0.00  0.00    +0.069 A 
ATOM     14  C   UNL     1       0.108  -0.829  -1.143  0.00  0.00    +0.041 A 
ATOM     15  C   UNL     1       0.050  -0.023  -0.023  0.00  0.00    +0.118 A 
ATOM     16  N   UNL     1      -0.045  -0.830   1.048  0.00  0.00    -0.274 N 
ATOM     17  N   UNL     1      -0.053  -2.157   0.604  0.00  0.00    -0.176 NA
ATOM     18  C   UNL     1      -0.131  -0.393   2.443  0.00  0.00    +0.172 C 
ENDBRANCH   1  14
BRANCH   9  19
ATOM     19  C   UNL     1       2.097   4.024  -3.756  0.00  0.00    +0.152 C 
BRANCH  19  20
ATOM     20  C   UNL     1       3.520   3.763  -3.335  0.00  0.00    -0.030 A 
ATOM     21  C   UNL     1       3.862   3.797  -1.996  0.00  0.00    +0.005 A 
ATOM     22  C   UNL     1       5.168   3.558  -1.609  0.00  0.00    +0.000 A 
ATOM     23  C   UNL     1       6.131   3.284  -2.562  0.00  0.00    +0.000 A 
ATOM     24  C   UNL     1       5.789   3.249  -3.901  0.00  0.00    +0.000 A 
ATOM     25  C   UNL     1       4.483   3.484  -4.287  0.00  0.00    +0.005 A 
ENDBRANCH  19  20
ENDBRANCH   9  19
TORSDOF 3
