REMARK  Name = ZINC00630105
REMARK  10 active torsions:
REMARK  status: ('A' for Active; 'I' for Inactive)
REMARK    1  A    between atoms: C_1  and  C_2
REMARK    2  A    between atoms: C_2  and  O_4
REMARK    3  A    between atoms: O_4  and  C_5
REMARK    4  A    between atoms: C_12  and  C_23
REMARK    5  A    between atoms: C_26  and  O_33
REMARK    6  A    between atoms: C_28  and  O_29
REMARK    7  A    between atoms: O_29  and  C_30
REMARK    8  A    between atoms: C_30  and  C_32
REMARK    9  A    between atoms: O_33  and  C_34
REMARK   10  A    between atoms: C_34  and  C_36
REMARK                            x       y       z     vdW  Elec       q    Type
REMARK                         _______ _______ _______ _____ _____    ______ ____
ROOT
ATOM      1  C   UNL     1       3.445   5.575  -4.601  0.00  0.00    +0.135 A 
ATOM      2  C   UNL     1       3.732   6.566  -3.673  0.00  0.00    +0.047 A 
ATOM      3  C   UNL     1       3.604   6.302  -2.325  0.00  0.00    +0.011 A 
ATOM      4  C   UNL     1       3.190   5.053  -1.892  0.00  0.00    +0.001 A 
ATOM      5  C   UNL     1       2.885   4.065  -2.811  0.00  0.00    +0.129 A 
ATOM      6  C   UNL     1       3.022   4.329  -4.172  0.00  0.00    +0.092 A 
ATOM      7  O   UNL     1       2.452   2.845  -2.432  0.00  0.00    -0.480 OA
ATOM      8  C   UNL     1       2.595   2.389  -1.085  0.00  0.00    +0.142 C 
ATOM      9  C   UNL     1       1.404   1.421  -0.843  0.00  0.00    +0.053 C 
ATOM     10  C   UNL     1       0.249   2.284  -0.302  0.00  0.00    +0.005 C 
ATOM     11  C   UNL     1       0.799   3.716  -0.130  0.00  0.00    +0.009 C 
ATOM     12  C   UNL     1       2.319   3.531  -0.095  0.00  0.00    +0.048 C 
ATOM     13  C   UNL     1       3.091   4.791  -0.413  0.00  0.00    +0.006 C 
ATOM     14  C   UNL     1       2.422   6.008   0.263  0.00  0.00    +0.012 C 
ATOM     15  C   UNL     1       3.192   6.173   1.597  0.00  0.00    +0.001 C 
ATOM     16  C   UNL     1       4.649   5.844   1.192  0.00  0.00    +0.001 C 
ATOM     17  C   UNL     1       4.510   4.691   0.178  0.00  0.00    +0.012 C 
ENDROOT
BRANCH   8  18
ATOM     18  C   UNL     1       3.929   1.732  -0.844  0.00  0.00    +0.039 A 
ATOM     19  C   UNL     1       4.865   1.676  -1.859  0.00  0.00    +0.015 A 
ATOM     20  C   UNL     1       6.090   1.075  -1.640  0.00  0.00    +0.047 A 
ATOM     21  C   UNL     1       6.383   0.525  -0.400  0.00  0.00    +0.135 A 
ATOM     22  C   UNL     1       5.446   0.580   0.620  0.00  0.00    +0.093 A 
ATOM     23  C   UNL     1       4.219   1.188   0.400  0.00  0.00    +0.142 A 
BRANCH  23  24
ATOM     24  O   UNL     1       3.300   1.248   1.399  0.00  0.00    -0.425 OA
BRANCH  24  25
ATOM     25  C   UNL     1       3.769   1.379   2.651  0.00  0.00    +0.309 C 
ATOM     26  O   UNL     1       4.958   1.335   2.858  0.00  0.00    -0.251 OA
ATOM     27  C   UNL     1       2.811   1.582   3.796  0.00  0.00    +0.136 C 
ENDBRANCH  24  25
ENDBRANCH  23  24
BRANCH  21  28
ATOM     28  O   UNL     1       7.588  -0.065  -0.185  0.00  0.00    -0.426 OA
BRANCH  28  29
ATOM     29  C   UNL     1       7.615  -1.407  -0.171  0.00  0.00    +0.309 C 
ATOM     30  O   UNL     1       6.592  -2.034  -0.315  0.00  0.00    -0.251 OA
ATOM     31  C   UNL     1       8.922  -2.133   0.024  0.00  0.00    +0.136 C 
ENDBRANCH  28  29
ENDBRANCH  21  28
ENDBRANCH   8  18
BRANCH   1  32
ATOM     32  O   UNL     1       3.577   5.828  -5.930  0.00  0.00    -0.426 OA
BRANCH  32  34
ATOM     33  C   UNL     1       2.512   6.301  -8.107  0.00  0.00    +0.136 C 
ATOM     34  C   UNL     1       2.451   6.074  -6.619  0.00  0.00    +0.309 C 
ATOM     35  O   UNL     1       1.388   6.114  -6.045  0.00  0.00    -0.251 OA
ENDBRANCH  32  34
ENDBRANCH   1  32
TORSDOF 7
