REMARK  Name = ZINC03566469
REMARK  7 active torsions:
REMARK  status: ('A' for Active; 'I' for Inactive)
REMARK    1  A    between atoms: C_1  and  C_2
REMARK    2  A    between atoms: C_3  and  S_9
REMARK    3  A    between atoms: C_4  and  C_8
REMARK    4  A    between atoms: S_9  and  N_12
REMARK    5  A    between atoms: N_12  and  N_13
REMARK    6  A    between atoms: C_14  and  C_16
REMARK    7  A    between atoms: C_23  and  C_26
REMARK                            x       y       z     vdW  Elec       q    Type
REMARK                         _______ _______ _______ _____ _____    ______ ____
ROOT
ATOM      1  N   UNL     1       4.600   5.530  -0.620  0.00  0.00    -0.227 N 
ATOM      2  C   UNL     1       4.832   4.246  -0.284  0.00  0.00    +0.265 C 
ATOM      3  O   UNL     1       5.971   3.861  -0.100  0.00  0.00    -0.268 OA
ATOM      4  H   UNL     1       3.692   5.837  -0.766  0.00  0.00    +0.171 HD
ENDROOT
BRANCH   2   5
ATOM      5  C   UNL     1       3.711   3.313  -0.140  0.00  0.00    +0.076 A 
ATOM      6  C   UNL     1       3.730   1.971   0.194  0.00  0.00    +0.024 A 
ATOM      7  C   UNL     1       2.522   1.297   0.266  0.00  0.00    -0.036 A 
ATOM      8  C   UNL     1       1.396   2.023  -0.000  0.00  0.00    -0.006 A 
ATOM      9  S   UNL     1       1.963   3.611  -0.348  0.00  0.00    -0.088 S 
ATOM     10  C   UNL     1      -0.019   1.531   0.011  0.00  0.00    +0.043 C 
ATOM     11  C   UNL     1       0.002  -0.004   0.002  0.00  0.00    +0.009 C 
ATOM     12  C   UNL     1       0.991  -0.489   1.066  0.00  0.00    -0.009 C 
ATOM     13  C   UNL     1       2.423  -0.183   0.625  0.00  0.00    +0.039 C 
ATOM     14  C   UNL     1       0.830  -1.998   1.260  0.00  0.00    +0.008 C 
ENDBRANCH   2   5
BRANCH   1  15
ATOM     15  N   UNL     1       5.672   6.422  -0.758  0.00  0.00    -0.108 NA
ATOM     16  H   UNL     1       6.299   6.543  -0.028  0.00  0.00    +0.172 HD
BRANCH  15  17
ATOM     17  S   UNL     1       5.867   7.271  -2.167  0.00  0.00    +0.077 S 
ATOM     18  O   UNL     1       6.936   8.181  -1.948  0.00  0.00    -0.152 OA
ATOM     19  O   UNL     1       5.884   6.314  -3.218  0.00  0.00    -0.152 OA
BRANCH  17  22
ATOM     20  C   UNL     1       3.076   6.537  -3.737  0.00  0.00    +0.067 C 
ATOM     21  C   UNL     1       3.300   7.865  -3.060  0.00  0.00    +0.060 A 
ATOM     22  C   UNL     1       4.415   8.243  -2.394  0.00  0.00    +0.150 A 
ATOM     23  C   UNL     1       4.215   9.546  -1.924  0.00  0.00    +0.086 A 
ATOM     24  N   UNL     1       3.020   9.933  -2.290  0.00  0.00    -0.177 NA
ATOM     25  N   UNL     1       2.421   8.888  -3.005  0.00  0.00    -0.280 N 
ATOM     26  H   UNL     1       1.504   8.898  -3.404  0.00  0.00    +0.189 HD
ATOM     27  C   UNL     1       5.206  10.362  -1.134  0.00  0.00    +0.069 C 
ENDBRANCH  17  22
ENDBRANCH  15  17
ENDBRANCH   1  15
TORSDOF 4
