REMARK  Name = ZINC39730267
REMARK  6 active torsions:
REMARK  status: ('A' for Active; 'I' for Inactive)
REMARK    1  A    between atoms: C_1  and  C_2
REMARK    2  A    between atoms: C_6  and  N_8
REMARK    3  A    between atoms: C_9  and  C_11
REMARK    4  A    between atoms: C_11  and  O_12
REMARK    5  A    between atoms: O_12  and  C_13
REMARK    6  A    between atoms: C_13  and  C_15
REMARK                            x       y       z     vdW  Elec       q    Type
REMARK                         _______ _______ _______ _____ _____    ______ ____
ROOT
ATOM      1  O   UNL     1       0.032  -1.659   5.945  0.00  0.00    -0.452 OA
ENDROOT
BRANCH   1   2
ATOM      2  C   UNL     1       0.065  -2.128   7.208  0.00  0.00    +0.337 C 
ATOM      3  O   UNL     1       0.102  -3.325   7.411  0.00  0.00    -0.245 OA
BRANCH   2   4
ATOM      4  C   UNL     1       0.058  -1.187   8.345  0.00  0.00    +0.054 C 
ATOM      5  C   UNL     1       0.141   0.176   8.152  0.00  0.00    +0.007 A 
ATOM      6  C   UNL     1       0.239   0.743   6.807  0.00  0.00    +0.010 A 
ATOM      7  C   UNL     1       0.318   2.089   6.669  0.00  0.00    +0.001 A 
ATOM      8  C   UNL     1       0.308   2.941   7.781  0.00  0.00    +0.002 A 
ATOM      9  C   UNL     1       0.219   2.483   9.053  0.00  0.00    +0.024 A 
ATOM     10  C   UNL     1       0.131   1.097   9.310  0.00  0.00    +0.041 A 
ATOM     11  N   UNL     1       0.046   0.656  10.556  0.00  0.00    -0.285 N 
ATOM     12  C   UNL     1      -0.039  -0.632  10.870  0.00  0.00    +0.222 C 
ATOM     13  O   UNL     1      -0.115  -0.970  12.035  0.00  0.00    -0.275 OA
ATOM     14  C   UNL     1      -0.048  -1.676   9.777  0.00  0.00    +0.139 C 
ATOM     15  H   UNL     1       0.044   1.306  11.275  0.00  0.00    +0.155 HD
ENDBRANCH   2   4
ENDBRANCH   1   2
BRANCH   1  16
ATOM     16  C   UNL     1       0.041  -2.627   4.893  0.00  0.00    +0.328 C 
BRANCH  16  18
ATOM     17  N   UNL     1       0.001  -2.638   2.420  0.00  0.00    -0.266 N 
ATOM     18  C   UNL     1      -0.000  -1.922   3.562  0.00  0.00    +0.256 C 
ATOM     19  O   UNL     1      -0.034  -0.710   3.518  0.00  0.00    -0.272 OA
ATOM     20  H   UNL     1       0.028  -3.607   2.455  0.00  0.00    +0.156 HD
BRANCH  17  26
ATOM     21  C   UNL     1      -0.153   1.500   0.012  0.00  0.00    +0.067 C 
ATOM     22  C   UNL     1      -0.111  -0.006   0.003  0.00  0.00    +0.059 A 
ATOM     23  C   UNL     1      -0.112  -0.682  -1.203  0.00  0.00    +0.063 A 
ATOM     24  C   UNL     1      -0.074  -2.070  -1.204  0.00  0.00    +0.045 A 
ATOM     25  C   UNL     1      -0.036  -2.731   0.013  0.00  0.00    +0.082 A 
ATOM     26  C   UNL     1      -0.037  -1.985   1.188  0.00  0.00    +0.144 A 
ATOM     27  N   UNL     1      -0.069  -0.663   1.147  0.00  0.00    -0.234 NA
ATOM     28 CL   UNL     1       0.012  -4.465   0.072  0.00  0.00    -0.080 Cl
ATOM     29 CL   UNL     1      -0.162   0.195  -2.700  0.00  0.00    -0.082 Cl
ENDBRANCH  17  26
ENDBRANCH  16  18
ENDBRANCH   1  16
TORSDOF 5
