REMARK  Name = ZINC17220190
REMARK  5 active torsions:
REMARK  status: ('A' for Active; 'I' for Inactive)
REMARK    1  A    between atoms: C_1  and  C_2
REMARK    2  A    between atoms: C_2  and  O_4
REMARK    3  A    between atoms: O_4  and  C_5
REMARK    4  A    between atoms: C_13  and  O_22
REMARK    5  A    between atoms: C_19  and  O_21
REMARK                            x       y       z     vdW  Elec       q    Type
REMARK                         _______ _______ _______ _____ _____    ______ ____
ROOT
ATOM      1  C   UNL     1       1.478   1.413  -0.003  0.00  0.00    +0.124 C 
ATOM      2  C   UNL     1       2.082   1.103  -1.347  0.00  0.00    +0.049 C 
ATOM      3  C   UNL     1       3.615   1.045  -1.256  0.00  0.00    +0.004 C 
ATOM      4  C   UNL     1       4.077  -0.222  -0.684  0.00  0.00    +0.000 C 
ATOM      5  C   UNL     1       3.640  -0.432   0.770  0.00  0.00    +0.000 C 
ATOM      6  C   UNL     1       2.230  -0.971   0.813  0.00  0.00    +0.010 C 
ATOM      7  C   UNL     1       1.206   0.171   0.893  0.00  0.00    +0.068 C 
ATOM      8  C   UNL     1       0.004  -0.007   0.009  0.00  0.00    +0.105 C 
ATOM      9  C   UNL     1      -0.021   1.555   0.022  0.00  0.00    +0.068 C 
ATOM     10  C   UNL     1      -0.869   1.984  -1.159  0.00  0.00    +0.010 C 
ATOM     11  C   UNL     1      -2.304   1.485  -0.844  0.00  0.00    +0.003 C 
ATOM     12  C   UNL     1      -2.358  -0.016  -0.590  0.00  0.00    +0.034 C 
ATOM     13  C   UNL     1      -1.358  -0.463   0.496  0.00  0.00    +0.147 C 
ENDROOT
BRANCH  13  14
ATOM     14  O   UNL     1      -1.671   0.162   1.743  0.00  0.00    -0.389 OA
ATOM     15  H   UNL     1      -2.531  -0.091   2.105  0.00  0.00    +0.210 HD
ENDBRANCH  13  14
BRANCH   8  16
ATOM     16  O   UNL     1       0.330  -0.547  -1.274  0.00  0.00    -0.385 OA
ATOM     17  H   UNL     1       0.350  -1.513  -1.301  0.00  0.00    +0.210 HD
ENDBRANCH   8  16
BRANCH   1  18
ATOM     18  O   UNL     1       2.167   2.484   0.694  0.00  0.00    -0.457 OA
BRANCH  18  20
ATOM     19  C   UNL     1       2.834   4.860   0.780  0.00  0.00    +0.136 C 
ATOM     20  C   UNL     1       2.057   3.718   0.176  0.00  0.00    +0.304 C 
ATOM     21  O   UNL     1       1.336   3.913  -0.773  0.00  0.00    -0.251 OA
ENDBRANCH  18  20
ENDBRANCH   1  18
TORSDOF 4
