REMARK  Name = ZINC38742734
REMARK  8 active torsions:
REMARK  status: ('A' for Active; 'I' for Inactive)
REMARK    1  A    between atoms: C_1  and  C_2
REMARK    2  A    between atoms: C_2  and  C_3
REMARK    3  A    between atoms: C_2  and  C_4
REMARK    4  A    between atoms: C_6  and  C_10
REMARK    5  A    between atoms: C_18  and  C_20
REMARK    6  A    between atoms: C_21  and  C_22
REMARK    7  A    between atoms: C_27  and  O_28
REMARK    8  A    between atoms: O_28  and  C_29
REMARK                            x       y       z     vdW  Elec       q    Type
REMARK                         _______ _______ _______ _____ _____    ______ ____
ROOT
ATOM      1  C   UNL     1       2.045  -2.942  -3.073  0.00  0.00    +0.206 C 
ATOM      2  N   UNL     1       0.652  -3.438  -2.965  0.00  0.00    -0.231 NA
ATOM      3  N   UNL     1       0.306  -4.004  -4.280  0.00  0.00    -0.224 NA
ATOM      4  C   UNL     1       1.624  -4.352  -4.848  0.00  0.00    +0.240 C 
ATOM      5  N   UNL     1       2.431  -3.140  -4.488  0.00  0.00    -0.206 N 
ATOM      6  N   UNL     1       3.140  -2.612  -5.546  0.00  0.00    -0.174 NA
ATOM      7  C   UNL     1       2.889  -2.921  -6.789  0.00  0.00    +0.118 C 
ATOM      8  S   UNL     1       1.623  -4.222  -6.674  0.00  0.00    -0.063 S 
ATOM      9  H   UNL     1       0.571  -4.133  -2.239  0.00  0.00    +0.143 HD
ATOM     10  H   UNL     1      -0.167  -3.322  -4.854  0.00  0.00    +0.144 HD
ENDROOT
BRANCH   1  13
ATOM     11  C   UNL     1       0.707  -0.490  -1.238  0.00  0.00    +0.064 C 
ATOM     12  C   UNL     1       1.805  -1.250  -1.237  0.00  0.00    +0.030 C 
ATOM     13  C   UNL     1       2.107  -1.457  -2.710  0.00  0.00    +0.190 C 
ATOM     14  N   UNL     1       1.029  -0.708  -3.378  0.00  0.00    -0.177 NA
ATOM     15  N   UNL     1       0.311  -0.220  -2.502  0.00  0.00    -0.158 NA
BRANCH  11  17
ATOM     16  C   UNL     1      -0.019   1.526   0.010  0.00  0.00    +0.014 C 
ATOM     17  C   UNL     1       0.002  -0.004   0.002  0.00  0.00    +0.033 C 
ATOM     18  C   UNL     1      -1.433  -0.534   0.013  0.00  0.00    +0.014 C 
ENDBRANCH  11  17
ENDBRANCH   1  13
BRANCH   7  19
ATOM     19  C   UNL     1       3.493  -2.356  -8.000  0.00  0.00    +0.037 C 
ATOM     20  C   UNL     1       4.433  -1.396  -7.898  0.00  0.00    +0.014 C 
BRANCH  20  21
ATOM     21  C   UNL     1       5.039  -0.829  -9.114  0.00  0.00    +0.017 A 
ATOM     22  C   UNL     1       4.640  -1.280 -10.375  0.00  0.00    +0.011 A 
ATOM     23  C   UNL     1       5.213  -0.745 -11.509  0.00  0.00    +0.001 A 
ATOM     24  C   UNL     1       6.182   0.239 -11.404  0.00  0.00    +0.004 A 
ATOM     25  C   UNL     1       6.585   0.694 -10.163  0.00  0.00    +0.046 A 
ATOM     26  C   UNL     1       6.018   0.171  -9.013  0.00  0.00    +0.127 A 
BRANCH  26  27
ATOM     27  O   UNL     1       6.410   0.622  -7.793  0.00  0.00    -0.495 OA
ATOM     28  C   UNL     1       7.410   1.641  -7.769  0.00  0.00    +0.277 C 
ENDBRANCH  26  27
ENDBRANCH  20  21
ENDBRANCH   7  19
TORSDOF 5
