REMARK  Name = ZINC12965438
REMARK  8 active torsions:
REMARK  status: ('A' for Active; 'I' for Inactive)
REMARK    1  A    between atoms: C_1  and  C_2
REMARK    2  A    between atoms: C_9  and  C_12
REMARK    3  A    between atoms: C_12  and  O_14
REMARK    4  A    between atoms: O_14  and  C_15
REMARK    5  A    between atoms: C_15  and  C_17
REMARK    6  A    between atoms: C_15  and  C_18
REMARK    7  A    between atoms: N_20  and  C_21
REMARK    8  A    between atoms: C_25  and  N_27
REMARK                            x       y       z     vdW  Elec       q    Type
REMARK                         _______ _______ _______ _____ _____    ______ ____
ROOT
ATOM      1  C   UNL     1      -1.256   7.403  -0.159  0.00  0.00    +0.259 C 
ATOM      2  C   UNL     1      -0.697   8.009   1.130  0.00  0.00    +0.062 C 
ENDROOT
BRANCH   1   3
ATOM      3  C   UNL     1      -1.242   5.900  -0.055  0.00  0.00    +0.258 C 
ATOM      4  O   UNL     1      -2.286   5.283  -0.049  0.00  0.00    -0.271 OA
ATOM      5  N   UNL     1      -0.069   5.242   0.032  0.00  0.00    -0.282 N 
ATOM      6  H   UNL     1       0.761   5.737   0.105  0.00  0.00    +0.155 HD
BRANCH   5   7
ATOM      7  C   UNL     1      -0.050   3.842   0.018  0.00  0.00    +0.036 A 
ATOM      8  C   UNL     1       0.909   3.152   0.749  0.00  0.00    +0.023 A 
ATOM      9  C   UNL     1       0.922   1.771   0.737  0.00  0.00    +0.004 A 
ATOM     10  C   UNL     1      -0.010   1.076  -0.011  0.00  0.00    +0.033 A 
ATOM     11  C   UNL     1      -0.966   1.760  -0.740  0.00  0.00    +0.128 A 
ATOM     12  C   UNL     1      -0.988   3.141  -0.727  0.00  0.00    +0.056 A 
BRANCH  11  13
ATOM     13  N   UNL     1      -1.966   1.012  -1.534  0.00  0.00    +0.056 N 
ATOM     14  O   UNL     1      -1.947  -0.206  -1.546  0.00  0.00    -0.126 OA
ATOM     15  O   UNL     1      -2.808   1.614  -2.176  0.00  0.00    -0.126 OA
ENDBRANCH  11  13
ENDBRANCH   5   7
ENDBRANCH   1   3
BRANCH   1  16
ATOM     16  O   UNL     1      -2.619   7.862  -0.359  0.00  0.00    -0.451 OA
BRANCH  16  17
ATOM     17  C   UNL     1      -2.784   8.994  -1.060  0.00  0.00    +0.322 C 
ATOM     18  O   UNL     1      -1.822   9.583  -1.493  0.00  0.00    -0.250 OA
BRANCH  17  27
ATOM     19  C   UNL     1      -7.670  14.902  -2.220  0.00  0.00    +0.044 C 
ATOM     20  C   UNL     1      -6.805  13.678  -2.374  0.00  0.00    -0.049 A 
ATOM     21  C   UNL     1      -6.607  13.111  -3.620  0.00  0.00    +0.004 A 
ATOM     22  C   UNL     1      -5.813  11.997  -3.770  0.00  0.00    +0.005 A 
ATOM     23  C   UNL     1      -5.182  11.405  -2.672  0.00  0.00    -0.032 A 
ATOM     24  C   UNL     1      -5.406  11.983  -1.425  0.00  0.00    +0.012 A 
ATOM     25  C   UNL     1      -6.198  13.106  -1.272  0.00  0.00    +0.018 A 
ATOM     26  S   UNL     1      -4.526  10.989  -0.241  0.00  0.00    -0.110 S 
ATOM     27  C   UNL     1      -4.170   9.532  -1.308  0.00  0.00    +0.164 C 
ATOM     28  C   UNL     1      -4.276  10.199  -2.697  0.00  0.00    +0.062 C 
ENDBRANCH  17  27
ENDBRANCH  16  17
ENDBRANCH   1  16
TORSDOF 6
