REMARK  Name = ZINC39840620
REMARK  10 active torsions:
REMARK  status: ('A' for Active; 'I' for Inactive)
REMARK    1  A    between atoms: C_1  and  C_2
REMARK    2  A    between atoms: C_2  and  C_3
REMARK    3  A    between atoms: C_3  and  C_4
REMARK    4  A    between atoms: C_10  and  C_26
REMARK    5  A    between atoms: C_29  and  O_35
REMARK    6  A    between atoms: C_30  and  O_32
REMARK    7  A    between atoms: O_32  and  C_33
REMARK    8  A    between atoms: C_33  and  C_34
REMARK    9  A    between atoms: O_35  and  C_36
REMARK   10  A    between atoms: C_36  and  C_37
REMARK                            x       y       z     vdW  Elec       q    Type
REMARK                         _______ _______ _______ _____ _____    ______ ____
ROOT
ATOM      1  C   UNL     1       0.739  -2.004  -1.265  0.00  0.00    +0.104 A 
ATOM      2  N   UNL     1      -0.127  -2.861  -1.772  0.00  0.00    -0.145 NA
ATOM      3  N   UNL     1       0.040  -4.109  -1.694  0.00  0.00    -0.125 NA
ATOM      4  C   UNL     1       1.099  -4.637  -1.096  0.00  0.00    +0.191 A 
ATOM      5  S   UNL     1       1.949  -3.142  -0.597  0.00  0.00    -0.035 S 
ATOM      6  N   UNL     1       1.450  -5.968  -0.913  0.00  0.00    -0.230 N 
ATOM      7  C   UNL     1       0.682  -7.136  -1.375  0.00  0.00    +0.152 C 
ATOM      8  C   UNL     1       1.462  -8.334  -0.939  0.00  0.00    +0.072 A 
ATOM      9  C   UNL     1       1.201  -9.767  -1.099  0.00  0.00    +0.199 A 
ATOM     10  O   UNL     1       0.317 -10.209  -1.812  0.00  0.00    -0.287 OA
ATOM     11  C   UNL     1       2.117 -10.630  -0.311  0.00  0.00    +0.067 A 
ATOM     12  C   UNL     1       1.875 -11.999  -0.200  0.00  0.00    +0.053 A 
ATOM     13  C   UNL     1       2.733 -12.785   0.541  0.00  0.00    +0.124 A 
ATOM     14  C   UNL     1       3.832 -12.211   1.171  0.00  0.00    +0.042 A 
ATOM     15  C   UNL     1       4.080 -10.862   1.065  0.00  0.00    +0.050 A 
ATOM     16  C   UNL     1       3.228 -10.047   0.320  0.00  0.00    +0.140 A 
ATOM     17  O   UNL     1       3.502  -8.726   0.225  0.00  0.00    -0.450 OA
ATOM     18  C   UNL     1       2.579  -7.889  -0.290  0.00  0.00    +0.199 A 
ATOM     19  C   UNL     1       2.557  -6.417  -0.286  0.00  0.00    +0.289 C 
ATOM     20  O   UNL     1       3.409  -5.709   0.212  0.00  0.00    -0.266 OA
ATOM     21  F   UNL     1       2.506 -14.112   0.654  0.00  0.00    -0.205 F 
ENDROOT
BRANCH   7  22
ATOM     22  C   UNL     1       0.556  -7.115  -2.876  0.00  0.00    -0.018 A 
ATOM     23  C   UNL     1       1.624  -6.706  -3.652  0.00  0.00    +0.009 A 
ATOM     24  C   UNL     1       1.513  -6.684  -5.030  0.00  0.00    +0.050 A 
ATOM     25  C   UNL     1       0.329  -7.074  -5.636  0.00  0.00    +0.162 A 
ATOM     26  C   UNL     1      -0.746  -7.486  -4.855  0.00  0.00    +0.162 A 
ATOM     27  C   UNL     1      -0.626  -7.510  -3.474  0.00  0.00    +0.055 A 
BRANCH  26  28
ATOM     28  O   UNL     1      -1.910  -7.870  -5.444  0.00  0.00    -0.489 OA
BRANCH  28  29
ATOM     29  C   UNL     1      -2.971  -8.281  -4.580  0.00  0.00    +0.226 C 
ATOM     30  C   UNL     1      -4.189  -8.673  -5.418  0.00  0.00    +0.048 C 
ENDBRANCH  28  29
ENDBRANCH  26  28
BRANCH  25  31
ATOM     31  O   UNL     1       0.218  -7.053  -6.991  0.00  0.00    -0.484 OA
BRANCH  31  32
ATOM     32  C   UNL     1       1.362  -6.618  -7.729  0.00  0.00    +0.256 C 
BRANCH  32  33
ATOM     33  C   UNL     1       1.054  -6.661  -9.204  0.00  0.00    +0.006 C 
ATOM     34  C   UNL     1       1.393  -5.656  -9.973  0.00  0.00    +0.007 C 
ENDBRANCH  32  33
ENDBRANCH  31  32
ENDBRANCH  25  31
ENDBRANCH   7  22
BRANCH   1  35
ATOM     35  C   UNL     1       0.718  -0.497  -1.257  0.00  0.00    +0.064 C 
BRANCH  35  37
ATOM     36  C   UNL     1      -0.019   1.526   0.010  0.00  0.00    +0.004 C 
ATOM     37  C   UNL     1       0.002  -0.004   0.002  0.00  0.00    +0.003 C 
ENDBRANCH  35  37
ENDBRANCH   1  35
TORSDOF 8
