REMARK  Name = ZINC33811342
REMARK  9 active torsions:
REMARK  status: ('A' for Active; 'I' for Inactive)
REMARK    1  A    between atoms: C_1  and  C_2
REMARK    2  A    between atoms: C_2  and  C_3
REMARK    3  A    between atoms: C_3  and  O_4
REMARK    4  A    between atoms: O_4  and  C_5
REMARK    5  A    between atoms: C_10  and  C_16
REMARK    6  A    between atoms: N_18  and  N_19
REMARK    7  A    between atoms: C_20  and  C_22
REMARK    8  A    between atoms: C_28  and  C_31
REMARK    9  A    between atoms: C_28  and  C_32
REMARK                            x       y       z     vdW  Elec       q    Type
REMARK                         _______ _______ _______ _____ _____    ______ ____
ROOT
ATOM      1  C   UNL     1       1.917   1.269  -1.335  0.00  0.00    +0.267 C 
ATOM      2  O   UNL     1       1.956   0.055  -1.399  0.00  0.00    -0.268 OA
ATOM      3  N   UNL     1       0.758   1.891  -1.040  0.00  0.00    -0.230 N 
ATOM      4  H   UNL     1       0.722   2.989  -0.982  0.00  0.00    +0.173 HD
ENDROOT
BRANCH   1  10
ATOM      5  C   UNL     1       6.628   5.581  -2.226  0.00  0.00    +0.124 A 
ATOM      6  C   UNL     1       5.447   6.259  -1.924  0.00  0.00    +0.046 A 
ATOM      7  C   UNL     1       4.296   5.568  -1.689  0.00  0.00    +0.015 A 
ATOM      8  C   UNL     1       4.295   4.165  -1.753  0.00  0.00    +0.019 A 
ATOM      9  C   UNL     1       3.101   3.444  -1.515  0.00  0.00    +0.031 A 
ATOM     10  C   UNL     1       3.134   2.060  -1.579  0.00  0.00    +0.123 A 
ATOM     11  C   UNL     1       4.402   1.397  -1.902  0.00  0.00    +0.350 A 
ATOM     12  O   UNL     1       4.452   0.183  -1.968  0.00  0.00    -0.244 OA
ATOM     13  O   UNL     1       5.507   2.127  -2.123  0.00  0.00    -0.422 OA
ATOM     14  C   UNL     1       5.485   3.476  -2.057  0.00  0.00    +0.143 A 
ATOM     15  C   UNL     1       6.647   4.197  -2.292  0.00  0.00    +0.092 A 
BRANCH   5  16
ATOM     16  O   UNL     1       7.766   6.282  -2.457  0.00  0.00    -0.492 OA
BRANCH  16  17
ATOM     17  C   UNL     1       7.679   7.706  -2.373  0.00  0.00    +0.229 C 
BRANCH  17  19
ATOM     18  C   UNL     1       8.959   9.843  -2.572  0.00  0.00    +0.007 C 
ATOM     19  C   UNL     1       9.052   8.318  -2.661  0.00  0.00    +0.038 C 
ENDBRANCH  17  19
ENDBRANCH  16  17
ENDBRANCH   5  16
ENDBRANCH   1  10
BRANCH   3  20
ATOM     20  N   UNL     1      -0.401   1.138  -0.807  0.00  0.00    -0.233 N 
ATOM     21  C   UNL     1      -1.561   1.760  -0.517  0.00  0.00    +0.239 C 
ATOM     22  O   UNL     1      -1.601   2.970  -0.453  0.00  0.00    -0.273 OA
ATOM     23  H   UNL     1      -0.364   0.040  -0.861  0.00  0.00    +0.173 HD
BRANCH  21  24
ATOM     24  C   UNL     1      -2.809   0.951  -0.273  0.00  0.00    +0.070 C 
ATOM     25  C   UNL     1      -3.306   0.088  -1.473  0.00  0.00    +0.021 C 
ATOM     26  C   UNL     1      -4.809  -0.185  -1.167  0.00  0.00    +0.006 C 
ATOM     27  C   UNL     1      -5.046   0.516   0.206  0.00  0.00    +0.000 C 
ATOM     28  C   UNL     1      -4.109   1.767   0.057  0.00  0.00    +0.025 C 
ATOM     29  C   UNL     1      -4.228  -0.322   1.235  0.00  0.00    -0.010 C 
ATOM     30  C   UNL     1      -2.760  -0.010   0.923  0.00  0.00    -0.056 C 
ATOM     31  C   UNL     1      -1.694  -0.474   1.526  0.00  0.00    +0.009 C 
ATOM     32  C   UNL     1      -4.558   0.118   2.663  0.00  0.00    +0.016 C 
ATOM     33  C   UNL     1      -4.519  -1.814   1.059  0.00  0.00    +0.016 C 
ENDBRANCH  21  24
ENDBRANCH   3  20
TORSDOF 6
