REMARK  Name = ZINC06409991
REMARK  5 active torsions:
REMARK  status: ('A' for Active; 'I' for Inactive)
REMARK    1  A    between atoms: C_1  and  C_2
REMARK    2  A    between atoms: C_7  and  C_14
REMARK    3  A    between atoms: C_14  and  C_16
REMARK    4  A    between atoms: C_14  and  N_61
REMARK    5  A    between atoms: N_20  and  C_21
REMARK                            x       y       z     vdW  Elec       q    Type
REMARK                         _______ _______ _______ _____ _____    ______ ____
ROOT
ATOM      1  C   UNL     1       3.510   0.737  -0.027  0.00  0.00    +0.039 C 
ENDROOT
BRANCH   1   8
ATOM      2  C   UNL     1       5.297   1.559  -7.757  0.00  0.00    +0.044 C 
ATOM      3  C   UNL     1       5.052   1.190  -6.317  0.00  0.00    -0.048 A 
ATOM      4  C   UNL     1       5.438  -0.060  -5.852  0.00  0.00    +0.004 A 
ATOM      5  C   UNL     1       5.226  -0.415  -4.550  0.00  0.00    +0.010 A 
ATOM      6  C   UNL     1       4.613   0.490  -3.677  0.00  0.00    -0.001 A 
ATOM      7  C   UNL     1       4.375   0.145  -2.274  0.00  0.00    +0.017 A 
ATOM      8  C   UNL     1       3.774   1.061  -1.475  0.00  0.00    +0.011 A 
ATOM      9  C   UNL     1       3.398   2.319  -1.993  0.00  0.00    +0.251 A 
ATOM     10  O   UNL     1       2.863   3.129  -1.257  0.00  0.00    -0.268 OA
ATOM     11  N   UNL     1       3.617   2.646  -3.279  0.00  0.00    -0.322 N 
ATOM     12  H   UNL     1       3.346   3.520  -3.603  0.00  0.00    +0.169 HD
ATOM     13  C   UNL     1       4.219   1.758  -4.144  0.00  0.00    +0.049 A 
ATOM     14  C   UNL     1       4.446   2.096  -5.474  0.00  0.00    +0.029 A 
ENDBRANCH   1   8
BRANCH   1  24
ATOM     15  C   UNL     1       5.545   1.874   0.636  0.00  0.00    -0.072 C 
ATOM     16  C   UNL     1       6.034   3.189   1.243  0.00  0.00    +0.017 C 
ATOM     17  C   UNL     1       5.506   3.336   2.647  0.00  0.00    -0.048 A 
ATOM     18  C   UNL     1       6.105   4.263   3.486  0.00  0.00    +0.004 A 
ATOM     19  C   UNL     1       5.646   4.435   4.776  0.00  0.00    +0.000 A 
ATOM     20  C   UNL     1       4.584   3.678   5.235  0.00  0.00    +0.000 A 
ATOM     21  C   UNL     1       3.989   2.753   4.402  0.00  0.00    +0.002 A 
ATOM     22  C   UNL     1       4.449   2.578   3.105  0.00  0.00    -0.061 A 
ATOM     23  C   UNL     1       3.770   1.554   2.235  0.00  0.00    -0.041 C 
ATOM     24  N   UNL     1       4.081   1.810   0.819  0.00  0.00    +0.392 N 
ATOM     25  H   UNL     1       3.668   2.708   0.542  0.00  0.00    -0.080 HD
ENDBRANCH   1  24
BRANCH   1  26
ATOM     26  C   UNL     1       2.024   0.661   0.208  0.00  0.00    +0.143 A 
ATOM     27  N   UNL     1       1.199   1.672   0.339  0.00  0.00    -0.115 NA
ATOM     28  N   UNL     1       0.016   1.198   0.527  0.00  0.00    -0.023 NA
ATOM     29  N   UNL     1       0.064  -0.088   0.520  0.00  0.00    -0.044 NA
ATOM     30  N   UNL     1       1.285  -0.458   0.327  0.00  0.00    -0.227 N 
BRANCH  30  31
ATOM     31  C   UNL     1       1.774  -1.836   0.249  0.00  0.00    +0.111 C 
ATOM     32  C   UNL     1       1.043  -2.595  -0.877  0.00  0.00    +0.027 C 
ATOM     33  C   UNL     1       0.858  -4.026  -0.312  0.00  0.00    +0.002 C 
ATOM     34  C   UNL     1       0.548  -3.767   1.183  0.00  0.00    +0.002 C 
ATOM     35  C   UNL     1       1.460  -2.581   1.559  0.00  0.00    +0.027 C 
ENDBRANCH  30  31
ENDBRANCH   1  26
TORSDOF 4
