REMARK  Name = ZINC01079632
REMARK  4 active torsions:
REMARK  status: ('A' for Active; 'I' for Inactive)
REMARK    1  A    between atoms: C_1  and  C_2
REMARK    2  A    between atoms: C_2  and  C_3
REMARK    3  A    between atoms: C_11  and  C_24
REMARK    4  A    between atoms: C_14  and  C_17
REMARK                            x       y       z     vdW  Elec       q    Type
REMARK                         _______ _______ _______ _____ _____    ______ ____
ROOT
ATOM      1  C   UNL     1      -1.412  -0.526   0.013  0.00  0.00    +0.219 C 
ATOM      2  O   UNL     1      -2.344   0.250   0.026  0.00  0.00    -0.275 OA
ATOM      3  N   UNL     1      -1.640  -1.854   0.008  0.00  0.00    -0.253 N 
ATOM      4  C   UNL     1      -2.952  -2.338   0.018  0.00  0.00    +0.242 A 
ATOM      5  N   UNL     1      -4.060  -1.583   0.026  0.00  0.00    -0.180 NA
ATOM      6  C   UNL     1      -5.113  -2.356   0.033  0.00  0.00    +0.216 A 
ATOM      7  N   UNL     1      -4.692  -3.643   0.030  0.00  0.00    -0.224 N 
ATOM      8  N   UNL     1      -3.297  -3.606   0.014  0.00  0.00    -0.131 NA
ATOM      9  C   UNL     1      -5.584  -4.802   0.040  0.00  0.00    +0.143 C 
ATOM     10  C   UNL     1      -6.970  -4.356   0.523  0.00  0.00    +0.058 C 
ATOM     11  C   UNL     1      -7.410  -3.107  -0.249  0.00  0.00    +0.106 C 
ATOM     12  N   UNL     1      -6.459  -2.015   0.040  0.00  0.00    -0.307 N 
ATOM     13  H   UNL     1      -0.894  -2.474  -0.003  0.00  0.00    +0.158 HD
ATOM     14  H   UNL     1      -6.758  -1.111   0.225  0.00  0.00    +0.149 HD
ENDROOT
BRANCH  11  15
ATOM     15  C   UNL     1      -7.413  -3.401  -1.727  0.00  0.00    -0.027 A 
ATOM     16  C   UNL     1      -6.227  -3.385  -2.438  0.00  0.00    +0.007 A 
ATOM     17  C   UNL     1      -6.230  -3.655  -3.793  0.00  0.00    +0.020 A 
ATOM     18  C   UNL     1      -7.420  -3.941  -4.439  0.00  0.00    +0.041 A 
ATOM     19  C   UNL     1      -8.606  -3.957  -3.728  0.00  0.00    +0.020 A 
ATOM     20  C   UNL     1      -8.601  -3.692  -2.371  0.00  0.00    +0.007 A 
ATOM     21 CL   UNL     1      -7.424  -4.279  -6.142  0.00  0.00    -0.084 Cl
ENDBRANCH  11  15
BRANCH   9  22
ATOM     22  C   UNL     1      -5.037  -5.854   0.970  0.00  0.00    -0.023 A 
ATOM     23  C   UNL     1      -4.859  -5.566   2.311  0.00  0.00    +0.006 A 
ATOM     24  C   UNL     1      -4.356  -6.530   3.164  0.00  0.00    +0.000 A 
ATOM     25  C   UNL     1      -4.032  -7.783   2.677  0.00  0.00    +0.000 A 
ATOM     26  C   UNL     1      -4.211  -8.071   1.337  0.00  0.00    +0.000 A 
ATOM     27  C   UNL     1      -4.717  -7.108   0.484  0.00  0.00    +0.006 A 
ENDBRANCH   9  22
BRANCH   1  29
ATOM     28  C   UNL     1      -0.019   1.526   0.010  0.00  0.00    +0.013 C 
ATOM     29  C   UNL     1       0.002  -0.004   0.002  0.00  0.00    +0.093 C 
ENDBRANCH   1  29
TORSDOF 3
