REMARK  Name = ZINC39490973
REMARK  8 active torsions:
REMARK  status: ('A' for Active; 'I' for Inactive)
REMARK    1  A    between atoms: C_1  and  C_2
REMARK    2  A    between atoms: C_2  and  C_3
REMARK    3  A    between atoms: C_2  and  S_4
REMARK    4  A    between atoms: S_4  and  C_7
REMARK    5  A    between atoms: C_7  and  C_28
REMARK    6  A    between atoms: N_12  and  C_13
REMARK    7  A    between atoms: C_13  and  C_14
REMARK    8  A    between atoms: C_14  and  C_21
REMARK                            x       y       z     vdW  Elec       q    Type
REMARK                         _______ _______ _______ _____ _____    ______ ____
ROOT
ATOM      1  C   UNL     1      -3.616  -4.614   1.907  0.00  0.00    +0.170 C 
ATOM      2  C   UNL     1      -3.403  -5.431   3.196  0.00  0.00    +0.172 C 
ATOM      3  N   UNL     1      -3.276  -4.407   4.245  0.00  0.00    -0.218 N 
ATOM      4  C   UNL     1      -3.391  -3.193   3.691  0.00  0.00    +0.316 C 
ATOM      5  O   UNL     1      -3.325  -2.163   4.332  0.00  0.00    -0.252 OA
ATOM      6  N   UNL     1      -3.587  -3.217   2.366  0.00  0.00    -0.259 N 
ATOM      7 BR   UNL     1      -3.001  -4.743   6.043  0.00  0.00    +0.040 Br
ATOM      8  C   UNL     1      -2.486  -4.876   0.909  0.00  0.00    +0.059 C 
ENDROOT
BRANCH   1   9
ATOM      9  S   UNL     1      -5.224  -5.006   1.163  0.00  0.00    -0.006 S 
ATOM     10  O   UNL     1      -5.235  -4.512  -0.169  0.00  0.00    -0.172 OA
ATOM     11  O   UNL     1      -6.246  -4.595   2.061  0.00  0.00    -0.172 OA
BRANCH   9  13
ATOM     12  C   UNL     1      -6.322  -7.309   0.178  0.00  0.00    +0.031 C 
ATOM     13  C   UNL     1      -5.207  -6.819   1.104  0.00  0.00    +0.127 C 
ATOM     14  C   UNL     1      -3.854  -7.299   0.572  0.00  0.00    +0.031 C 
ENDBRANCH   9  13
ENDBRANCH   1   9
BRANCH   6  15
ATOM     15  C   UNL     1      -3.745  -2.039   1.510  0.00  0.00    +0.118 C 
BRANCH  15  16
ATOM     16  C   UNL     1      -5.208  -1.591   1.525  0.00  0.00    -0.008 C 
ATOM     17  C   UNL     1      -6.069  -2.630   0.802  0.00  0.00    +0.025 C 
ATOM     18  C   UNL     1      -5.627  -2.724  -0.660  0.00  0.00    +0.103 C 
ATOM     19  N   UNL     1      -5.771  -1.411  -1.302  0.00  0.00    -0.219 NA
ATOM     20  C   UNL     1      -4.917  -0.407  -0.654  0.00  0.00    +0.103 C 
ATOM     21  C   UNL     1      -5.338  -0.244   0.808  0.00  0.00    +0.025 C 
ATOM     22 CL   UNL     1      -5.441  -1.508  -2.977  0.00  0.00    -0.021 Cl
BRANCH  16  23
ATOM     23  C   UNL     1      -5.684  -1.448   2.972  0.00  0.00    -0.003 C 
ATOM     24  C   UNL     1      -5.960  -2.834   3.557  0.00  0.00    +0.004 C 
ATOM     25  C   UNL     1      -6.436  -2.691   5.004  0.00  0.00    +0.000 C 
ATOM     26  C   UNL     1      -7.719  -1.858   5.039  0.00  0.00    +0.000 C 
ATOM     27  C   UNL     1      -7.442  -0.471   4.454  0.00  0.00    +0.000 C 
ATOM     28  C   UNL     1      -6.966  -0.614   3.007  0.00  0.00    +0.004 C 
ENDBRANCH  16  23
ENDBRANCH  15  16
ENDBRANCH   6  15
TORSDOF 5
