REMARK  Name = ZINC40312911
REMARK  4 active torsions:
REMARK  status: ('A' for Active; 'I' for Inactive)
REMARK    1  A    between atoms: C_1  and  C_2
REMARK    2  A    between atoms: C_12  and  C_14
REMARK    3  A    between atoms: C_16  and  N_20
REMARK    4  A    between atoms: N_18  and  C_19
REMARK                            x       y       z     vdW  Elec       q    Type
REMARK                         _______ _______ _______ _____ _____    ______ ____
ROOT
ATOM      1  C   UNL     1       0.318   2.400   0.201  0.00  0.00    +0.045 C 
ATOM      2  C   UNL     1      -0.797   1.428  -0.084  0.00  0.00    -0.029 A 
ATOM      3  C   UNL     1      -1.342   1.355  -1.350  0.00  0.00    +0.005 A 
ATOM      4  C   UNL     1      -2.366   0.462  -1.610  0.00  0.00    +0.001 A 
ATOM      5  C   UNL     1      -2.846  -0.355  -0.604  0.00  0.00    +0.005 A 
ATOM      6  C   UNL     1      -2.306  -0.287   0.669  0.00  0.00    -0.026 A 
ATOM      7  C   UNL     1      -1.274   0.601   0.928  0.00  0.00    +0.043 A 
ATOM      8  N   UNL     1      -0.698   0.681   2.202  0.00  0.00    -0.266 N 
ATOM      9  C   UNL     1      -1.382   0.038   3.332  0.00  0.00    +0.114 C 
ATOM     10  C   UNL     1      -1.836  -1.355   2.874  0.00  0.00    +0.024 C 
ATOM     11  C   UNL     1      -2.857  -1.188   1.743  0.00  0.00    +0.038 C 
ATOM     12  C   UNL     1       0.464   1.337   2.389  0.00  0.00    +0.267 C 
ATOM     13  O   UNL     1       1.310   1.339   1.513  0.00  0.00    -0.268 OA
ENDROOT
BRANCH  12  14
ATOM     14  C   UNL     1       0.711   2.049   3.647  0.00  0.00    +0.106 A 
ATOM     15  C   UNL     1       0.791   1.480   4.902  0.00  0.00    +0.055 A 
ATOM     16  C   UNL     1       1.037   2.519   5.811  0.00  0.00    +0.043 A 
ATOM     17  C   UNL     1       1.100   3.679   5.107  0.00  0.00    +0.108 A 
ATOM     18  N   UNL     1       0.909   3.403   3.789  0.00  0.00    -0.344 N 
ATOM     19  C   UNL     1       0.909   4.385   2.701  0.00  0.00    +0.149 C 
BRANCH  16  20
ATOM     20  N   UNL     1       1.190   2.384   7.203  0.00  0.00    -0.357 N 
ATOM     21  H   UNL     1       1.127   1.508   7.615  0.00  0.00    +0.142 HD
ATOM     22  H   UNL     1       1.358   3.166   7.751  0.00  0.00    +0.142 HD
ENDBRANCH  16  20
ENDBRANCH  12  14
TORSDOF 2
