REMARK  Name = ZINC51991707
REMARK  4 active torsions:
REMARK  status: ('A' for Active; 'I' for Inactive)
REMARK    1  A    between atoms: C_1  and  C_2
REMARK    2  A    between atoms: C_3  and  C_13
REMARK    3  A    between atoms: N_15  and  C_16
REMARK    4  A    between atoms: C_22  and  O_24
REMARK                            x       y       z     vdW  Elec       q    Type
REMARK                         _______ _______ _______ _____ _____    ______ ____
ROOT
ATOM      1  C   UNL     1      -0.018   1.503   0.010  0.00  0.00    +0.087 C 
ATOM      2  C   UNL     1       0.002  -0.004   0.002  0.00  0.00    +0.117 A 
ATOM      3  C   UNL     1      -1.100  -0.804   0.003  0.00  0.00    +0.092 A 
ATOM      4  C   UNL     1      -0.586  -2.183  -0.007  0.00  0.00    +0.116 A 
ATOM      5  C   UNL     1      -1.173  -3.467  -0.011  0.00  0.00    +0.263 A 
ATOM      6  O   UNL     1      -2.384  -3.603  -0.007  0.00  0.00    -0.267 OA
ATOM      7  N   UNL     1      -0.351  -4.542  -0.021  0.00  0.00    -0.313 N 
ATOM      8  H   UNL     1      -0.724  -5.437  -0.024  0.00  0.00    +0.170 HD
ATOM      9  C   UNL     1       0.994  -4.369  -0.026  0.00  0.00    +0.203 A 
ATOM     10  N   UNL     1       1.546  -3.188  -0.022  0.00  0.00    -0.202 NA
ATOM     11  C   UNL     1       0.804  -2.070  -0.013  0.00  0.00    +0.235 A 
ATOM     12  O   UNL     1       1.107  -0.761  -0.013  0.00  0.00    -0.441 OA
ENDROOT
BRANCH   3  13
ATOM     13  C   UNL     1      -2.509  -0.379   0.012  0.00  0.00    +0.248 C 
ATOM     14  O   UNL     1      -3.096  -0.197  -1.037  0.00  0.00    -0.270 OA
ATOM     15  N   UNL     1      -3.148  -0.190   1.184  0.00  0.00    -0.306 N 
ATOM     16  H   UNL     1      -2.680  -0.335   2.021  0.00  0.00    +0.149 HD
BRANCH  15  17
ATOM     17  C   UNL     1      -4.551   0.234   1.193  0.00  0.00    +0.102 C 
ATOM     18  C   UNL     1      -5.455  -0.994   1.065  0.00  0.00    +0.025 C 
ATOM     19  C   UNL     1      -6.920  -0.552   1.075  0.00  0.00    +0.002 C 
ATOM     20  C   UNL     1      -7.225   0.172   2.388  0.00  0.00    +0.003 C 
ATOM     21  C   UNL     1      -6.321   1.400   2.515  0.00  0.00    +0.033 C 
ATOM     22  C   UNL     1      -4.856   0.958   2.506  0.00  0.00    +0.135 C 
BRANCH  22  23
ATOM     23  O   UNL     1      -4.012   2.104   2.625  0.00  0.00    -0.390 OA
ATOM     24  H   UNL     1      -4.151   2.612   3.436  0.00  0.00    +0.210 HD
ENDBRANCH  22  23
ENDBRANCH  15  17
ENDBRANCH   3  13
TORSDOF 3
