REMARK  Name = ZINC12498109
REMARK  14 active torsions:
REMARK  status: ('A' for Active; 'I' for Inactive)
REMARK    1  A    between atoms: C_1  and  C_2
REMARK    2  A    between atoms: C_2  and  C_3
REMARK    3  A    between atoms: C_3  and  C_34
REMARK    4  A    between atoms: C_8  and  C_10
REMARK    5  A    between atoms: C_13  and  O_18
REMARK    6  A    between atoms: C_14  and  O_16
REMARK    7  A    between atoms: O_16  and  C_17
REMARK    8  A    between atoms: O_18  and  C_19
REMARK    9  A    between atoms: N_22  and  C_25
REMARK   10  A    between atoms: C_29  and  C_31
REMARK   11  A    between atoms: C_31  and  C_33
REMARK   12  A    between atoms: C_34  and  O_36
REMARK   13  A    between atoms: O_36  and  C_37
REMARK   14  A    between atoms: C_37  and  C_38
REMARK                            x       y       z     vdW  Elec       q    Type
REMARK                         _______ _______ _______ _____ _____    ______ ____
ROOT
ATOM      1  C   UNL     1       1.939   0.744   1.253  0.00  0.00    +0.043 C 
ATOM      2  C   UNL     1       1.513   1.500  -0.004  0.00  0.00    +0.086 C 
ATOM      3  C   UNL     1      -0.013   1.086   0.008  0.00  0.00    +0.077 C 
ATOM      4  C   UNL     1      -0.394   1.401   1.397  0.00  0.00    -0.027 C 
ATOM      5  C   UNL     1      -0.407   1.409  -1.342  0.00  0.00    +0.229 C 
ATOM      6  O   UNL     1      -1.475   1.843  -1.717  0.00  0.00    -0.275 OA
ATOM      7  N   UNL     1       0.694   1.115  -2.107  0.00  0.00    -0.210 N 
ATOM      8  C   UNL     1       1.821   0.921  -1.359  0.00  0.00    +0.229 C 
ATOM      9  O   UNL     1       2.853   0.393  -1.712  0.00  0.00    -0.275 OA
ATOM     10  N   UNL     1       0.763   0.814   2.160  0.00  0.00    +0.395 N 
ATOM     11  H   UNL     1       0.984   1.410   2.967  0.00  0.00    -0.083 HD
ATOM     12  H   UNL     1       0.521  -0.128   2.487  0.00  0.00    -0.083 HD
ENDROOT
BRANCH   4  13
ATOM     13  C   UNL     1      -1.686   0.718   1.768  0.00  0.00    -0.057 A 
ATOM     14  C   UNL     1      -1.682  -0.617   2.127  0.00  0.00    +0.006 A 
ATOM     15  C   UNL     1      -2.864  -1.247   2.468  0.00  0.00    +0.049 A 
ATOM     16  C   UNL     1      -4.056  -0.541   2.451  0.00  0.00    +0.161 A 
ATOM     17  C   UNL     1      -4.059   0.803   2.090  0.00  0.00    +0.162 A 
ATOM     18  C   UNL     1      -2.871   1.430   1.754  0.00  0.00    +0.051 A 
BRANCH  17  19
ATOM     19  O   UNL     1      -5.227   1.500   2.072  0.00  0.00    -0.491 OA
ATOM     20  C   UNL     1      -5.155   2.876   1.692  0.00  0.00    +0.277 C 
ENDBRANCH  17  19
BRANCH  16  21
ATOM     21  O   UNL     1      -5.219  -1.160   2.786  0.00  0.00    -0.491 OA
ATOM     22  C   UNL     1      -5.140  -2.541   3.146  0.00  0.00    +0.277 C 
ENDBRANCH  16  21
ENDBRANCH   4  13
BRANCH   7  23
ATOM     23  C   UNL     1       0.666   1.025  -3.506  0.00  0.00    +0.045 A 
ATOM     24  C   UNL     1       1.830   0.729  -4.207  0.00  0.00    +0.024 A 
ATOM     25  C   UNL     1       1.808   0.633  -5.586  0.00  0.00    +0.003 A 
ATOM     26  C   UNL     1       0.634   0.842  -6.279  0.00  0.00    +0.011 A 
ATOM     27  C   UNL     1      -0.542   1.145  -5.585  0.00  0.00    +0.019 A 
ATOM     28  C   UNL     1      -0.519   1.236  -4.190  0.00  0.00    +0.035 A 
BRANCH  27  29
ATOM     29  C   UNL     1      -1.797   1.369  -6.320  0.00  0.00    +0.160 C 
ATOM     30  O   UNL     1      -2.815   1.633  -5.715  0.00  0.00    -0.292 OA
ATOM     31  C   UNL     1      -1.818   1.270  -7.823  0.00  0.00    +0.091 C 
ENDBRANCH  27  29
ENDBRANCH   7  23
BRANCH   1  33
ATOM     32  C   UNL     1       2.567  -1.482   2.197  0.00  0.00    +0.003 C 
ATOM     33  C   UNL     1       2.264  -0.712   0.911  0.00  0.00    -0.004 C 
ENDBRANCH   1  33
BRANCH   1  34
ATOM     34  C   UNL     1       3.134   1.411   1.884  0.00  0.00    +0.297 C 
ATOM     35  O   UNL     1       3.878   2.081   1.209  0.00  0.00    -0.252 OA
BRANCH  34  36
ATOM     36  O   UNL     1       3.371   1.260   3.196  0.00  0.00    -0.466 OA
BRANCH  36  37
ATOM     37  C   UNL     1       4.540   1.931   3.736  0.00  0.00    +0.228 C 
ATOM     38  C   UNL     1       4.645   1.645   5.236  0.00  0.00    +0.048 C 
ENDBRANCH  36  37
ENDBRANCH  34  36
ENDBRANCH   1  34
TORSDOF 9
