REMARK  Name = ZINC42015639
REMARK  5 active torsions:
REMARK  status: ('A' for Active; 'I' for Inactive)
REMARK    1  A    between atoms: C_1  and  C_2
REMARK    2  A    between atoms: C_2  and  C_3
REMARK    3  A    between atoms: C_8  and  N_9
REMARK    4  A    between atoms: C_10  and  C_14
REMARK    5  A    between atoms: C_16  and  N_21
REMARK                            x       y       z     vdW  Elec       q    Type
REMARK                         _______ _______ _______ _____ _____    ______ ____
ROOT
ATOM      1  N   UNL     1       2.842  -0.220  -0.129  0.00  0.00    -0.192 N 
ATOM      2  C   UNL     1       4.179  -0.404   0.073  0.00  0.00    +0.190 A 
ATOM      3  N   UNL     1       4.438  -0.008   1.302  0.00  0.00    -0.108 NA
ATOM      4  N   UNL     1       3.367   0.406   1.877  0.00  0.00    -0.022 NA
ATOM      5  N   UNL     1       2.360   0.316   1.078  0.00  0.00    -0.039 NA
ENDROOT
BRANCH   2   6
ATOM      6  C   UNL     1       5.151  -0.944  -0.902  0.00  0.00    +0.058 A 
ATOM      7  C   UNL     1       5.174  -0.459  -2.209  0.00  0.00    +0.037 A 
ATOM      8  C   UNL     1       6.088  -0.970  -3.117  0.00  0.00    +0.025 A 
ATOM      9  C   UNL     1       6.979  -1.963  -2.725  0.00  0.00    +0.025 A 
ATOM     10  C   UNL     1       6.957  -2.445  -1.430  0.00  0.00    +0.041 A 
ATOM     11  C   UNL     1       6.053  -1.938  -0.514  0.00  0.00    +0.134 A 
ATOM     12  F   UNL     1       6.039  -2.408   0.752  0.00  0.00    -0.205 F 
BRANCH   8  13
ATOM     13  N   UNL     1       6.114  -0.486  -4.429  0.00  0.00    -0.358 N 
ATOM     14  H   UNL     1       5.493   0.206  -4.703  0.00  0.00    +0.142 HD
ATOM     15  H   UNL     1       6.754  -0.843  -5.065  0.00  0.00    +0.142 HD
ENDBRANCH   8  13
ENDBRANCH   2   6
BRANCH   1  21
ATOM     16  C   UNL     1       1.264   0.462  -1.828  0.00  0.00    -0.022 A 
ATOM     17  C   UNL     1       0.548   0.186  -2.976  0.00  0.00    +0.006 A 
ATOM     18  C   UNL     1       0.668  -1.048  -3.587  0.00  0.00    +0.000 A 
ATOM     19  C   UNL     1       1.504  -2.010  -3.051  0.00  0.00    +0.002 A 
ATOM     20  C   UNL     1       2.223  -1.740  -1.903  0.00  0.00    +0.028 A 
ATOM     21  C   UNL     1       2.109  -0.499  -1.290  0.00  0.00    +0.073 A 
BRANCH  16  23
ATOM     22  C   UNL     1       2.252   2.730  -1.651  0.00  0.00    +0.009 C 
ATOM     23  C   UNL     1       1.133   1.808  -1.162  0.00  0.00    +0.034 C 
ENDBRANCH  16  23
ENDBRANCH   1  21
TORSDOF 4
