REMARK  Name = ZINC12310001
REMARK  10 active torsions:
REMARK  status: ('A' for Active; 'I' for Inactive)
REMARK    1  A    between atoms: C_1  and  C_2
REMARK    2  A    between atoms: C_2  and  C_3
REMARK    3  A    between atoms: C_2  and  C_4
REMARK    4  A    between atoms: C_10  and  N_11
REMARK    5  A    between atoms: N_11  and  O_12
REMARK    6  A    between atoms: O_12  and  C_13
REMARK    7  A    between atoms: C_13  and  C_14
REMARK    8  A    between atoms: N_16  and  C_17
REMARK    9  A    between atoms: N_27  and  C_32
REMARK   10  A    between atoms: N_30  and  C_31
REMARK                            x       y       z     vdW  Elec       q    Type
REMARK                         _______ _______ _______ _____ _____    ______ ____
ROOT
ATOM      1  C   UNL     1       1.251   5.795  -0.595  0.00  0.00    -0.003 A 
ATOM      2  C   UNL     1       2.336   5.005  -0.577  0.00  0.00    +0.090 A 
ATOM      3  N   UNL     1       2.291   3.726  -0.090  0.00  0.00    -0.347 N 
ATOM      4  H   UNL     1       3.225   3.187   0.130  0.00  0.00    +0.167 HD
ATOM      5  C   UNL     1       1.116   3.081   0.139  0.00  0.00    +0.129 A 
ATOM      6  C   UNL     1      -0.076   3.800   0.161  0.00  0.00    +0.106 A 
ATOM      7  C   UNL     1      -0.023   5.255  -0.079  0.00  0.00    +0.082 A 
ATOM      8  C   UNL     1      -1.293   3.124   0.408  0.00  0.00    +0.268 A 
ATOM      9  O   UNL     1      -2.347   3.734   0.436  0.00  0.00    -0.267 OA
ATOM     10  N   UNL     1      -1.264   1.789   0.609  0.00  0.00    -0.263 N 
ATOM     11  C   UNL     1      -0.102   1.114   0.586  0.00  0.00    +0.333 A 
ATOM     12  O   UNL     1      -0.113  -0.087   0.773  0.00  0.00    -0.246 OA
ATOM     13  N   UNL     1       1.073   1.728   0.355  0.00  0.00    -0.282 N 
ATOM     14  C   UNL     1       2.312   0.947   0.335  0.00  0.00    +0.155 C 
ATOM     15  C   UNL     1      -2.515   1.068   0.862  0.00  0.00    +0.157 C 
ENDROOT
BRANCH   1  17
ATOM     16  C   UNL     1       1.575   8.174   0.024  0.00  0.00    +0.012 C 
ATOM     17  C   UNL     1       1.331   7.201  -1.131  0.00  0.00    +0.016 C 
ATOM     18  C   UNL     1       2.482   7.300  -2.134  0.00  0.00    +0.012 C 
ENDBRANCH   1  17
BRANCH   7  19
ATOM     19  N   UNL     1      -1.057   6.032   0.156  0.00  0.00    -0.264 N 
ATOM     20  H   UNL     1      -1.144   7.001  -0.356  0.00  0.00    +0.194 HD
BRANCH  19  21
ATOM     21  O   UNL     1      -2.059   5.620   1.067  0.00  0.00    -0.265 OA
BRANCH  21  22
ATOM     22  C   UNL     1      -3.123   6.561   1.225  0.00  0.00    +0.288 C 
BRANCH  22  23
ATOM     23  C   UNL     1      -4.127   6.023   2.212  0.00  0.00    +0.246 C 
ATOM     24  O   UNL     1      -3.948   4.940   2.730  0.00  0.00    -0.273 OA
ATOM     25  N   UNL     1      -5.222   6.744   2.520  0.00  0.00    -0.283 N 
ATOM     26  H   UNL     1      -5.429   7.684   1.988  0.00  0.00    +0.155 HD
BRANCH  25  27
ATOM     27  C   UNL     1      -6.097   6.298   3.518  0.00  0.00    +0.035 A 
ATOM     28  C   UNL     1      -7.436   6.668   3.485  0.00  0.00    +0.025 A 
ATOM     29  C   UNL     1      -8.298   6.221   4.467  0.00  0.00    +0.023 A 
ATOM     30  C   UNL     1      -7.828   5.415   5.489  0.00  0.00    +0.059 A 
ATOM     31  C   UNL     1      -6.493   5.050   5.527  0.00  0.00    +0.061 A 
ATOM     32  C   UNL     1      -5.627   5.489   4.544  0.00  0.00    +0.044 A 
ATOM     33 CL   UNL     1      -5.907   4.039   6.811  0.00  0.00    -0.082 Cl
ATOM     34 CL   UNL     1      -8.914   4.861   6.725  0.00  0.00    -0.082 Cl
ENDBRANCH  25  27
ENDBRANCH  22  23
ENDBRANCH  21  22
ENDBRANCH  19  21
ENDBRANCH   7  19
TORSDOF 6
