REMARK  Name = ZINC29905137
REMARK  10 active torsions:
REMARK  status: ('A' for Active; 'I' for Inactive)
REMARK    1  A    between atoms: C_1  and  C_2
REMARK    2  A    between atoms: C_2  and  C_4
REMARK    3  A    between atoms: C_2  and  N_21
REMARK    4  A    between atoms: N_6  and  C_7
REMARK    5  A    between atoms: C_12  and  C_13
REMARK    6  A    between atoms: C_13  and  C_15
REMARK    7  A    between atoms: C_24  and  C_27
REMARK    8  A    between atoms: N_29  and  C_30
REMARK    9  A    between atoms: C_35  and  O_36
REMARK   10  A    between atoms: O_36  and  C_37
REMARK                            x       y       z     vdW  Elec       q    Type
REMARK                         _______ _______ _______ _____ _____    ______ ____
ROOT
ATOM      1  C   UNL     1      -0.470   6.272   8.733  0.00  0.00    -0.004 C 
ATOM      2  C   UNL     1      -0.978   4.981   9.378  0.00  0.00    +0.016 C 
ENDROOT
BRANCH   2   3
ATOM      3  N   UNL     1      -1.570   4.119   8.347  0.00  0.00    +0.387 N 
ATOM      4  C   UNL     1      -2.768   4.739   7.766  0.00  0.00    -0.077 C 
ATOM      5  C   UNL     1      -3.438   3.756   6.805  0.00  0.00    -0.006 C 
ATOM      6  C   UNL     1      -2.450   3.377   5.698  0.00  0.00    +0.072 C 
ATOM      7  C   UNL     1      -1.191   2.777   6.331  0.00  0.00    -0.006 C 
ATOM      8  C   UNL     1      -0.586   3.789   7.308  0.00  0.00    -0.077 C 
ATOM      9  H   UNL     1      -1.879   3.178   8.826  0.00  0.00    -0.081 HD
BRANCH   6  10
ATOM     10  C   UNL     1      -3.085   2.362   4.782  0.00  0.00    +0.220 C 
ATOM     11  O   UNL     1      -4.217   1.981   4.991  0.00  0.00    -0.275 OA
ATOM     12  N   UNL     1      -2.394   1.879   3.731  0.00  0.00    -0.282 N 
ATOM     13  H   UNL     1      -1.338   2.155   3.592  0.00  0.00    +0.155 HD
BRANCH  12  14
ATOM     14  C   UNL     1      -3.021   1.024   2.814  0.00  0.00    +0.076 A 
ATOM     15  C   UNL     1      -4.399   1.058   2.661  0.00  0.00    +0.027 A 
ATOM     16  C   UNL     1      -5.015   0.210   1.761  0.00  0.00    +0.002 A 
ATOM     17  C   UNL     1      -4.261  -0.670   1.007  0.00  0.00    +0.004 A 
ATOM     18  C   UNL     1      -2.886  -0.706   1.150  0.00  0.00    +0.047 A 
ATOM     19  C   UNL     1      -2.261   0.141   2.051  0.00  0.00    +0.141 A 
BRANCH  19  20
ATOM     20  O   UNL     1      -0.909   0.106   2.193  0.00  0.00    -0.493 OA
ATOM     21  C   UNL     1      -0.195  -0.829   1.381  0.00  0.00    +0.277 C 
ENDBRANCH  19  20
ENDBRANCH  12  14
ENDBRANCH   6  10
ENDBRANCH   2   3
BRANCH   2  22
ATOM     22  C   UNL     1       0.172   4.261  10.035  0.00  0.00    +0.203 C 
ATOM     23  O   UNL     1       0.469   3.140   9.679  0.00  0.00    -0.277 OA
ATOM     24  N   UNL     1       0.871   4.863  11.018  0.00  0.00    -0.286 N 
ATOM     25  H   UNL     1       0.548   5.841  11.402  0.00  0.00    +0.155 HD
BRANCH  24  26
ATOM     26  C   UNL     1       2.001   4.246  11.546  0.00  0.00    +0.044 A 
ATOM     27  C   UNL     1       2.709   3.321  10.791  0.00  0.00    +0.024 A 
ATOM     28  C   UNL     1       3.832   2.713  11.315  0.00  0.00    +0.002 A 
ATOM     29  C   UNL     1       4.257   3.013  12.601  0.00  0.00    +0.001 A 
ATOM     30  C   UNL     1       3.565   3.924  13.367  0.00  0.00    +0.013 A 
ATOM     31  C   UNL     1       2.428   4.551  12.849  0.00  0.00    +0.043 A 
BRANCH  31  32
ATOM     32  C   UNL     1       1.682   5.527  13.664  0.00  0.00    +0.195 C 
ATOM     33  O   UNL     1       2.126   6.647  13.829  0.00  0.00    -0.287 OA
BRANCH  32  34
ATOM     34  C   UNL     1       0.395   5.144  14.280  0.00  0.00    +0.022 A 
ATOM     35  C   UNL     1      -0.069   3.831  14.178  0.00  0.00    +0.012 A 
ATOM     36  C   UNL     1      -1.268   3.479  14.761  0.00  0.00    +0.001 A 
ATOM     37  C   UNL     1      -2.017   4.427  15.436  0.00  0.00    +0.000 A 
ATOM     38  C   UNL     1      -1.567   5.731  15.537  0.00  0.00    +0.001 A 
ATOM     39  C   UNL     1      -0.366   6.096  14.963  0.00  0.00    +0.012 A 
ENDBRANCH  32  34
ENDBRANCH  31  32
ENDBRANCH  24  26
ENDBRANCH   2  22
TORSDOF 8
