REMARK  Name = ZINC16956308
REMARK  2 active torsions:
REMARK  status: ('A' for Active; 'I' for Inactive)
REMARK    1  A    between atoms: C_8  and  C_18
REMARK    2  A    between atoms: N_10  and  C_11
REMARK                            x       y       z     vdW  Elec       q    Type
REMARK                         _______ _______ _______ _____ _____    ______ ____
ROOT
ATOM      1  C   UNL     1       1.160   1.778   0.001  0.00  0.00    +0.001 A 
ATOM      2  C   UNL     1       1.151   3.165   0.007  0.00  0.00    +0.004 A 
ATOM      3  C   UNL     1      -0.041   3.861   0.023  0.00  0.00    +0.047 A 
ATOM      4  C   UNL     1      -1.244   3.169   0.032  0.00  0.00    +0.137 A 
ATOM      5  C   UNL     1      -1.233   1.762   0.017  0.00  0.00    +0.018 A 
ATOM      6  C   UNL     1      -0.013   1.076   0.008  0.00  0.00    +0.011 A 
ATOM      7  C   UNL     1      -2.503   1.032   0.027  0.00  0.00    +0.030 A 
ATOM      8  C   UNL     1      -3.656   1.758  -0.234  0.00  0.00    +0.099 A 
ATOM      9  C   UNL     1      -3.496   3.206  -0.493  0.00  0.00    +0.229 A 
ATOM     10  N   UNL     1      -4.360   3.858  -1.224  0.00  0.00    -0.246 NA
ATOM     11  O   UNL     1      -2.424   3.835   0.052  0.00  0.00    -0.437 OA
ENDROOT
BRANCH  10  12
ATOM     12  C   UNL     1      -4.180   5.292  -1.466  0.00  0.00    +0.109 C 
ATOM     13  C   UNL     1      -5.389   6.057  -0.925  0.00  0.00    +0.027 C 
ATOM     14  C   UNL     1      -5.201   7.554  -1.178  0.00  0.00    +0.002 C 
ATOM     15  C   UNL     1      -5.070   7.805  -2.681  0.00  0.00    +0.000 C 
ATOM     16  C   UNL     1      -3.860   7.040  -3.222  0.00  0.00    +0.002 C 
ATOM     17  C   UNL     1      -4.048   5.543  -2.969  0.00  0.00    +0.027 C 
ENDBRANCH  10  12
BRANCH   8  18
ATOM     18  C   UNL     1      -4.980   1.115  -0.254  0.00  0.00    +0.247 C 
ATOM     19  O   UNL     1      -5.974   1.777  -0.487  0.00  0.00    -0.270 OA
ATOM     20  N   UNL     1      -5.091  -0.206  -0.014  0.00  0.00    -0.325 N 
ATOM     21  H   UNL     1      -4.299  -0.734   0.171  0.00  0.00    +0.145 HD
ATOM     22  H   UNL     1      -5.964  -0.630  -0.027  0.00  0.00    +0.145 HD
ENDBRANCH   8  18
TORSDOF 2
