REMARK  Name = ZINC14945358
REMARK  9 active torsions:
REMARK  status: ('A' for Active; 'I' for Inactive)
REMARK    1  A    between atoms: C_1  and  C_2
REMARK    2  A    between atoms: C_3  and  N_15
REMARK    3  A    between atoms: N_6  and  C_9
REMARK    4  A    between atoms: N_7  and  C_8
REMARK    5  A    between atoms: C_16  and  C_18
REMARK    6  A    between atoms: C_18  and  S_19
REMARK    7  A    between atoms: S_19  and  C_20
REMARK    8  A    between atoms: C_23  and  C_32
REMARK    9  A    between atoms: N_24  and  C_25
REMARK                            x       y       z     vdW  Elec       q    Type
REMARK                         _______ _______ _______ _____ _____    ______ ____
ROOT
ATOM      1  C   UNL     1      -0.915  -5.248   0.664  0.00  0.00    +0.173 C 
ENDROOT
BRANCH   1   3
ATOM      2  N   UNL     1      -0.369  -7.572   0.018  0.00  0.00    -0.279 N 
ATOM      3  C   UNL     1      -0.062  -6.487   0.755  0.00  0.00    +0.228 C 
ATOM      4  O   UNL     1       0.901  -6.507   1.493  0.00  0.00    -0.275 OA
ATOM      5  H   UNL     1      -1.180  -7.584  -0.513  0.00  0.00    +0.155 HD
BRANCH   2   8
ATOM      6  C   UNL     1       0.726  -8.936  -2.503  0.00  0.00    +0.067 C 
ATOM      7  C   UNL     1       0.990  -9.317  -1.070  0.00  0.00    +0.059 A 
ATOM      8  C   UNL     1       0.489  -8.690   0.018  0.00  0.00    +0.121 A 
ATOM      9  C   UNL     1       0.998  -9.393   1.196  0.00  0.00    +0.293 A 
ATOM     10  O   UNL     1       0.763  -9.122   2.360  0.00  0.00    -0.264 OA
ATOM     11  N   UNL     1       1.779 -10.397   0.748  0.00  0.00    -0.216 N 
ATOM     12  N   UNL     1       1.781 -10.354  -0.651  0.00  0.00    -0.282 N 
ATOM     13  C   UNL     1       2.509 -11.275  -1.528  0.00  0.00    +0.171 C 
BRANCH  11  14
ATOM     14  C   UNL     1       2.467 -11.320   1.542  0.00  0.00    +0.067 A 
ATOM     15  C   UNL     1       2.369 -12.680   1.272  0.00  0.00    +0.028 A 
ATOM     16  C   UNL     1       3.054 -13.588   2.055  0.00  0.00    +0.002 A 
ATOM     17  C   UNL     1       3.827 -13.147   3.113  0.00  0.00    +0.000 A 
ATOM     18  C   UNL     1       3.922 -11.795   3.387  0.00  0.00    +0.002 A 
ATOM     19  C   UNL     1       3.245 -10.881   2.605  0.00  0.00    +0.028 A 
ENDBRANCH  11  14
ENDBRANCH   2   8
ENDBRANCH   1   3
BRANCH   1  20
ATOM     20  S   UNL     1      -0.250  -3.975   1.766  0.00  0.00    -0.076 S 
BRANCH  20  21
ATOM     21  C   UNL     1      -1.404  -2.678   1.467  0.00  0.00    +0.197 A 
ATOM     22  N   UNL     1      -2.432  -2.723   0.649  0.00  0.00    -0.122 NA
ATOM     23  N   UNL     1      -3.066  -1.605   0.672  0.00  0.00    -0.125 NA
ATOM     24  C   UNL     1      -2.482  -0.774   1.508  0.00  0.00    +0.205 A 
ATOM     25  N   UNL     1      -1.395  -1.435   2.040  0.00  0.00    -0.268 N 
BRANCH  25  26
ATOM     26  C   UNL     1      -0.474  -0.938   2.973  0.00  0.00    +0.051 A 
ATOM     27  C   UNL     1       0.360   0.119   2.633  0.00  0.00    +0.028 A 
ATOM     28  C   UNL     1       1.262   0.610   3.556  0.00  0.00    +0.022 A 
ATOM     29  C   UNL     1       1.344   0.042   4.815  0.00  0.00    +0.041 A 
ATOM     30  C   UNL     1       0.517  -1.015   5.155  0.00  0.00    +0.022 A 
ATOM     31  C   UNL     1      -0.391  -1.506   4.237  0.00  0.00    +0.028 A 
ATOM     32 CL   UNL     1       2.484   0.656   5.971  0.00  0.00    -0.084 Cl
ENDBRANCH  25  26
BRANCH  24  33
ATOM     33  C   UNL     1      -2.906   0.601   1.813  0.00  0.00    +0.172 A 
ATOM     34  C   UNL     1      -4.114   1.153   1.507  0.00  0.00    +0.053 A 
ATOM     35  C   UNL     1      -4.087   2.478   1.984  0.00  0.00    +0.042 A 
ATOM     36  C   UNL     1      -2.876   2.672   2.543  0.00  0.00    +0.196 A 
ATOM     37  O   UNL     1      -2.165   1.538   2.438  0.00  0.00    -0.460 OA
ENDBRANCH  24  33
ENDBRANCH  20  21
ENDBRANCH   1  20
TORSDOF 7
