REMARK  Name = ZINC08790239
REMARK  8 active torsions:
REMARK  status: ('A' for Active; 'I' for Inactive)
REMARK    1  A    between atoms: C_1  and  C_2
REMARK    2  A    between atoms: C_16  and  C_18
REMARK    3  A    between atoms: C_18  and  C_19
REMARK    4  A    between atoms: C_19  and  S_20
REMARK    5  A    between atoms: S_20  and  C_21
REMARK    6  A    between atoms: N_24  and  C_27
REMARK    7  A    between atoms: C_27  and  C_28
REMARK    8  A    between atoms: C_28  and  C_29
REMARK                            x       y       z     vdW  Elec       q    Type
REMARK                         _______ _______ _______ _____ _____    ______ ____
ROOT
ATOM      1  C   UNL     1      -8.152  -5.354   2.590  0.00  0.00    +0.047 C 
ATOM      2  C   UNL     1      -7.224  -4.478   3.392  0.00  0.00    -0.011 A 
ATOM      3  C   UNL     1      -6.611  -4.979   4.523  0.00  0.00    +0.046 A 
ATOM      4  C   UNL     1      -5.758  -4.182   5.266  0.00  0.00    +0.020 A 
ATOM      5  C   UNL     1      -5.518  -2.877   4.873  0.00  0.00    +0.006 A 
ATOM      6  C   UNL     1      -6.128  -2.374   3.746  0.00  0.00    -0.027 A 
ATOM      7  C   UNL     1      -6.989  -3.166   2.990  0.00  0.00    +0.040 A 
ATOM      8  N   UNL     1      -7.482  -2.441   1.903  0.00  0.00    -0.286 N 
ATOM      9  C   UNL     1      -7.004  -1.182   1.873  0.00  0.00    +0.211 C 
ATOM     10  O   UNL     1      -7.261  -0.330   1.049  0.00  0.00    -0.277 OA
ATOM     11  C   UNL     1      -6.089  -1.038   3.058  0.00  0.00    +0.050 C 
ATOM     12  C   UNL     1      -6.551   0.088   3.990  0.00  0.00    +0.088 C 
ATOM     13  C   UNL     1      -5.663   1.304   3.605  0.00  0.00    +0.073 C 
ATOM     14  C   UNL     1      -4.766   0.791   2.458  0.00  0.00    -0.057 C 
ATOM     15  C   UNL     1      -6.657   2.299   3.050  0.00  0.00    +0.224 C 
ATOM     16  O   UNL     1      -6.383   3.403   2.630  0.00  0.00    -0.275 OA
ATOM     17  N   UNL     1      -7.886   1.772   3.095  0.00  0.00    -0.241 N 
ATOM     18  C   UNL     1      -7.942   0.536   3.603  0.00  0.00    +0.225 C 
ATOM     19  O   UNL     1      -8.951  -0.123   3.732  0.00  0.00    -0.275 OA
ATOM     20 CL   UNL     1      -6.912  -6.617   5.015  0.00  0.00    -0.083 Cl
ATOM     21  H   UNL     1      -8.098  -2.802   1.247  0.00  0.00    +0.155 HD
ATOM     22  N   UNL     1      -4.749  -0.661   2.646  0.00  0.00    +0.394 N 
ATOM     23  H   UNL     1      -4.503  -1.130   1.766  0.00  0.00    -0.083 HD
ATOM     24  H   UNL     1      -4.069  -0.917   3.372  0.00  0.00    -0.083 HD
ENDROOT
BRANCH  14  25
ATOM     25  C   UNL     1      -3.361   1.387   2.575  0.00  0.00    -0.004 C 
BRANCH  25  26
ATOM     26  C   UNL     1      -2.527   0.966   1.363  0.00  0.00    +0.067 C 
BRANCH  26  27
ATOM     27  S   UNL     1      -0.862   1.671   1.500  0.00  0.00    -0.164 S 
ATOM     28  C   UNL     1      -0.013   1.086   0.008  0.00  0.00    +0.084 C 
ENDBRANCH  26  27
ENDBRANCH  25  26
ENDBRANCH  14  25
BRANCH  17  29
ATOM     29  C   UNL     1      -9.074   2.491   2.628  0.00  0.00    +0.121 C 
BRANCH  29  30
ATOM     30  C   UNL     1      -9.675   3.292   3.785  0.00  0.00    +0.054 C 
BRANCH  30  31
ATOM     31  C   UNL     1     -10.896   4.031   3.304  0.00  0.00    -0.046 A 
ATOM     32  C   UNL     1     -10.774   5.310   2.794  0.00  0.00    +0.004 A 
ATOM     33  C   UNL     1     -11.894   5.987   2.348  0.00  0.00    +0.000 A 
ATOM     34  C   UNL     1     -13.138   5.388   2.422  0.00  0.00    +0.000 A 
ATOM     35  C   UNL     1     -13.261   4.111   2.936  0.00  0.00    +0.000 A 
ATOM     36  C   UNL     1     -12.140   3.432   3.377  0.00  0.00    +0.004 A 
ENDBRANCH  30  31
ENDBRANCH  29  30
ENDBRANCH  17  29
TORSDOF 6
