REMARK  Name = ZINC61887516
REMARK  5 active torsions:
REMARK  status: ('A' for Active; 'I' for Inactive)
REMARK    1  A    between atoms: C_4  and  O_21
REMARK    2  A    between atoms: C_5  and  C_7
REMARK    3  A    between atoms: N_9  and  C_10
REMARK    4  A    between atoms: C_15  and  C_17
REMARK    5  A    between atoms: N_18  and  O_19
REMARK                            x       y       z     vdW  Elec       q    Type
REMARK                         _______ _______ _______ _____ _____    ______ ____
ROOT
ATOM      1  C   UNL     1       1.035  -1.951  -0.214  0.00  0.00    +0.248 C 
ATOM      2  O   UNL     1       2.143  -2.446  -0.283  0.00  0.00    -0.270 OA
ATOM      3  N   UNL     1      -0.053  -2.742  -0.124  0.00  0.00    -0.308 N 
ATOM      4  H   UNL     1      -0.937  -2.347  -0.069  0.00  0.00    +0.149 HD
ENDROOT
BRANCH   1   9
ATOM      5  C   UNL     1      -0.529   1.460  -0.162  0.00  0.00    +0.001 A 
ATOM      6  C   UNL     1       0.588   2.274  -0.253  0.00  0.00    +0.004 A 
ATOM      7  C   UNL     1       1.851   1.721  -0.332  0.00  0.00    +0.046 A 
ATOM      8  C   UNL     1       2.008   0.343  -0.320  0.00  0.00    +0.129 A 
ATOM      9  C   UNL     1       0.880  -0.484  -0.227  0.00  0.00    +0.078 A 
ATOM     10  C   UNL     1      -0.392   0.089  -0.148  0.00  0.00    +0.017 A 
BRANCH   8  11
ATOM     11  O   UNL     1       3.248  -0.202  -0.398  0.00  0.00    -0.506 OA
ATOM     12  H   UNL     1       3.669  -0.345   0.461  0.00  0.00    +0.292 HD
ENDBRANCH   8  11
ENDBRANCH   1   9
BRANCH   3  13
ATOM     13  C   UNL     1       0.101  -4.199  -0.111  0.00  0.00    +0.083 C 
ATOM     14  C   UNL     1       0.330  -4.693   1.332  0.00  0.00    +0.023 C 
ATOM     15  C   UNL     1      -1.080  -5.109   1.820  0.00  0.00    +0.003 C 
ATOM     16  C   UNL     1      -1.705  -5.748   0.555  0.00  0.00    +0.013 C 
ATOM     17  C   UNL     1      -1.192  -4.870  -0.606  0.00  0.00    +0.076 C 
BRANCH  17  18
ATOM     18  C   UNL     1      -0.901  -5.726  -1.812  0.00  0.00    +0.136 C 
ATOM     19  N   UNL     1      -1.766  -5.810  -2.768  0.00  0.00    -0.076 NA
ATOM     20  N   UNL     1       0.286  -6.418  -1.895  0.00  0.00    -0.344 N 
ATOM     21  H   UNL     1       0.936  -6.354  -1.177  0.00  0.00    +0.144 HD
ATOM     22  H   UNL     1       0.474  -6.968  -2.671  0.00  0.00    +0.144 HD
BRANCH  19  23
ATOM     23  O   UNL     1      -2.938  -5.015  -2.736  0.00  0.00    -0.408 OA
ATOM     24  H   UNL     1      -3.524  -5.147  -3.493  0.00  0.00    +0.328 HD
ENDBRANCH  19  23
ENDBRANCH  17  18
ENDBRANCH   3  13
TORSDOF 5
