REMARK  Name = ZINC03766879
REMARK  6 active torsions:
REMARK  status: ('A' for Active; 'I' for Inactive)
REMARK    1  A    between atoms: C_1  and  N_2
REMARK    2  A    between atoms: N_7  and  C_10
REMARK    3  A    between atoms: N_15  and  C_16
REMARK    4  A    between atoms: C_16  and  C_17
REMARK    5  A    between atoms: C_17  and  S_18
REMARK    6  A    between atoms: S_18  and  C_19
REMARK                            x       y       z     vdW  Elec       q    Type
REMARK                         _______ _______ _______ _____ _____    ______ ____
ROOT
ATOM      1  C   UNL     1      -1.133   5.515   0.040  0.00  0.00    +0.155 C 
ATOM      2  N   UNL     1      -1.594   4.125   0.038  0.00  0.00    -0.280 N 
ATOM      3  C   UNL     1      -0.672   3.090   0.024  0.00  0.00    +0.170 A 
ATOM      4  C   UNL     1      -1.136   1.779   0.016  0.00  0.00    +0.150 A 
ATOM      5  C   UNL     1      -2.522   1.542   0.033  0.00  0.00    +0.282 A 
ATOM      6  O   UNL     1      -2.951   0.401   0.032  0.00  0.00    -0.265 OA
ATOM      7  N   UNL     1      -3.372   2.590   0.046  0.00  0.00    -0.262 N 
ATOM      8  C   UNL     1      -2.912   3.853   0.048  0.00  0.00    +0.333 A 
ATOM      9  O   UNL     1      -3.707   4.773   0.060  0.00  0.00    -0.246 OA
ATOM     10  C   UNL     1      -4.816   2.347   0.059  0.00  0.00    +0.157 C 
ATOM     11  N   UNL     1      -0.011   0.966   0.007  0.00  0.00    -0.321 N 
ATOM     12  H   UNL     1       0.003  -0.034   0.006  0.00  0.00    +0.169 HD
ATOM     13  C   UNL     1       1.069   1.792   0.002  0.00  0.00    +0.195 A 
ATOM     14  N   UNL     1       0.661   3.045   0.012  0.00  0.00    -0.196 NA
ATOM     15  N   UNL     1       2.382   1.383  -0.013  0.00  0.00    -0.314 N 
ATOM     16  H   UNL     1       3.095   2.041  -0.017  0.00  0.00    +0.149 HD
ENDROOT
BRANCH  15  17
ATOM     17  C   UNL     1       2.705  -0.046  -0.025  0.00  0.00    +0.115 C 
BRANCH  17  18
ATOM     18  C   UNL     1       4.224  -0.226  -0.040  0.00  0.00    +0.093 C 
BRANCH  18  19
ATOM     19  S   UNL     1       4.623  -1.996  -0.054  0.00  0.00    -0.124 S 
BRANCH  19  20
ATOM     20  C   UNL     1       6.385  -2.035  -0.071  0.00  0.00    +0.008 A 
ATOM     21  C   UNL     1       7.108  -0.849  -0.078  0.00  0.00    +0.016 A 
ATOM     22  C   UNL     1       8.488  -0.883  -0.086  0.00  0.00    +0.021 A 
ATOM     23  C   UNL     1       9.151  -2.097  -0.099  0.00  0.00    +0.041 A 
ATOM     24  C   UNL     1       8.434  -3.281  -0.099  0.00  0.00    +0.021 A 
ATOM     25  C   UNL     1       7.054  -3.253  -0.085  0.00  0.00    +0.016 A 
ATOM     26 CL   UNL     1      10.887  -2.136  -0.116  0.00  0.00    -0.084 Cl
ENDBRANCH  19  20
ENDBRANCH  18  19
ENDBRANCH  17  18
ENDBRANCH  15  17
TORSDOF 4
