REMARK  Name = ZINC36205563
REMARK  17 active torsions:
REMARK  status: ('A' for Active; 'I' for Inactive)
REMARK    1  A    between atoms: C_1  and  C_2
REMARK    2  A    between atoms: C_2  and  C_3
REMARK    3  A    between atoms: C_3  and  C_4
REMARK    4  A    between atoms: C_4  and  O_6
REMARK    5  A    between atoms: O_6  and  C_7
REMARK    6  A    between atoms: C_7  and  C_8
REMARK    7  A    between atoms: C_8  and  C_10
REMARK    8  A    between atoms: C_8  and  O_35
REMARK    9  A    between atoms: C_10  and  N_11
REMARK   10  A    between atoms: N_11  and  C_12
REMARK   11  A    between atoms: N_11  and  C_31
REMARK   12  A    between atoms: C_12  and  C_13
REMARK   13  A    between atoms: C_19  and  C_24
REMARK   14  A    between atoms: C_27  and  C_30
REMARK   15  A    between atoms: C_31  and  C_32
REMARK   16  A    between atoms: C_32  and  C_33
REMARK   17  A    between atoms: C_32  and  C_34
REMARK                            x       y       z     vdW  Elec       q    Type
REMARK                         _______ _______ _______ _____ _____    ______ ____
ROOT
ATOM      1  C   UNL     1       2.119  -7.961  -4.876  0.00  0.00    -0.003 C 
ENDROOT
BRANCH   1   2
ATOM      2  C   UNL     1       0.648  -8.062  -5.188  0.00  0.00    +0.094 A 
ATOM      3  N   UNL     1       0.064  -9.286  -5.259  0.00  0.00    -0.312 N 
ATOM      4  H   UNL     1       0.602 -10.079  -5.109  0.00  0.00    +0.170 HD
ATOM      5  C   UNL     1      -1.247  -9.421  -5.535  0.00  0.00    +0.260 A 
ATOM      6  O   UNL     1      -1.756 -10.527  -5.594  0.00  0.00    -0.267 OA
ATOM      7  C   UNL     1      -2.033  -8.245  -5.756  0.00  0.00    +0.080 A 
ATOM      8  C   UNL     1      -3.453  -8.130  -6.065  0.00  0.00    +0.004 A 
ATOM      9  C   UNL     1      -3.986  -6.896  -6.234  0.00  0.00    +0.056 A 
ATOM     10  S   UNL     1      -2.595  -5.809  -5.984  0.00  0.00    -0.076 S 
ATOM     11  C   UNL     1      -1.344  -7.025  -5.662  0.00  0.00    +0.116 A 
ATOM     12  N   UNL     1      -0.045  -6.972  -5.380  0.00  0.00    -0.229 NA
BRANCH   8  13
ATOM     13  C   UNL     1      -4.299  -9.341  -6.193  0.00  0.00    -0.017 A 
ATOM     14  C   UNL     1      -3.886 -10.400  -7.000  0.00  0.00    +0.009 A 
ATOM     15  C   UNL     1      -4.677 -11.525  -7.115  0.00  0.00    +0.004 A 
ATOM     16  C   UNL     1      -5.878 -11.603  -6.432  0.00  0.00    -0.050 A 
ATOM     17  C   UNL     1      -6.292 -10.555  -5.630  0.00  0.00    +0.004 A 
ATOM     18  C   UNL     1      -5.507  -9.427  -5.503  0.00  0.00    +0.009 A 
ATOM     19  C   UNL     1      -6.737 -12.834  -6.562  0.00  0.00    +0.044 C 
ENDBRANCH   8  13
ENDBRANCH   1   2
BRANCH   1  20
ATOM     20  N   UNL     1       2.487  -6.549  -4.709  0.00  0.00    +0.386 N 
ATOM     21  H   UNL     1       2.192  -6.026  -5.520  0.00  0.00    -0.081 HD
BRANCH  20  22
ATOM     22  C   UNL     1       1.829  -6.009  -3.512  0.00  0.00    -0.043 C 
BRANCH  22  23
ATOM     23  C   UNL     1       2.058  -4.498  -3.442  0.00  0.00    +0.136 C 
BRANCH  23  24
ATOM     24  O   UNL     1       3.438  -4.237  -3.180  0.00  0.00    -0.390 OA
ATOM     25  H   UNL     1       3.759  -4.613  -2.349  0.00  0.00    +0.210 HD
ENDBRANCH  23  24
BRANCH  23  26
ATOM     26  C   UNL     1       1.205  -3.904  -2.319  0.00  0.00    +0.261 C 
BRANCH  26  27
ATOM     27  O   UNL     1       1.329  -2.481  -2.328  0.00  0.00    -0.462 OA
BRANCH  27  28
ATOM     28  C   UNL     1       0.638  -1.803  -1.398  0.00  0.00    +0.307 C 
ATOM     29  O   UNL     1      -0.050  -2.399  -0.603  0.00  0.00    -0.251 OA
BRANCH  28  30
ATOM     30  C   UNL     1       0.719  -0.299  -1.346  0.00  0.00    +0.120 C 
BRANCH  30  32
ATOM     31  C   UNL     1      -0.073   1.747  -0.150  0.00  0.00    +0.004 C 
ATOM     32  C   UNL     1      -0.156   0.220  -0.203  0.00  0.00    +0.008 C 
ENDBRANCH  30  32
ENDBRANCH  28  30
ENDBRANCH  27  28
ENDBRANCH  26  27
ENDBRANCH  23  26
ENDBRANCH  22  23
ENDBRANCH  20  22
BRANCH  20  33
ATOM     33  C   UNL     1       3.944  -6.438  -4.559  0.00  0.00    -0.075 C 
BRANCH  33  34
ATOM     34  C   UNL     1       4.629  -6.943  -5.830  0.00  0.00    -0.034 C 
ATOM     35  C   UNL     1       4.253  -6.039  -7.006  0.00  0.00    +0.005 C 
ATOM     36  C   UNL     1       6.146  -6.922  -5.636  0.00  0.00    +0.005 C 
ENDBRANCH  33  34
ENDBRANCH  20  33
ENDBRANCH   1  20
TORSDOF 13
