REMARK  Name = ZINC61965755
REMARK  6 active torsions:
REMARK  status: ('A' for Active; 'I' for Inactive)
REMARK    1  A    between atoms: C_3  and  C_10
REMARK    2  A    between atoms: C_5  and  C_7
REMARK    3  A    between atoms: C_10  and  N_11
REMARK    4  A    between atoms: N_14  and  C_15
REMARK    5  A    between atoms: C_15  and  C_16
REMARK    6  A    between atoms: C_15  and  C_21
REMARK                            x       y       z     vdW  Elec       q    Type
REMARK                         _______ _______ _______ _____ _____    ______ ____
ROOT
ATOM      1  N   UNL     1       3.418   3.358   2.086  0.00  0.00    -0.295 N 
ATOM      2  C   UNL     1       4.550   4.032   2.370  0.00  0.00    +0.300 C 
ATOM      3  O   UNL     1       4.595   5.238   2.216  0.00  0.00    -0.253 OA
ATOM      4  N   UNL     1       5.633   3.370   2.824  0.00  0.00    -0.292 N 
ATOM      5  H   UNL     1       3.383   2.397   2.209  0.00  0.00    +0.151 HD
ATOM      6  H   UNL     1       5.575   2.422   3.019  0.00  0.00    +0.151 HD
ENDROOT
BRANCH   1   7
ATOM      7  C   UNL     1       2.242   4.078   1.593  0.00  0.00    +0.141 C 
BRANCH   7  10
ATOM      8  C   UNL     1      -0.805   1.915   2.162  0.00  0.00    +0.001 A 
ATOM      9  C   UNL     1       0.229   2.811   2.372  0.00  0.00    +0.005 A 
ATOM     10  C   UNL     1       1.119   3.101   1.354  0.00  0.00    -0.030 A 
ATOM     11  C   UNL     1       0.981   2.498   0.121  0.00  0.00    +0.018 A 
ATOM     12  C   UNL     1      -0.059   1.594  -0.098  0.00  0.00    +0.037 A 
ATOM     13  C   UNL     1      -0.954   1.305   0.934  0.00  0.00    +0.013 A 
BRANCH  12  14
ATOM     14  C   UNL     1      -0.212   0.944  -1.417  0.00  0.00    +0.242 C 
ATOM     15  O   UNL     1       0.568   1.198  -2.314  0.00  0.00    -0.270 OA
ATOM     16  N   UNL     1      -1.218   0.071  -1.626  0.00  0.00    -0.325 N 
ATOM     17  H   UNL     1      -1.841  -0.131  -0.910  0.00  0.00    +0.145 HD
ATOM     18  H   UNL     1      -1.319  -0.355  -2.491  0.00  0.00    +0.145 HD
ENDBRANCH  12  14
ENDBRANCH   7  10
ENDBRANCH   1   7
BRANCH   4  19
ATOM     19  C   UNL     1       6.898   4.083   3.022  0.00  0.00    +0.114 C 
BRANCH  19  20
ATOM     20  C   UNL     1       6.924   4.685   4.403  0.00  0.00    +0.010 A 
ATOM     21  C   UNL     1       7.386   5.897   4.797  0.00  0.00    +0.013 A 
ATOM     22  C   UNL     1       7.306   6.243   6.133  0.00  0.00    +0.008 A 
ATOM     23  C   UNL     1       6.769   5.359   7.010  0.00  0.00    +0.045 A 
ATOM     24  S   UNL     1       6.347   3.991   5.944  0.00  0.00    -0.100 S 
ENDBRANCH  19  20
BRANCH  19  25
ATOM     25  C   UNL     1       8.064   3.104   2.870  0.00  0.00    +0.014 C 
ATOM     26  C   UNL     1       9.402   3.840   3.088  0.00  0.00    +0.006 C 
ATOM     27  C   UNL     1      10.366   3.184   2.068  0.00  0.00    +0.000 C 
ATOM     28  C   UNL     1       9.456   2.957   0.835  0.00  0.00    +0.000 C 
ATOM     29  C   UNL     1       8.098   2.543   1.438  0.00  0.00    +0.006 C 
ENDBRANCH  19  25
ENDBRANCH   4  19
TORSDOF 6
