REMARK  Name = ZINC35344439
REMARK  4 active torsions:
REMARK  status: ('A' for Active; 'I' for Inactive)
REMARK    1  A    between atoms: C_4  and  N_11
REMARK    2  A    between atoms: C_5  and  C_7
REMARK    3  A    between atoms: N_11  and  C_12
REMARK    4  A    between atoms: C_17  and  N_18
REMARK                            x       y       z     vdW  Elec       q    Type
REMARK                         _______ _______ _______ _____ _____    ______ ____
ROOT
ATOM      1  N   UNL     1       3.620  -0.649  -0.036  0.00  0.00    -0.313 N 
ATOM      2  H   UNL     1       3.638  -1.600   0.153  0.00  0.00    +0.152 HD
ENDROOT
BRANCH   1   3
ATOM      3  C   UNL     1       4.821   0.067  -0.150  0.00  0.00    +0.054 A 
ATOM      4  C   UNL     1       4.931   1.317   0.453  0.00  0.00    +0.026 A 
ATOM      5  C   UNL     1       6.114   2.025   0.343  0.00  0.00    +0.019 A 
ATOM      6  C   UNL     1       7.165   1.488  -0.361  0.00  0.00    +0.041 A 
ATOM      7  C   UNL     1       7.093   0.225  -0.988  0.00  0.00    +0.101 A 
ATOM      8  C   UNL     1       5.876  -0.484  -0.856  0.00  0.00    +0.073 A 
ATOM      9  N   UNL     1       8.230  -0.122  -1.627  0.00  0.00    -0.246 NA
ATOM     10  C   UNL     1       9.276   0.650  -1.649  0.00  0.00    +0.157 A 
ATOM     11  S   UNL     1       8.815   2.003  -0.761  0.00  0.00    -0.075 S 
BRANCH   8  12
ATOM     12  N   UNL     1       5.736  -1.745  -1.447  0.00  0.00    -0.355 N 
ATOM     13  H   UNL     1       4.900  -2.231  -1.361  0.00  0.00    +0.142 HD
ATOM     14  H   UNL     1       6.474  -2.134  -1.942  0.00  0.00    +0.142 HD
ENDBRANCH   8  12
ENDBRANCH   1   3
BRANCH   1  18
ATOM     15  C   UNL     1      -0.024   1.308  -0.513  0.00  0.00    +0.001 A 
ATOM     16  C   UNL     1       1.159   1.988  -0.738  0.00  0.00    +0.002 A 
ATOM     17  C   UNL     1       2.369   1.343  -0.581  0.00  0.00    +0.024 A 
ATOM     18  C   UNL     1       2.397   0.007  -0.196  0.00  0.00    +0.043 A 
ATOM     19  C   UNL     1       1.207  -0.673   0.029  0.00  0.00    +0.076 A 
ATOM     20  C   UNL     1       0.000  -0.021  -0.130  0.00  0.00    +0.014 A 
BRANCH  19  21
ATOM     21  C   UNL     1       1.233  -2.121   0.446  0.00  0.00    +0.419 C 
ATOM     22  F   UNL     1      -0.078  -2.582   0.611  0.00  0.00    -0.166 F 
ATOM     23  F   UNL     1       1.873  -2.879  -0.540  0.00  0.00    -0.166 F 
ATOM     24  F   UNL     1       1.927  -2.246   1.654  0.00  0.00    -0.166 F 
ENDBRANCH  19  21
ENDBRANCH   1  18
TORSDOF 4
