REMARK  Name = ZINC06193796
REMARK  12 active torsions:
REMARK  status: ('A' for Active; 'I' for Inactive)
REMARK    1  A    between atoms: C_1  and  C_2
REMARK    2  A    between atoms: C_2  and  N_62
REMARK    3  A    between atoms: C_3  and  C_4
REMARK    4  A    between atoms: C_3  and  N_62
REMARK    5  A    between atoms: C_10  and  C_12
REMARK    6  A    between atoms: C_10  and  C_25
REMARK    7  A    between atoms: C_10  and  N_62
REMARK    8  A    between atoms: C_18  and  C_24
REMARK    9  A    between atoms: N_29  and  C_30
REMARK   10  A    between atoms: C_30  and  C_31
REMARK   11  A    between atoms: C_30  and  C_32
REMARK   12  A    between atoms: C_30  and  C_33
REMARK                            x       y       z     vdW  Elec       q    Type
REMARK                         _______ _______ _______ _____ _____    ______ ____
ROOT
ATOM      1  C   UNL     1       0.291  -3.383   4.719  0.00  0.00    +0.039 C 
ENDROOT
BRANCH   1   2
ATOM      2  C   UNL     1       0.858  -2.147   4.071  0.00  0.00    +0.011 A 
ATOM      3  C   UNL     1       0.206  -0.964   4.186  0.00  0.00    +0.017 A 
ATOM      4  C   UNL     1       0.784   0.219   3.544  0.00  0.00    -0.001 A 
ATOM      5  C   UNL     1       0.158   1.466   3.628  0.00  0.00    +0.010 A 
ATOM      6  C   UNL     1       0.723   2.550   3.018  0.00  0.00    +0.001 A 
ATOM      7  C   UNL     1       1.917   2.426   2.321  0.00  0.00    +0.005 A 
ATOM      8  C   UNL     1       2.548   1.205   2.219  0.00  0.00    -0.026 A 
ATOM      9  C   UNL     1       1.991   0.087   2.832  0.00  0.00    +0.052 A 
ATOM     10  N   UNL     1       2.604  -1.145   2.752  0.00  0.00    -0.322 N 
ATOM     11  H   UNL     1       3.462  -1.237   2.245  0.00  0.00    +0.169 HD
ATOM     12  C   UNL     1       2.066  -2.225   3.345  0.00  0.00    +0.251 A 
ATOM     13  O   UNL     1       2.636  -3.299   3.254  0.00  0.00    -0.268 OA
ATOM     14  C   UNL     1       3.840   1.083   1.452  0.00  0.00    +0.046 C 
ENDBRANCH   1   2
BRANCH   1  15
ATOM     15  C   UNL     1      -0.929  -3.014   5.524  0.00  0.00    +0.143 A 
ATOM     16  N   UNL     1      -0.969  -2.212   6.560  0.00  0.00    -0.115 NA
ATOM     17  N   UNL     1      -2.190  -2.151   6.969  0.00  0.00    -0.023 NA
ATOM     18  N   UNL     1      -2.929  -2.893   6.220  0.00  0.00    -0.043 NA
ATOM     19  N   UNL     1      -2.189  -3.437   5.314  0.00  0.00    -0.225 N 
BRANCH  19  20
ATOM     20  C   UNL     1      -2.636  -4.348   4.257  0.00  0.00    +0.059 C 
ATOM     21  C   UNL     1      -1.915  -5.690   4.402  0.00  0.00    +0.036 C 
ATOM     22  C   UNL     1      -4.146  -4.565   4.375  0.00  0.00    +0.036 C 
ATOM     23  C   UNL     1      -2.313  -3.741   2.890  0.00  0.00    +0.036 C 
ENDBRANCH  19  20
ENDBRANCH   1  15
BRANCH   1  24
ATOM     24  N   UNL     1       1.324  -3.982   5.590  0.00  0.00    +0.392 N 
ATOM     25  H   UNL     1       2.186  -4.109   5.046  0.00  0.00    -0.080 HD
BRANCH  24  27
ATOM     26  C   UNL     1       2.521  -1.958   6.255  0.00  0.00    -0.017 C 
ATOM     27  C   UNL     1       1.604  -3.086   6.731  0.00  0.00    -0.080 C 
ENDBRANCH  24  27
BRANCH  24  28
ATOM     28  C   UNL     1       0.868  -5.299   6.082  0.00  0.00    -0.042 C 
BRANCH  28  29
ATOM     29  C   UNL     1       1.999  -5.958   6.829  0.00  0.00    -0.064 A 
ATOM     30  C   UNL     1       2.962  -6.669   6.138  0.00  0.00    +0.002 A 
ATOM     31  C   UNL     1       4.003  -7.268   6.823  0.00  0.00    +0.000 A 
ATOM     32  C   UNL     1       4.074  -7.166   8.200  0.00  0.00    +0.000 A 
ATOM     33  C   UNL     1       3.107  -6.460   8.891  0.00  0.00    +0.000 A 
ATOM     34  C   UNL     1       2.070  -5.856   8.206  0.00  0.00    +0.002 A 
ENDBRANCH  28  29
ENDBRANCH  24  28
ENDBRANCH   1  24
TORSDOF 7
