REMARK  Name = ZINC18807860
REMARK  11 active torsions:
REMARK  status: ('A' for Active; 'I' for Inactive)
REMARK    1  A    between atoms: C_1  and  C_2
REMARK    2  A    between atoms: C_4  and  C_22
REMARK    3  A    between atoms: C_5  and  C_21
REMARK    4  A    between atoms: N_6  and  C_7
REMARK    5  A    between atoms: C_8  and  C_20
REMARK    6  A    between atoms: N_9  and  C_19
REMARK    7  A    between atoms: N_10  and  C_13
REMARK    8  A    between atoms: C_22  and  C_24
REMARK    9  A    between atoms: C_24  and  O_25
REMARK   10  A    between atoms: O_25  and  C_26
REMARK   11  A    between atoms: C_26  and  C_28
REMARK                            x       y       z     vdW  Elec       q    Type
REMARK                         _______ _______ _______ _____ _____    ______ ____
ROOT
ATOM      1  C   UNL     1       2.145   0.244  -4.757  0.00  0.00    +0.064 C 
ATOM      2  C   UNL     1       0.880   0.700  -4.077  0.00  0.00    +0.022 A 
ATOM      3  C   UNL     1       0.670   0.711  -2.749  0.00  0.00    +0.034 A 
ATOM      4  C   UNL     1      -0.690   1.229  -2.550  0.00  0.00    +0.042 A 
ATOM      5  C   UNL     1      -1.187   1.485  -3.816  0.00  0.00    +0.032 A 
ATOM      6  N   UNL     1      -0.235   1.168  -4.712  0.00  0.00    -0.311 N 
ATOM      7  C   UNL     1      -2.556   2.027  -4.135  0.00  0.00    +0.064 C 
ENDROOT
BRANCH   6   8
ATOM      8  C   UNL     1      -0.371   1.296  -6.107  0.00  0.00    +0.134 A 
ATOM      9  C   UNL     1      -0.843   0.355  -6.957  0.00  0.00    +0.062 A 
ATOM     10  N   UNL     1      -0.818   0.862  -8.227  0.00  0.00    -0.282 N 
ATOM     11  N   UNL     1      -0.315   2.167  -8.192  0.00  0.00    -0.215 N 
ATOM     12  C   UNL     1      -0.033   2.473  -6.908  0.00  0.00    +0.296 A 
ATOM     13  O   UNL     1       0.418   3.526  -6.496  0.00  0.00    -0.264 OA
ATOM     14  C   UNL     1      -1.251   0.151  -9.433  0.00  0.00    +0.171 C 
ATOM     15  C   UNL     1      -1.318  -1.022  -6.569  0.00  0.00    +0.067 C 
BRANCH  11  16
ATOM     16  C   UNL     1      -0.139   3.010  -9.294  0.00  0.00    +0.067 A 
ATOM     17  C   UNL     1       1.056   3.698  -9.461  0.00  0.00    +0.028 A 
ATOM     18  C   UNL     1       1.228   4.524 -10.554  0.00  0.00    +0.002 A 
ATOM     19  C   UNL     1       0.208   4.677 -11.475  0.00  0.00    +0.000 A 
ATOM     20  C   UNL     1      -0.985   3.998 -11.309  0.00  0.00    +0.002 A 
ATOM     21  C   UNL     1      -1.161   3.164 -10.222  0.00  0.00    +0.028 A 
ENDBRANCH  11  16
ENDBRANCH   6   8
BRANCH   4  22
ATOM     22  C   UNL     1      -1.379   1.429  -1.274  0.00  0.00    +0.202 C 
ATOM     23  O   UNL     1      -2.511   1.868  -1.258  0.00  0.00    -0.288 OA
BRANCH  22  24
ATOM     24  C   UNL     1      -0.685   1.089   0.019  0.00  0.00    +0.311 C 
BRANCH  24  25
ATOM     25  O   UNL     1      -1.571   1.374   1.134  0.00  0.00    -0.453 OA
BRANCH  25  26
ATOM     26  C   UNL     1      -1.098   1.123   2.370  0.00  0.00    +0.342 C 
ATOM     27  O   UNL     1       0.024   0.679   2.513  0.00  0.00    -0.245 OA
BRANCH  26  28
ATOM     28  C   UNL     1      -1.942   1.388   3.550  0.00  0.00    +0.094 A 
ATOM     29  C   UNL     1      -3.233   1.899   3.389  0.00  0.00    +0.019 A 
ATOM     30  C   UNL     1      -4.017   2.144   4.495  0.00  0.00    +0.021 A 
ATOM     31  C   UNL     1      -3.530   1.885   5.767  0.00  0.00    +0.044 A 
ATOM     32  C   UNL     1      -2.253   1.379   5.936  0.00  0.00    +0.059 A 
ATOM     33  C   UNL     1      -1.457   1.124   4.836  0.00  0.00    +0.139 A 
ATOM     34  F   UNL     1      -0.212   0.625   5.001  0.00  0.00    -0.205 F 
ATOM     35 CL   UNL     1      -4.526   2.197   7.154  0.00  0.00    -0.083 Cl
ENDBRANCH  26  28
ENDBRANCH  25  26
ENDBRANCH  24  25
ENDBRANCH  22  24
ENDBRANCH   4  22
TORSDOF 7
