REMARK  Name = ZINC45800194
REMARK  6 active torsions:
REMARK  status: ('A' for Active; 'I' for Inactive)
REMARK    1  A    between atoms: C_3  and  S_14
REMARK    2  A    between atoms: C_5  and  S_7
REMARK    3  A    between atoms: S_7  and  N_10
REMARK    4  A    between atoms: N_10  and  C_11
REMARK    5  A    between atoms: S_14  and  N_17
REMARK    6  A    between atoms: N_17  and  C_18
REMARK                            x       y       z     vdW  Elec       q    Type
REMARK                         _______ _______ _______ _____ _____    ______ ____
ROOT
ATOM      1  S   UNL     1       3.907   2.280  -0.023  0.00  0.00    +0.092 S 
ATOM      2  O   UNL     1       4.880   1.390  -0.553  0.00  0.00    -0.148 OA
ATOM      3  O   UNL     1       3.642   3.551  -0.600  0.00  0.00    -0.148 OA
ENDROOT
BRANCH   1   6
ATOM      4  C   UNL     1      -0.016   1.412  -0.017  0.00  0.00    +0.004 A 
ATOM      5  C   UNL     1       1.183   2.099  -0.026  0.00  0.00    +0.029 A 
ATOM      6  C   UNL     1       2.378   1.404  -0.009  0.00  0.00    +0.112 A 
ATOM      7  C   UNL     1       2.373   0.022   0.019  0.00  0.00    +0.057 A 
ATOM      8  C   UNL     1       1.174  -0.665   0.029  0.00  0.00    +0.107 A 
ATOM      9  C   UNL     1      -0.021   0.030   0.011  0.00  0.00    +0.028 A 
BRANCH   8  10
ATOM     10  S   UNL     1       1.168  -2.427   0.064  0.00  0.00    +0.059 S 
ATOM     11  O   UNL     1      -0.077  -2.840  -0.482  0.00  0.00    -0.153 OA
ATOM     12  O   UNL     1       2.413  -2.848  -0.477  0.00  0.00    -0.153 OA
BRANCH  10  13
ATOM     13  N   UNL     1       1.163  -2.886   1.655  0.00  0.00    -0.187 NA
ATOM     14  H   UNL     1       1.922  -3.364   2.024  0.00  0.00    +0.148 HD
BRANCH  13  15
ATOM     15  C   UNL     1       0.013  -2.570   2.505  0.00  0.00    +0.077 C 
ATOM     16  C   UNL     1       0.286  -2.266   3.979  0.00  0.00    +0.022 C 
ATOM     17  C   UNL     1      -0.373  -3.588   3.579  0.00  0.00    +0.022 C 
ENDBRANCH  13  15
ENDBRANCH  10  13
ENDBRANCH   8  10
ENDBRANCH   1   6
BRANCH   1  18
ATOM     18  N   UNL     1       4.327   2.556   1.555  0.00  0.00    -0.097 NA
BRANCH  18  19
ATOM     19  C   UNL     1       5.553   3.160   1.857  0.00  0.00    +0.092 A 
ATOM     20  C   UNL     1       6.354   3.654   0.837  0.00  0.00    +0.077 A 
ATOM     21  C   UNL     1       7.568   4.253   1.137  0.00  0.00    +0.164 A 
ATOM     22  C   UNL     1       7.981   4.359   2.460  0.00  0.00    +0.163 A 
ATOM     23  C   UNL     1       7.180   3.862   3.477  0.00  0.00    +0.066 A 
ATOM     24  C   UNL     1       5.967   3.270   3.179  0.00  0.00    +0.046 A 
ATOM     25 BR   UNL     1       4.874   2.603   4.570  0.00  0.00    -0.048 Br
ATOM     26  O   UNL     1       9.167   4.951   2.774  0.00  0.00    -0.485 OA
ATOM     27  C   UNL     1      10.113   5.101   1.710  0.00  0.00    +0.270 C 
ATOM     28  C   UNL     1       9.374   5.656   0.484  0.00  0.00    +0.270 C 
ATOM     29  O   UNL     1       8.344   4.729   0.124  0.00  0.00    -0.485 OA
ENDBRANCH  18  19
ENDBRANCH   1  18
TORSDOF 6
