REMARK  Name = ZINC01097784
REMARK  3 active torsions:
REMARK  status: ('A' for Active; 'I' for Inactive)
REMARK    1  A    between atoms: C_4  and  N_19
REMARK    2  A    between atoms: C_6  and  C_7
REMARK    3  A    between atoms: N_9  and  C_10
REMARK                            x       y       z     vdW  Elec       q    Type
REMARK                         _______ _______ _______ _____ _____    ______ ____
ROOT
ATOM      1  C   UNL     1      -1.221  -2.007  -0.396  0.00  0.00    +0.248 C 
ATOM      2  O   UNL     1      -0.183  -2.571  -0.682  0.00  0.00    -0.270 OA
ATOM      3  N   UNL     1      -1.201  -0.722   0.010  0.00  0.00    -0.278 N 
ATOM      4  H   UNL     1      -2.019  -0.294   0.306  0.00  0.00    +0.155 HD
ENDROOT
BRANCH   3   5
ATOM      5  C   UNL     1       0.003  -0.005   0.005  0.00  0.00    +0.084 A 
ATOM      6  C   UNL     1       0.867  -0.086   1.091  0.00  0.00    +0.148 A 
ATOM      7  C   UNL     1       2.054   0.623   1.083  0.00  0.00    +0.078 A 
ATOM      8  C   UNL     1       2.381   1.414  -0.006  0.00  0.00    +0.127 A 
ATOM      9  C   UNL     1       1.522   1.496  -1.088  0.00  0.00    +0.055 A 
ATOM     10  C   UNL     1       0.334   0.789  -1.085  0.00  0.00    +0.045 A 
ATOM     11 BR   UNL     1      -0.835   0.896  -2.568  0.00  0.00    -0.048 Br
ATOM     12  F   UNL     1       3.542   2.106  -0.013  0.00  0.00    -0.205 F 
ATOM     13  F   UNL     1       0.548  -0.858   2.153  0.00  0.00    -0.203 F 
ENDBRANCH   3   5
BRANCH   1  19
ATOM     14  C   UNL     1      -3.699  -2.088  -0.159  0.00  0.00    +0.014 A 
ATOM     15  C   UNL     1      -4.896  -2.768  -0.256  0.00  0.00    +0.023 A 
ATOM     16  C   UNL     1      -4.913  -4.088  -0.673  0.00  0.00    +0.071 A 
ATOM     17  C   UNL     1      -3.732  -4.733  -1.001  0.00  0.00    +0.145 A 
ATOM     18  C   UNL     1      -2.530  -4.063  -0.913  0.00  0.00    +0.047 A 
ATOM     19  C   UNL     1      -2.506  -2.731  -0.493  0.00  0.00    +0.039 A 
ATOM     20 CL   UNL     1      -6.422  -4.939  -0.786  0.00  0.00    -0.081 Cl
BRANCH  17  21
ATOM     21  N   UNL     1      -3.759  -6.144  -1.446  0.00  0.00    +0.058 N 
ATOM     22  O   UNL     1      -2.721  -6.712  -1.735  0.00  0.00    -0.126 OA
ATOM     23  O   UNL     1      -4.820  -6.738  -1.524  0.00  0.00    -0.126 OA
ENDBRANCH  17  21
ENDBRANCH   1  19
TORSDOF 3
