REMARK  Name = ZINC24545666
REMARK  6 active torsions:
REMARK  status: ('A' for Active; 'I' for Inactive)
REMARK    1  A    between atoms: C_1  and  O_2
REMARK    2  A    between atoms: O_2  and  C_3
REMARK    3  A    between atoms: C_8  and  N_9
REMARK    4  A    between atoms: C_10  and  C_12
REMARK    5  A    between atoms: C_12  and  N_13
REMARK    6  A    between atoms: N_21  and  C_24
REMARK                            x       y       z     vdW  Elec       q    Type
REMARK                         _______ _______ _______ _____ _____    ______ ____
ROOT
ATOM      1  N   UNL     1       2.509  -4.031  -0.145  0.00  0.00    -0.283 N 
ATOM      2  C   UNL     1       1.345  -4.814  -0.076  0.00  0.00    +0.070 A 
ATOM      3  C   UNL     1       1.237  -6.213  -0.116  0.00  0.00    -0.013 A 
ATOM      4  C   UNL     1      -0.010  -6.751  -0.031  0.00  0.00    -0.004 A 
ATOM      5  S   UNL     1      -1.074  -5.402   0.105  0.00  0.00    -0.086 S 
ATOM      6  C   UNL     1       0.144  -4.114   0.049  0.00  0.00    +0.101 A 
ATOM      7  C   UNL     1       0.111  -2.717   0.101  0.00  0.00    +0.275 A 
ATOM      8  O   UNL     1      -0.949  -2.127   0.210  0.00  0.00    -0.266 OA
ATOM      9  N   UNL     1       1.275  -2.032   0.029  0.00  0.00    -0.228 N 
ATOM     10  C   UNL     1       2.438  -2.692  -0.097  0.00  0.00    +0.337 A 
ATOM     11  O   UNL     1       3.469  -2.050  -0.165  0.00  0.00    -0.246 OA
ATOM     12  C   UNL     1      -0.371  -8.205  -0.053  0.00  0.00    +0.043 C 
ATOM     13  C   UNL     1       0.843  -8.998  -0.559  0.00  0.00    +0.005 C 
ATOM     14  C   UNL     1       2.089  -8.526   0.197  0.00  0.00    +0.005 C 
ATOM     15  C   UNL     1       2.464  -7.112  -0.249  0.00  0.00    +0.038 C 
ENDROOT
BRANCH   9  16
ATOM     16  C   UNL     1       1.266  -0.632   0.079  0.00  0.00    +0.056 A 
ATOM     17  C   UNL     1       0.679   0.098  -0.947  0.00  0.00    +0.026 A 
ATOM     18  C   UNL     1       0.673   1.478  -0.896  0.00  0.00    +0.003 A 
ATOM     19  C   UNL     1       1.250   2.134   0.175  0.00  0.00    +0.020 A 
ATOM     20  C   UNL     1       1.836   1.411   1.199  0.00  0.00    +0.043 A 
ATOM     21  C   UNL     1       1.845   0.029   1.153  0.00  0.00    +0.046 A 
ATOM     22 CL   UNL     1       2.554   2.239   2.546  0.00  0.00    -0.083 Cl
ENDBRANCH   9  16
BRANCH   1  23
ATOM     23  C   UNL     1       3.814  -4.683  -0.278  0.00  0.00    +0.222 C 
BRANCH  23  25
ATOM     24  N   UNL     1       5.532  -5.654   1.214  0.00  0.00    -0.281 N 
ATOM     25  C   UNL     1       4.338  -5.040   1.089  0.00  0.00    +0.237 C 
ATOM     26  O   UNL     1       3.686  -4.776   2.077  0.00  0.00    -0.274 OA
ATOM     27  H   UNL     1       6.154  -5.834   0.325  0.00  0.00    +0.155 HD
BRANCH  24  33
ATOM     28  C   UNL     1       6.742  -7.222   2.606  0.00  0.00    +0.141 A 
ATOM     29  C   UNL     1       7.183  -7.622   3.858  0.00  0.00    +0.047 A 
ATOM     30  C   UNL     1       6.867  -6.870   4.974  0.00  0.00    +0.004 A 
ATOM     31  C   UNL     1       6.112  -5.719   4.847  0.00  0.00    +0.002 A 
ATOM     32  C   UNL     1       5.673  -5.311   3.602  0.00  0.00    +0.027 A 
ATOM     33  C   UNL     1       5.981  -6.063   2.477  0.00  0.00    +0.076 A 
BRANCH  28  35
ATOM     34  C   UNL     1       7.835  -9.137   1.715  0.00  0.00    +0.277 C 
ATOM     35  O   UNL     1       7.051  -7.960   1.507  0.00  0.00    -0.493 OA
ENDBRANCH  28  35
ENDBRANCH  24  33
ENDBRANCH  23  25
ENDBRANCH   1  23
TORSDOF 5
