REMARK  Name = ZINC08724397
REMARK  5 active torsions:
REMARK  status: ('A' for Active; 'I' for Inactive)
REMARK    1  A    between atoms: C_6  and  C_7
REMARK    2  A    between atoms: C_12  and  C_13
REMARK    3  A    between atoms: C_12  and  N_57
REMARK    4  A    between atoms: N_15  and  C_16
REMARK    5  A    between atoms: N_20  and  C_21
REMARK                            x       y       z     vdW  Elec       q    Type
REMARK                         _______ _______ _______ _____ _____    ______ ____
ROOT
ATOM      1  C   UNL     1      -4.885   1.087   0.288  0.00  0.00    -0.037 C 
ATOM      2  C   UNL     1      -5.943   1.866  -0.532  0.00  0.00    -0.013 C 
ATOM      3  C   UNL     1      -5.139   2.238  -1.807  0.00  0.00    -0.020 C 
ATOM      4  C   UNL     1      -3.721   2.501  -1.259  0.00  0.00    -0.077 C 
ATOM      5  N   UNL     1      -3.621   1.807   0.035  0.00  0.00    +0.390 N 
ATOM      6  H   UNL     1      -3.469   2.498   0.780  0.00  0.00    -0.080 HD
ENDROOT
BRANCH   1  12
ATOM      7  C   UNL     1      -4.989   2.287   2.481  0.00  0.00    +0.006 A 
ATOM      8  C   UNL     1      -5.300   2.334   3.827  0.00  0.00    +0.049 A 
ATOM      9  C   UNL     1      -5.835   1.220   4.456  0.00  0.00    +0.162 A 
ATOM     10  C   UNL     1      -6.066   0.059   3.728  0.00  0.00    +0.162 A 
ATOM     11  C   UNL     1      -5.756   0.019   2.377  0.00  0.00    +0.051 A 
ATOM     12  C   UNL     1      -5.221   1.133   1.756  0.00  0.00    -0.057 A 
ATOM     13  O   UNL     1      -6.599  -1.042   4.324  0.00  0.00    -0.485 OA
ATOM     14  C   UNL     1      -6.549  -1.088   5.754  0.00  0.00    +0.270 C 
ATOM     15  C   UNL     1      -7.008   0.273   6.295  0.00  0.00    +0.270 C 
ATOM     16  O   UNL     1      -6.126   1.279   5.785  0.00  0.00    -0.485 OA
ENDBRANCH   1  12
BRANCH   5  17
ATOM     17  C   UNL     1      -2.482   0.853   0.018  0.00  0.00    +0.020 C 
BRANCH  17  18
ATOM     18  C   UNL     1      -1.187   1.624   0.017  0.00  0.00    +0.202 C 
ATOM     19  O   UNL     1      -1.204   2.837   0.023  0.00  0.00    -0.278 OA
ATOM     20  N   UNL     1      -0.011   0.966   0.007  0.00  0.00    -0.272 N 
ATOM     21  H   UNL     1       0.002  -0.004   0.002  0.00  0.00    +0.156 HD
BRANCH  20  22
ATOM     22  C   UNL     1       1.187   1.680  -0.000  0.00  0.00    +0.123 A 
ATOM     23  C   UNL     1       1.316   3.034  -0.000  0.00  0.00    +0.065 A 
ATOM     24  C   UNL     1       2.681   3.334  -0.007  0.00  0.00    +0.136 A 
ATOM     25  N   UNL     1       3.349   2.209  -0.019  0.00  0.00    -0.178 NA
ATOM     26  N   UNL     1       2.432   1.151  -0.015  0.00  0.00    -0.247 N 
BRANCH  26  27
ATOM     27  C   UNL     1       2.763  -0.276  -0.024  0.00  0.00    +0.109 C 
ATOM     28  C   UNL     1       3.644  -0.622   1.193  0.00  0.00    +0.027 C 
ATOM     29  C   UNL     1       4.643  -1.676   0.651  0.00  0.00    +0.002 C 
ATOM     30  C   UNL     1       4.943  -1.160  -0.778  0.00  0.00    +0.002 C 
ATOM     31  C   UNL     1       3.588  -0.618  -1.277  0.00  0.00    +0.027 C 
ENDBRANCH  26  27
ENDBRANCH  20  22
ENDBRANCH  17  18
ENDBRANCH   5  17
TORSDOF 5
