REMARK  Name = ZINC12642093
REMARK  8 active torsions:
REMARK  status: ('A' for Active; 'I' for Inactive)
REMARK    1  A    between atoms: C_1  and  C_2
REMARK    2  A    between atoms: C_2  and  C_3
REMARK    3  A    between atoms: C_2  and  C_4
REMARK    4  A    between atoms: C_2  and  N_5
REMARK    5  A    between atoms: C_6  and  C_8
REMARK    6  A    between atoms: C_16  and  C_28
REMARK    7  A    between atoms: N_22  and  C_23
REMARK    8  A    between atoms: N_30  and  C_31
REMARK                            x       y       z     vdW  Elec       q    Type
REMARK                         _______ _______ _______ _____ _____    ______ ____
ROOT
ATOM      1  C   UNL     1       1.331   4.723   0.890  0.00  0.00    +0.199 C 
ATOM      2  C   UNL     1       0.758   3.433   0.389  0.00  0.00    +0.127 C 
ATOM      3  C   UNL     1      -0.211   3.627  -0.764  0.00  0.00    +0.009 C 
ATOM      4  C   UNL     1      -0.620   2.412  -1.097  0.00  0.00    +0.004 C 
ATOM      5  C   UNL     1       0.062   1.473  -0.094  0.00  0.00    +0.155 C 
ATOM      6  O   UNL     1       1.351   2.181   0.137  0.00  0.00    -0.358 OA
ATOM      7  C   UNL     1      -0.719   1.763   1.246  0.00  0.00    +0.122 C 
ATOM      8  C   UNL     1      -0.068   3.061   1.685  0.00  0.00    +0.128 C 
ATOM      9  C   UNL     1      -0.727   4.351   1.956  0.00  0.00    +0.224 C 
ATOM     10  O   UNL     1      -1.834   4.512   2.424  0.00  0.00    -0.275 OA
ATOM     11  N   UNL     1       0.153   5.337   1.579  0.00  0.00    -0.283 N 
ENDROOT
BRANCH  11  12
ATOM     12  C   UNL     1      -0.034   6.771   1.815  0.00  0.00    +0.077 C 
ATOM     13  C   UNL     1      -0.215   7.039   3.323  0.00  0.00    +0.022 C 
ATOM     14  C   UNL     1      -1.266   8.174   3.384  0.00  0.00    +0.002 C 
ATOM     15  C   UNL     1      -2.240   7.801   2.238  0.00  0.00    +0.002 C 
ATOM     16  C   UNL     1      -1.321   7.255   1.125  0.00  0.00    +0.022 C 
ENDBRANCH  11  12
BRANCH   1  18
ATOM     17  N   UNL     1       2.985   5.345  -0.841  0.00  0.00    -0.309 N 
ATOM     18  C   UNL     1       1.796   5.586  -0.255  0.00  0.00    +0.237 C 
ATOM     19  O   UNL     1       1.099   6.497  -0.649  0.00  0.00    -0.274 OA
ATOM     20  H   UNL     1       3.542   4.616  -0.526  0.00  0.00    +0.149 HD
BRANCH  17  22
ATOM     21  C   UNL     1       3.543   7.637  -1.486  0.00  0.00    +0.031 C 
ATOM     22  C   UNL     1       3.437   6.184  -1.953  0.00  0.00    +0.026 C 
ATOM     23  C   UNL     1       4.808   5.701  -2.432  0.00  0.00    +0.031 C 
ATOM     24  C   UNL     1       2.433   6.090  -3.103  0.00  0.00    +0.031 C 
ENDBRANCH  17  22
ENDBRANCH   1  18
BRANCH   7  25
ATOM     25  C   UNL     1      -2.187   1.977   0.982  0.00  0.00    +0.220 C 
ATOM     26  O   UNL     1      -2.578   3.045   0.561  0.00  0.00    -0.275 OA
ATOM     27  N   UNL     1      -3.065   0.981   1.212  0.00  0.00    -0.312 N 
ATOM     28  H   UNL     1      -2.753   0.127   1.549  0.00  0.00    +0.149 HD
BRANCH  27  29
ATOM     29  C   UNL     1      -4.492   1.190   0.955  0.00  0.00    +0.073 C 
ATOM     30  C   UNL     1      -5.140   1.846   2.176  0.00  0.00    +0.022 C 
ATOM     31  C   UNL     1      -6.631   2.064   1.907  0.00  0.00    +0.002 C 
ATOM     32  C   UNL     1      -7.302   0.716   1.637  0.00  0.00    +0.000 C 
ATOM     33  C   UNL     1      -6.654   0.059   0.416  0.00  0.00    +0.002 C 
ATOM     34  C   UNL     1      -5.164  -0.158   0.685  0.00  0.00    +0.022 C 
ENDBRANCH  27  29
ENDBRANCH   7  25
TORSDOF 5
