REMARK  Name = ZINC05586314
REMARK  6 active torsions:
REMARK  status: ('A' for Active; 'I' for Inactive)
REMARK    1  A    between atoms: C_1  and  N_2
REMARK    2  A    between atoms: N_2  and  C_3
REMARK    3  A    between atoms: N_2  and  C_4
REMARK    4  A    between atoms: C_7  and  C_10
REMARK    5  A    between atoms: N_11  and  N_12
REMARK    6  A    between atoms: C_13  and  C_15
REMARK                            x       y       z     vdW  Elec       q    Type
REMARK                         _______ _______ _______ _____ _____    ______ ____
ROOT
ATOM      1  N   UNL     1      -0.011   0.965   0.000  0.00  0.00    -0.200 N 
ATOM      2  C   UNL     1       1.147   1.655  -0.021  0.00  0.00    +0.299 C 
ATOM      3  O   UNL     1       1.130   2.872  -0.028  0.00  0.00    -0.265 OA
ATOM      4  H   UNL     1       0.002  -0.005   0.005  0.00  0.00    +0.178 HD
ENDROOT
BRANCH   2   5
ATOM      5  C   UNL     1       2.428   0.938  -0.036  0.00  0.00    +0.192 A 
ATOM      6  C   UNL     1       3.653   1.525  -0.058  0.00  0.00    +0.063 A 
ATOM      7  C   UNL     1       4.626   0.434  -0.066  0.00  0.00    +0.022 A 
ATOM      8  C   UNL     1       6.022   0.374  -0.086  0.00  0.00    +0.027 A 
ATOM      9  C   UNL     1       6.648  -0.842  -0.088  0.00  0.00    +0.019 A 
ATOM     10  C   UNL     1       5.905  -2.015  -0.070  0.00  0.00    +0.019 A 
ATOM     11  C   UNL     1       4.527  -1.977  -0.050  0.00  0.00    +0.048 A 
ATOM     12  C   UNL     1       3.869  -0.752  -0.048  0.00  0.00    +0.136 A 
ATOM     13  O   UNL     1       2.567  -0.405  -0.024  0.00  0.00    -0.450 OA
ATOM     14 BR   UNL     1       8.537  -0.926  -0.117  0.00  0.00    -0.050 Br
ENDBRANCH   2   5
BRANCH   1  16
ATOM     15  C   UNL     1      -2.349   0.985   0.023  0.00  0.00    +0.138 C 
ATOM     16  N   UNL     1      -1.234   1.649   0.008  0.00  0.00    -0.187 NA
BRANCH  15  20
ATOM     17  C   UNL     1      -6.054   3.058   0.049  0.00  0.00    +0.029 A 
ATOM     18  C   UNL     1      -6.038   1.667   0.056  0.00  0.00    +0.024 A 
ATOM     19  C   UNL     1      -4.838   0.991   0.048  0.00  0.00    +0.011 A 
ATOM     20  C   UNL     1      -3.636   1.704   0.032  0.00  0.00    -0.005 A 
ATOM     21  C   UNL     1      -3.656   3.102   0.030  0.00  0.00    +0.011 A 
ATOM     22  C   UNL     1      -4.861   3.771   0.032  0.00  0.00    +0.024 A 
BRANCH  17  24
ATOM     23  C   UNL     1      -8.528   2.994  -0.052  0.00  0.00    +0.129 C 
ATOM     24  N   UNL     1      -7.272   3.739   0.057  0.00  0.00    -0.336 N 
ATOM     25  C   UNL     1      -7.293   5.199   0.176  0.00  0.00    +0.129 C 
ENDBRANCH  17  24
ENDBRANCH  15  20
ENDBRANCH   1  16
TORSDOF 4
