REMARK  Name = ZINC43736951
REMARK  4 active torsions:
REMARK  status: ('A' for Active; 'I' for Inactive)
REMARK    1  A    between atoms: C_1  and  C_2
REMARK    2  A    between atoms: C_5  and  O_27
REMARK    3  A    between atoms: C_18  and  C_26
REMARK    4  A    between atoms: N_24  and  N_25
REMARK                            x       y       z     vdW  Elec       q    Type
REMARK                         _______ _______ _______ _____ _____    ______ ____
ROOT
ATOM      1  C   UNL     1       0.032   1.464  -0.127  0.00  0.00    +0.012 C 
ATOM      2  C   UNL     1       0.027  -0.072  -0.124  0.00  0.00    -0.026 C 
ATOM      3  C   UNL     1       0.707  -0.555  -1.408  0.00  0.00    +0.010 C 
ATOM      4  C   UNL     1       2.162  -0.092  -1.447  0.00  0.00    +0.032 C 
ATOM      5  C   UNL     1       2.917  -0.622  -0.229  0.00  0.00    +0.115 C 
ATOM      6  C   UNL     1       2.244  -0.148   1.060  0.00  0.00    +0.035 C 
ATOM      7  C   UNL     1       0.786  -0.597   1.086  0.00  0.00    -0.002 C 
ATOM      8  C   UNL     1       0.106  -0.104   2.365  0.00  0.00    +0.004 C 
ATOM      9  C   UNL     1      -1.306  -0.676   2.416  0.00  0.00    +0.004 C 
ATOM     10  C   UNL     1      -2.144  -0.234   1.208  0.00  0.00    -0.003 C 
ATOM     11  C   UNL     1      -1.425  -0.527  -0.104  0.00  0.00    -0.001 C 
ATOM     12  C   UNL     1      -1.611  -1.987  -0.495  0.00  0.00    +0.005 C 
ATOM     13  C   UNL     1      -3.064  -2.215  -0.952  0.00  0.00    +0.013 C 
ATOM     14  C   UNL     1      -3.995  -1.343  -0.145  0.00  0.00    +0.011 C 
ATOM     15  C   UNL     1      -3.421  -1.058   1.254  0.00  0.00    +0.004 C 
ATOM     16  C   UNL     1      -4.616  -0.374   1.941  0.00  0.00    +0.010 C 
ATOM     17  C   UNL     1      -5.826  -1.190   1.409  0.00  0.00    +0.053 C 
ATOM     18  C   UNL     1      -5.319  -1.996   0.218  0.00  0.00    +0.042 C 
ATOM     19  N   UNL     1      -5.870  -2.989  -0.356  0.00  0.00    -0.198 NA
ATOM     20  C   UNL     1      -4.340  -0.061  -0.907  0.00  0.00    +0.018 C 
ENDROOT
BRANCH  19  21
ATOM     21  N   UNL     1      -7.101  -3.471   0.107  0.00  0.00    -0.283 N 
ATOM     22  H   UNL     1      -7.534  -3.048   0.865  0.00  0.00    +0.164 HD
ATOM     23  H   UNL     1      -7.521  -4.229  -0.331  0.00  0.00    +0.164 HD
ENDBRANCH  19  21
BRANCH   5  24
ATOM     24  O   UNL     1       2.940  -2.051  -0.262  0.00  0.00    -0.392 OA
ATOM     25  H   UNL     1       3.371  -2.420  -1.045  0.00  0.00    +0.210 HD
ENDBRANCH   5  24
TORSDOF 2
