REMARK  Name = ZINC39670475
REMARK  8 active torsions:
REMARK  status: ('A' for Active; 'I' for Inactive)
REMARK    1  A    between atoms: C_1  and  C_2
REMARK    2  A    between atoms: C_7  and  C_11
REMARK    3  A    between atoms: C_11  and  N_12
REMARK    4  A    between atoms: C_13  and  C_15
REMARK    5  A    between atoms: C_26  and  C_28
REMARK    6  A    between atoms: C_28  and  C_30
REMARK    7  A    between atoms: C_28  and  O_31
REMARK    8  A    between atoms: O_31  and  C_32
REMARK                            x       y       z     vdW  Elec       q    Type
REMARK                         _______ _______ _______ _____ _____    ______ ____
ROOT
ATOM      1  C   UNL     1       2.837  -8.201   3.849  0.00  0.00    +0.100 C 
ATOM      2  C   UNL     1       3.635  -6.943   4.259  0.00  0.00    +0.121 C 
ATOM      3  N   UNL     1       3.999  -7.176   5.676  0.00  0.00    -0.297 N 
ATOM      4  C   UNL     1       4.339  -8.618   5.737  0.00  0.00    +0.115 C 
ATOM      5  C   UNL     1       3.304  -9.299   4.819  0.00  0.00    -0.004 C 
ATOM      6  C   UNL     1       3.954 -10.444   4.047  0.00  0.00    -0.010 C 
ATOM      7  C   UNL     1       4.357 -11.549   5.027  0.00  0.00    -0.082 C 
ATOM      8  N   UNL     1       3.169 -12.028   5.744  0.00  0.00    +0.379 N 
ATOM      9  C   UNL     1       2.604 -10.944   6.557  0.00  0.00    -0.082 C 
ATOM     10  C   UNL     1       2.127  -9.813   5.642  0.00  0.00    -0.010 C 
ATOM     11  C   UNL     1       4.019  -6.280   6.682  0.00  0.00    +0.256 C 
ATOM     12  O   UNL     1       4.343  -6.628   7.798  0.00  0.00    -0.272 OA
ATOM     13  H   UNL     1       2.480 -12.341   5.078  0.00  0.00    -0.086 HD
ATOM     14  H   UNL     1       3.427 -12.797   6.344  0.00  0.00    -0.086 HD
ENDROOT
BRANCH   1  16
ATOM     15  N   UNL     1       0.480  -8.618   3.224  0.00  0.00    -0.309 N 
ATOM     16  C   UNL     1       1.358  -7.957   4.005  0.00  0.00    +0.219 C 
ATOM     17  O   UNL     1       0.957  -7.167   4.833  0.00  0.00    -0.275 OA
ATOM     18  H   UNL     1       0.800  -9.250   2.562  0.00  0.00    +0.149 HD
BRANCH  15  19
ATOM     19  C   UNL     1      -0.958  -8.381   3.376  0.00  0.00    +0.159 C 
BRANCH  19  26
ATOM     20  C   UNL     1      -4.640 -11.443  -2.253  0.00  0.00    +0.045 C 
ATOM     21  C   UNL     1      -3.963 -11.270  -0.918  0.00  0.00    -0.034 A 
ATOM     22  C   UNL     1      -3.925 -12.341  -0.009  0.00  0.00    +0.008 A 
ATOM     23  C   UNL     1      -3.313 -12.181   1.195  0.00  0.00    +0.045 A 
ATOM     24  C   UNL     1      -2.725 -10.940   1.512  0.00  0.00    +0.115 A 
ATOM     25  N   UNL     1      -2.078 -10.507   2.584  0.00  0.00    -0.342 N 
ATOM     26  C   UNL     1      -1.714  -9.236   2.393  0.00  0.00    +0.051 A 
ATOM     27  C   UNL     1      -2.138  -8.845   1.171  0.00  0.00    +0.115 A 
ATOM     28  N   UNL     1      -2.779  -9.914   0.605  0.00  0.00    -0.308 N 
ATOM     29  C   UNL     1      -3.392 -10.089  -0.602  0.00  0.00    +0.096 A 
ATOM     30  H   UNL     1      -1.897 -11.030   3.381  0.00  0.00    +0.167 HD
ENDBRANCH  19  26
ENDBRANCH  15  19
ENDBRANCH   1  16
BRANCH  11  31
ATOM     31  C   UNL     1       3.637  -4.846   6.421  0.00  0.00    +0.256 C 
ATOM     32  C   UNL     1       4.656  -4.212   5.472  0.00  0.00    +0.062 C 
BRANCH  31  33
ATOM     33  O   UNL     1       3.623  -4.125   7.655  0.00  0.00    -0.480 OA
BRANCH  33  34
ATOM     34  C   UNL     1       2.832  -3.022   7.716  0.00  0.00    +0.122 A 
ATOM     35  C   UNL     1       2.168  -2.579   6.580  0.00  0.00    +0.045 A 
ATOM     36  C   UNL     1       1.363  -1.458   6.645  0.00  0.00    +0.004 A 
ATOM     37  C   UNL     1       1.220  -0.776   7.839  0.00  0.00    +0.000 A 
ATOM     38  C   UNL     1       1.881  -1.214   8.972  0.00  0.00    +0.004 A 
ATOM     39  C   UNL     1       2.682  -2.339   8.914  0.00  0.00    +0.045 A 
ENDBRANCH  33  34
ENDBRANCH  31  33
ENDBRANCH  11  31
TORSDOF 6
