REMARK  Name = ZINC36086308
REMARK  10 active torsions:
REMARK  status: ('A' for Active; 'I' for Inactive)
REMARK    1  A    between atoms: C_1  and  C_2
REMARK    2  A    between atoms: C_5  and  N_9
REMARK    3  A    between atoms: C_7  and  C_8
REMARK    4  A    between atoms: N_12  and  C_28
REMARK    5  A    between atoms: C_15  and  C_17
REMARK    6  A    between atoms: N_19  and  C_20
REMARK    7  A    between atoms: N_19  and  C_21
REMARK    8  A    between atoms: C_21  and  C_22
REMARK    9  A    between atoms: C_28  and  C_29
REMARK   10  A    between atoms: C_32  and  C_35
REMARK                            x       y       z     vdW  Elec       q    Type
REMARK                         _______ _______ _______ _____ _____    ______ ____
ROOT
ATOM      1  N   UNL     1      -0.419  -4.233   0.007  0.00  0.00    -0.181 N 
ATOM      2  C   UNL     1      -0.284  -4.840  -1.182  0.00  0.00    +0.353 A 
ATOM      3  O   UNL     1      -0.467  -4.203  -2.201  0.00  0.00    -0.244 OA
ATOM      4  N   UNL     1       0.051  -6.143  -1.268  0.00  0.00    -0.253 N 
ATOM      5  C   UNL     1       0.251  -6.839  -0.124  0.00  0.00    +0.288 A 
ATOM      6  O   UNL     1       0.555  -8.016  -0.148  0.00  0.00    -0.265 OA
ATOM      7  C   UNL     1       0.089  -6.119   1.153  0.00  0.00    +0.210 A 
ATOM      8  N   UNL     1      -0.236  -4.844   1.122  0.00  0.00    -0.152 NA
ENDROOT
BRANCH   1  13
ATOM      9  C   UNL     1      -1.837   1.259   0.112  0.00  0.00    +0.044 C 
ATOM     10  C   UNL     1      -1.460  -0.200   0.084  0.00  0.00    -0.047 A 
ATOM     11  C   UNL     1      -0.445  -0.634  -0.748  0.00  0.00    +0.006 A 
ATOM     12  C   UNL     1      -0.097  -1.970  -0.776  0.00  0.00    +0.028 A 
ATOM     13  C   UNL     1      -0.768  -2.878   0.033  0.00  0.00    +0.071 A 
ATOM     14  C   UNL     1      -1.788  -2.438   0.868  0.00  0.00    +0.031 A 
ATOM     15  C   UNL     1      -2.127  -1.100   0.895  0.00  0.00    -0.046 A 
ATOM     16  C   UNL     1      -3.228  -0.620   1.805  0.00  0.00    +0.044 C 
ENDBRANCH   1  13
BRANCH   7  17
ATOM     17  C   UNL     1       0.291  -6.811   2.439  0.00  0.00    +0.272 C 
ATOM     18  O   UNL     1       0.452  -8.017   2.461  0.00  0.00    -0.268 OA
ATOM     19  N   UNL     1       0.299  -6.109   3.589  0.00  0.00    -0.295 N 
ATOM     20  C   UNL     1       0.056  -4.665   3.567  0.00  0.00    +0.132 C 
BRANCH  19  21
ATOM     21  C   UNL     1       0.549  -6.791   4.862  0.00  0.00    +0.142 C 
BRANCH  21  22
ATOM     22  C   UNL     1       2.029  -6.793   5.148  0.00  0.00    -0.030 A 
ATOM     23  C   UNL     1       2.819  -7.832   4.694  0.00  0.00    +0.005 A 
ATOM     24  C   UNL     1       4.176  -7.834   4.957  0.00  0.00    +0.000 A 
ATOM     25  C   UNL     1       4.743  -6.796   5.672  0.00  0.00    +0.000 A 
ATOM     26  C   UNL     1       3.953  -5.756   6.124  0.00  0.00    +0.000 A 
ATOM     27  C   UNL     1       2.597  -5.752   5.858  0.00  0.00    +0.005 A 
ENDBRANCH  21  22
ENDBRANCH  19  21
ENDBRANCH   7  17
BRANCH   4  28
ATOM     28  C   UNL     1       0.194  -6.794  -2.573  0.00  0.00    +0.165 C 
BRANCH  28  29
ATOM     29  C   UNL     1       1.619  -6.662  -3.046  0.00  0.00    -0.027 A 
ATOM     30  C   UNL     1       1.998  -5.568  -3.802  0.00  0.00    +0.006 A 
ATOM     31  C   UNL     1       3.304  -5.447  -4.236  0.00  0.00    +0.013 A 
ATOM     32  C   UNL     1       4.233  -6.419  -3.913  0.00  0.00    +0.055 A 
ATOM     33  C   UNL     1       3.854  -7.512  -3.157  0.00  0.00    +0.013 A 
ATOM     34  C   UNL     1       2.549  -7.631  -2.719  0.00  0.00    +0.006 A 
BRANCH  32  35
ATOM     35  C   UNL     1       5.657  -6.287  -4.388  0.00  0.00    +0.417 C 
ATOM     36  F   UNL     1       6.404  -5.589  -3.433  0.00  0.00    -0.166 F 
ATOM     37  F   UNL     1       6.207  -7.561  -4.570  0.00  0.00    -0.166 F 
ATOM     38  F   UNL     1       5.683  -5.590  -5.600  0.00  0.00    -0.166 F 
ENDBRANCH  32  35
ENDBRANCH  28  29
ENDBRANCH   4  28
TORSDOF 7
