REMARK  Name = ZINC40333893
REMARK  5 active torsions:
REMARK  status: ('A' for Active; 'I' for Inactive)
REMARK    1  A    between atoms: C_1  and  N_2
REMARK    2  A    between atoms: N_2  and  C_3
REMARK    3  A    between atoms: C_3  and  C_4
REMARK    4  A    between atoms: C_10  and  C_12
REMARK    5  A    between atoms: C_20  and  N_22
REMARK                            x       y       z     vdW  Elec       q    Type
REMARK                         _______ _______ _______ _____ _____    ______ ____
ROOT
ATOM      1  C   UNL     1      -0.124   0.064  -2.434  0.00  0.00    +0.062 A 
ATOM      2  C   UNL     1       0.560   1.207  -2.726  0.00  0.00    +0.096 A 
ATOM      3  N   UNL     1       0.288   1.591  -3.998  0.00  0.00    -0.360 N 
ATOM      4  H   UNL     1       0.659   2.376  -4.430  0.00  0.00    +0.165 HD
ATOM      5  C   UNL     1      -0.590   0.707  -4.590  0.00  0.00    +0.049 A 
ATOM      6  C   UNL     1      -0.885  -0.290  -3.647  0.00  0.00    +0.012 A 
ATOM      7  C   UNL     1      -1.753  -1.329  -3.974  0.00  0.00    +0.012 A 
ATOM      8  C   UNL     1      -2.316  -1.380  -5.219  0.00  0.00    +0.023 A 
ATOM      9  C   UNL     1      -2.027  -0.398  -6.163  0.00  0.00    +0.027 A 
ATOM     10  C   UNL     1      -1.172   0.646  -5.852  0.00  0.00    +0.049 A 
ENDROOT
BRANCH   1  13
ATOM     11  C   UNL     1      -0.029   1.460   0.011  0.00  0.00    +0.132 C 
ATOM     12  N   UNL     1       0.003  -0.004   0.002  0.00  0.00    -0.296 N 
ATOM     13  C   UNL     1      -0.102  -0.673  -1.163  0.00  0.00    +0.249 C 
ATOM     14  O   UNL     1      -0.177  -1.887  -1.163  0.00  0.00    -0.270 OA
BRANCH  12  15
ATOM     15  C   UNL     1       0.147  -0.742   1.260  0.00  0.00    +0.150 C 
BRANCH  15  16
ATOM     16  C   UNL     1      -1.216  -1.026   1.835  0.00  0.00    +0.008 A 
ATOM     17  C   UNL     1      -2.019  -2.099   1.636  0.00  0.00    +0.014 A 
ATOM     18  C   UNL     1      -3.244  -2.148   2.275  0.00  0.00    +0.028 A 
ATOM     19  C   UNL     1      -3.605  -1.120   3.084  0.00  0.00    +0.078 A 
ATOM     20  S   UNL     1      -2.188  -0.040   2.962  0.00  0.00    -0.080 S 
ATOM     21 CL   UNL     1      -5.063  -0.911   4.003  0.00  0.00    -0.076 Cl
ENDBRANCH  15  16
ENDBRANCH  12  15
ENDBRANCH   1  13
BRANCH   9  22
ATOM     22  N   UNL     1      -2.609  -0.463  -7.432  0.00  0.00    -0.358 N 
ATOM     23  H   UNL     1      -3.212  -1.190  -7.653  0.00  0.00    +0.142 HD
ATOM     24  H   UNL     1      -2.410   0.219  -8.093  0.00  0.00    +0.142 HD
ENDBRANCH   9  22
TORSDOF 4
