REMARK  Name = ZINC53736460
REMARK  5 active torsions:
REMARK  status: ('A' for Active; 'I' for Inactive)
REMARK    1  A    between atoms: C_1  and  C_2
REMARK    2  A    between atoms: C_2  and  C_4
REMARK    3  A    between atoms: C_2  and  O_22
REMARK    4  A    between atoms: C_8  and  N_21
REMARK    5  A    between atoms: N_12  and  C_13
REMARK                            x       y       z     vdW  Elec       q    Type
REMARK                         _______ _______ _______ _____ _____    ______ ____
ROOT
ATOM      1  C   UNL     1       0.731  -0.503   1.223  0.00  0.00    +0.144 A 
ATOM      2  N   UNL     1       0.246  -0.510   2.430  0.00  0.00    -0.229 NA
ATOM      3  C   UNL     1       1.163  -1.024   3.290  0.00  0.00    +0.091 A 
ATOM      4  C   UNL     1       1.164  -1.256   4.668  0.00  0.00    +0.052 A 
ATOM      5  C   UNL     1       2.280  -1.808   5.269  0.00  0.00    +0.027 A 
ATOM      6  C   UNL     1       3.402  -2.132   4.507  0.00  0.00    +0.025 A 
ATOM      7  C   UNL     1       3.410  -1.908   3.148  0.00  0.00    +0.030 A 
ATOM      8  C   UNL     1       2.297  -1.355   2.531  0.00  0.00    +0.074 A 
ATOM      9  N   UNL     1       1.992  -1.019   1.223  0.00  0.00    -0.291 N 
ENDROOT
BRANCH   9  10
ATOM     10  C   UNL     1       2.826  -1.176   0.107  0.00  0.00    +0.085 A 
ATOM     11  C   UNL     1       3.693  -0.157  -0.262  0.00  0.00    +0.044 A 
ATOM     12  C   UNL     1       4.515  -0.315  -1.362  0.00  0.00    +0.020 A 
ATOM     13  C   UNL     1       4.473  -1.487  -2.097  0.00  0.00    +0.018 A 
ATOM     14  C   UNL     1       3.611  -2.504  -1.733  0.00  0.00    +0.041 A 
ATOM     15  C   UNL     1       2.790  -2.355  -0.629  0.00  0.00    +0.147 A 
ATOM     16  F   UNL     1       1.951  -3.351  -0.270  0.00  0.00    -0.203 F 
ATOM     17 BR   UNL     1       5.696   1.073  -1.865  0.00  0.00    -0.050 Br
ENDBRANCH   9  10
BRANCH   5  18
ATOM     18  N   UNL     1       2.284  -2.041   6.648  0.00  0.00    -0.358 N 
ATOM     19  H   UNL     1       1.506  -1.816   7.180  0.00  0.00    +0.142 HD
ATOM     20  H   UNL     1       3.066  -2.428   7.072  0.00  0.00    +0.142 HD
ENDBRANCH   5  18
BRANCH   1  22
ATOM     21  C   UNL     1      -0.019   1.526   0.010  0.00  0.00    +0.046 C 
ATOM     22  C   UNL     1       0.002  -0.004   0.002  0.00  0.00    +0.177 C 
BRANCH  22  23
ATOM     23  O   UNL     1      -1.339  -0.499   0.012  0.00  0.00    -0.384 OA
ATOM     24  H   UNL     1      -1.853  -0.225   0.784  0.00  0.00    +0.210 HD
ENDBRANCH  22  23
ENDBRANCH   1  22
TORSDOF 4
