REMARK  Name = ZINC38117894
REMARK  5 active torsions:
REMARK  status: ('A' for Active; 'I' for Inactive)
REMARK    1  A    between atoms: C_6  and  N_7
REMARK    2  A    between atoms: N_7  and  C_8
REMARK    3  A    between atoms: C_8  and  C_18
REMARK    4  A    between atoms: C_15  and  O_17
REMARK    5  A    between atoms: C_18  and  O_19
REMARK                            x       y       z     vdW  Elec       q    Type
REMARK                         _______ _______ _______ _____ _____    ______ ____
ROOT
ATOM      1  C   UNL     1      -1.079  -2.180   0.054  0.00  0.00    +0.118 C 
ATOM      2  C   UNL     1      -0.330  -2.547  -1.249  0.00  0.00    +0.262 C 
ATOM      3  O   UNL     1      -1.399  -2.905  -2.140  0.00  0.00    -0.489 OA
ATOM      4  C   UNL     1      -2.453  -3.371  -1.415  0.00  0.00    +0.129 A 
ATOM      5  C   UNL     1      -2.359  -2.981  -0.084  0.00  0.00    +0.023 A 
ATOM      6  C   UNL     1      -3.330  -3.335   0.826  0.00  0.00    +0.013 A 
ATOM      7  C   UNL     1      -4.413  -4.095   0.423  0.00  0.00    +0.046 A 
ATOM      8  C   UNL     1      -4.516  -4.497  -0.901  0.00  0.00    +0.120 A 
ATOM      9  C   UNL     1      -3.542  -4.139  -1.816  0.00  0.00    +0.091 A 
ENDROOT
BRANCH   1  10
ATOM     10  N   UNL     1      -1.363  -0.744   0.108  0.00  0.00    -0.330 N 
ATOM     11  H   UNL     1      -0.910  -0.137  -0.497  0.00  0.00    +0.147 HD
BRANCH  10  17
ATOM     12  C   UNL     1      -2.847   1.010   0.851  0.00  0.00    +0.024 A 
ATOM     13  C   UNL     1      -3.760   1.496   1.765  0.00  0.00    +0.017 A 
ATOM     14  C   UNL     1      -4.119   0.731   2.861  0.00  0.00    +0.018 A 
ATOM     15  C   UNL     1      -3.563  -0.523   3.044  0.00  0.00    +0.017 A 
ATOM     16  C   UNL     1      -2.649  -1.015   2.133  0.00  0.00    +0.024 A 
ATOM     17  C   UNL     1      -2.288  -0.249   1.032  0.00  0.00    +0.028 A 
ATOM     18 BR   UNL     1      -5.370   1.401   4.111  0.00  0.00    -0.050 Br
ENDBRANCH  10  17
ENDBRANCH   1  10
BRANCH   8  19
ATOM     19  O   UNL     1      -5.577  -5.247  -1.300  0.00  0.00    -0.507 OA
ATOM     20  H   UNL     1      -6.334  -4.726  -1.605  0.00  0.00    +0.292 HD
ENDBRANCH   8  19
BRANCH   1  21
ATOM     21  C   UNL     1      -0.286  -2.624   1.285  0.00  0.00    +0.189 C 
BRANCH  21  22
ATOM     22  O   UNL     1       0.924  -1.869   1.370  0.00  0.00    -0.392 OA
ATOM     23  H   UNL     1       1.478  -2.098   2.129  0.00  0.00    +0.210 HD
ENDBRANCH  21  22
ENDBRANCH   1  21
TORSDOF 5
