REMARK  Name = ZINC35453380
REMARK  3 active torsions:
REMARK  status: ('A' for Active; 'I' for Inactive)
REMARK    1  A    between atoms: C_3  and  O_8
REMARK    2  A    between atoms: O_8  and  C_9
REMARK    3  A    between atoms: C_14  and  N_15
REMARK                            x       y       z     vdW  Elec       q    Type
REMARK                         _______ _______ _______ _____ _____    ______ ____
ROOT
ATOM      1  C   UNL     1       4.710   1.402   0.069  0.00  0.00    +0.151 A 
ATOM      2  C   UNL     1       4.684   0.016   0.054  0.00  0.00    +0.075 A 
ATOM      3  C   UNL     1       5.868  -0.697   0.146  0.00  0.00    +0.079 A 
ATOM      4  C   UNL     1       7.084  -0.024   0.254  0.00  0.00    +0.144 A 
ATOM      5  C   UNL     1       7.110   1.360   0.267  0.00  0.00    +0.074 A 
ATOM      6  C   UNL     1       5.925   2.075   0.170  0.00  0.00    +0.071 A 
ATOM      7  O   UNL     1       8.238  -0.738   0.345  0.00  0.00    -0.481 OA
ATOM      8  C   UNL     1       8.165  -1.994   1.026  0.00  0.00    +0.325 C 
ATOM      9  C   UNL     1       6.966  -2.766   0.536  0.00  0.00    +0.255 C 
ATOM     10  O   UNL     1       6.993  -3.978   0.504  0.00  0.00    -0.272 OA
ATOM     11  N   UNL     1       5.861  -2.101   0.132  0.00  0.00    -0.280 N 
ATOM     12  H   UNL     1       5.075  -2.587  -0.162  0.00  0.00    +0.155 HD
ENDROOT
BRANCH   6  13
ATOM     13  N   UNL     1       5.950   3.476   0.178  0.00  0.00    -0.355 N 
ATOM     14  H   UNL     1       5.122   3.977   0.114  0.00  0.00    +0.142 HD
ATOM     15  H   UNL     1       6.796   3.946   0.248  0.00  0.00    +0.142 HD
ENDBRANCH   6  13
BRANCH   1  16
ATOM     16  O   UNL     1       3.548   2.105  -0.021  0.00  0.00    -0.454 OA
BRANCH  16  19
ATOM     17  C   UNL     1       0.797   0.056   1.192  0.00  0.00    +0.005 A 
ATOM     18  C   UNL     1       1.986   0.759   1.166  0.00  0.00    +0.046 A 
ATOM     19  C   UNL     1       2.380   1.412   0.007  0.00  0.00    +0.130 A 
ATOM     20  C   UNL     1       1.578   1.356  -1.125  0.00  0.00    +0.061 A 
ATOM     21  C   UNL     1       0.390   0.651  -1.094  0.00  0.00    +0.021 A 
ATOM     22  C   UNL     1      -0.000   0.001   0.064  0.00  0.00    +0.015 A 
ATOM     23 BR   UNL     1      -0.703   0.574  -2.635  0.00  0.00    -0.050 Br
ENDBRANCH  16  19
ENDBRANCH   1  16
TORSDOF 3
