REMARK  Name = ZINC63994157
REMARK  9 active torsions:
REMARK  status: ('A' for Active; 'I' for Inactive)
REMARK    1  A    between atoms: C_1  and  O_2
REMARK    2  A    between atoms: O_2  and  C_3
REMARK    3  A    between atoms: C_3  and  C_5
REMARK    4  A    between atoms: C_5  and  N_6
REMARK    5  A    between atoms: N_12  and  C_15
REMARK    6  A    between atoms: C_15  and  C_16
REMARK    7  A    between atoms: N_25  and  C_28
REMARK    8  A    between atoms: C_28  and  C_29
REMARK    9  A    between atoms: C_29  and  C_30
REMARK                            x       y       z     vdW  Elec       q    Type
REMARK                         _______ _______ _______ _____ _____    ______ ____
ROOT
ATOM      1  N   UNL     1      -2.747  -2.667  -0.903  0.00  0.00    -0.213 N 
ATOM      2  C   UNL     1      -3.170  -2.953   0.346  0.00  0.00    +0.247 C 
ATOM      3  O   UNL     1      -2.515  -2.931   1.366  0.00  0.00    -0.273 OA
ATOM      4  C   UNL     1      -4.632  -3.305   0.205  0.00  0.00    +0.112 C 
ATOM      5  C   UNL     1      -4.883  -4.739   0.662  0.00  0.00    +0.017 C 
ATOM      6  C   UNL     1      -6.378  -5.050   0.551  0.00  0.00    -0.076 C 
ATOM      7  N   UNL     1      -7.139  -4.110   1.383  0.00  0.00    +0.382 N 
ATOM      8  C   UNL     1      -6.965  -2.742   0.880  0.00  0.00    -0.076 C 
ATOM      9  C   UNL     1      -5.495  -2.333   1.004  0.00  0.00    +0.017 C 
ATOM     10  N   UNL     1      -4.897  -3.167  -1.232  0.00  0.00    -0.271 N 
ATOM     11  C   UNL     1      -3.736  -2.786  -1.798  0.00  0.00    +0.312 C 
ATOM     12  O   UNL     1      -3.600  -2.576  -2.987  0.00  0.00    -0.252 OA
ATOM     13  H   UNL     1      -6.807  -4.161   2.335  0.00  0.00    -0.081 HD
ENDROOT
BRANCH   1  14
ATOM     14  C   UNL     1      -1.377  -2.271  -1.238  0.00  0.00    +0.238 C 
BRANCH  14  15
ATOM     15  C   UNL     1      -1.253  -0.771  -1.152  0.00  0.00    +0.325 C 
ATOM     16  O   UNL     1      -2.210  -0.103  -0.843  0.00  0.00    -0.249 OA
BRANCH  15  18
ATOM     17  C   UNL     1      -0.033   1.246  -1.319  0.00  0.00    +0.280 C 
ATOM     18  O   UNL     1      -0.078  -0.179  -1.419  0.00  0.00    -0.467 OA
ENDBRANCH  15  18
ENDBRANCH  14  15
ENDBRANCH   1  14
BRANCH   7  19
ATOM     19  C   UNL     1      -8.563  -4.467   1.345  0.00  0.00    -0.045 C 
BRANCH  19  20
ATOM     20  C   UNL     1      -9.325  -3.595   2.310  0.00  0.00    -0.058 C 
ATOM     21  C   UNL     1      -9.990  -2.453   2.023  0.00  0.00    -0.003 A 
ATOM     22  C   UNL     1     -10.194  -1.708   0.774  0.00  0.00    +0.010 A 
ATOM     23  C   UNL     1     -10.924  -0.570   0.801  0.00  0.00    +0.001 A 
ATOM     24  C   UNL     1     -11.488  -0.084   1.989  0.00  0.00    +0.002 A 
ATOM     25  C   UNL     1     -11.345  -0.713   3.175  0.00  0.00    +0.026 A 
ATOM     26  C   UNL     1     -10.598  -1.920   3.263  0.00  0.00    +0.043 A 
ATOM     27  N   UNL     1     -10.319  -2.702   4.277  0.00  0.00    -0.380 N 
ATOM     28  C   UNL     1      -9.507  -3.824   3.794  0.00  0.00    +0.142 C 
ATOM     29  H   UNL     1     -10.605  -2.563   5.194  0.00  0.00    +0.160 HD
ENDBRANCH  19  20
ENDBRANCH   7  19
BRANCH  10  30
ATOM     30  C   UNL     1      -6.173  -3.396  -1.915  0.00  0.00    +0.115 C 
BRANCH  30  31
ATOM     31  C   UNL     1      -6.047  -4.609  -2.839  0.00  0.00    +0.054 C 
BRANCH  31  32
ATOM     32  C   UNL     1      -7.389  -4.915  -3.451  0.00  0.00    -0.046 A 
ATOM     33  C   UNL     1      -8.300  -5.697  -2.764  0.00  0.00    +0.004 A 
ATOM     34  C   UNL     1      -9.531  -5.978  -3.325  0.00  0.00    +0.000 A 
ATOM     35  C   UNL     1      -9.853  -5.478  -4.573  0.00  0.00    +0.000 A 
ATOM     36  C   UNL     1      -8.943  -4.696  -5.260  0.00  0.00    +0.000 A 
ATOM     37  C   UNL     1      -7.713  -4.411  -4.697  0.00  0.00    +0.004 A 
ENDBRANCH  31  32
ENDBRANCH  30  31
ENDBRANCH  10  30
TORSDOF 8
