REMARK  Name = ZINC11148120
REMARK  9 active torsions:
REMARK  status: ('A' for Active; 'I' for Inactive)
REMARK    1  A    between atoms: C_1  and  C_2
REMARK    2  A    between atoms: C_2  and  O_3
REMARK    3  A    between atoms: O_3  and  C_4
REMARK    4  A    between atoms: C_4  and  C_6
REMARK    5  A    between atoms: C_7  and  C_21
REMARK    6  A    between atoms: C_12  and  C_14
REMARK    7  A    between atoms: C_21  and  S_22
REMARK    8  A    between atoms: S_22  and  C_23
REMARK    9  A    between atoms: N_27  and  C_28
REMARK                            x       y       z     vdW  Elec       q    Type
REMARK                         _______ _______ _______ _____ _____    ______ ____
ROOT
ATOM      1  C   UNL     1      -6.774   1.044   0.251  0.00  0.00    +0.079 C 
ATOM      2  C   UNL     1      -5.918   2.081   0.127  0.00  0.00    +0.034 C 
ATOM      3  N   UNL     1      -6.161   3.094  -0.756  0.00  0.00    -0.272 N 
ATOM      4  C   UNL     1      -7.240   3.147  -1.547  0.00  0.00    +0.304 C 
ATOM      5  O   UNL     1      -7.369   4.091  -2.302  0.00  0.00    -0.252 OA
ATOM      6  N   UNL     1      -8.187   2.188  -1.533  0.00  0.00    -0.288 N 
ATOM      7  C   UNL     1      -8.018   1.050  -0.614  0.00  0.00    +0.144 C 
ATOM      8  H   UNL     1      -5.515   3.816  -0.814  0.00  0.00    +0.156 HD
ATOM      9  H   UNL     1      -8.961   2.247  -2.115  0.00  0.00    +0.151 HD
ENDROOT
BRANCH   7  10
ATOM     10  C   UNL     1      -8.012  -0.213  -1.436  0.00  0.00    -0.022 A 
ATOM     11  C   UNL     1      -7.359  -0.242  -2.654  0.00  0.00    +0.007 A 
ATOM     12  C   UNL     1      -7.349  -1.402  -3.405  0.00  0.00    +0.020 A 
ATOM     13  C   UNL     1      -8.001  -2.531  -2.943  0.00  0.00    +0.041 A 
ATOM     14  C   UNL     1      -8.659  -2.500  -1.727  0.00  0.00    +0.020 A 
ATOM     15  C   UNL     1      -8.664  -1.341  -0.974  0.00  0.00    +0.007 A 
ATOM     16 CL   UNL     1      -7.995  -3.986  -3.890  0.00  0.00    -0.084 Cl
ENDBRANCH   7  10
BRANCH   1  17
ATOM     17  C   UNL     1      -6.521  -0.009   1.161  0.00  0.00    +0.339 C 
ATOM     18  O   UNL     1      -5.594   0.075   1.945  0.00  0.00    -0.245 OA
BRANCH  17  19
ATOM     19  O   UNL     1      -7.307  -1.105   1.159  0.00  0.00    -0.462 OA
BRANCH  19  21
ATOM     20  C   UNL     1      -7.986  -3.284   1.954  0.00  0.00    +0.048 C 
ATOM     21  C   UNL     1      -6.993  -2.130   2.105  0.00  0.00    +0.229 C 
ENDBRANCH  19  21
ENDBRANCH  17  19
ENDBRANCH   1  17
BRANCH   2  22
ATOM     22  C   UNL     1      -4.670   2.118   0.972  0.00  0.00    +0.128 C 
BRANCH  22  23
ATOM     23  S   UNL     1      -4.936   3.207   2.393  0.00  0.00    -0.080 S 
BRANCH  23  24
ATOM     24  C   UNL     1      -3.368   3.066   3.184  0.00  0.00    +0.192 A 
ATOM     25  N   UNL     1      -2.349   2.346   2.775  0.00  0.00    -0.123 NA
ATOM     26  N   UNL     1      -1.368   2.473   3.595  0.00  0.00    -0.137 NA
ATOM     27  C   UNL     1      -1.697   3.278   4.565  0.00  0.00    +0.225 A 
ATOM     28  N   UNL     1      -2.982   3.688   4.337  0.00  0.00    -0.312 N 
ATOM     29  C   UNL     1      -3.780   4.599   5.161  0.00  0.00    +0.152 C 
ENDBRANCH  23  24
ENDBRANCH  22  23
ENDBRANCH   2  22
TORSDOF 7
