REMARK  Name = ZINC32102884
REMARK  3 active torsions:
REMARK  status: ('A' for Active; 'I' for Inactive)
REMARK    1  A    between atoms: C_1  and  N_2
REMARK    2  A    between atoms: C_26  and  O_30
REMARK    3  A    between atoms: O_30  and  C_31
REMARK                            x       y       z     vdW  Elec       q    Type
REMARK                         _______ _______ _______ _____ _____    ______ ____
ROOT
ATOM      1  C   UNL     1      -0.018   1.461   0.010  0.00  0.00    +0.138 C 
ATOM      2  N   UNL     1       0.002  -0.004   0.002  0.00  0.00    -0.273 N 
ATOM      3  C   UNL     1      -1.135  -0.793   0.003  0.00  0.00    +0.040 A 
ATOM      4  C   UNL     1      -2.477  -0.412   0.016  0.00  0.00    +0.024 A 
ATOM      5  C   UNL     1      -3.424  -1.424   0.015  0.00  0.00    +0.002 A 
ATOM      6  C   UNL     1      -3.067  -2.757   0.001  0.00  0.00    +0.000 A 
ATOM      7  C   UNL     1      -1.734  -3.151  -0.011  0.00  0.00    +0.007 A 
ATOM      8  C   UNL     1      -0.786  -2.150  -0.009  0.00  0.00    -0.006 A 
ATOM      9  C   UNL     1       0.708  -2.196  -0.016  0.00  0.00    +0.112 C 
ATOM     10  C   UNL     1       1.131  -0.743  -0.013  0.00  0.00    +0.235 C 
ATOM     11  O   UNL     1       2.269  -0.323  -0.021  0.00  0.00    -0.274 OA
ATOM     12  C   UNL     1       1.245  -2.907   1.224  0.00  0.00    +0.122 C 
ATOM     13  C   UNL     1       1.192  -4.401   1.063  0.00  0.00    +0.220 C 
ATOM     14  O   UNL     1       0.911  -5.086   2.023  0.00  0.00    -0.275 OA
ATOM     15  N   UNL     1       1.447  -5.004  -0.117  0.00  0.00    -0.270 N 
ATOM     16  C   UNL     1       1.568  -4.210  -1.256  0.00  0.00    +0.135 A 
ATOM     17  C   UNL     1       1.231  -2.881  -1.248  0.00  0.00    +0.032 A 
ATOM     18  C   UNL     1       1.464  -2.374  -2.519  0.00  0.00    +0.141 A 
ATOM     19  N   UNL     1       1.914  -3.347  -3.276  0.00  0.00    -0.171 NA
ATOM     20  N   UNL     1       1.981  -4.518  -2.504  0.00  0.00    -0.194 N 
ATOM     21  C   UNL     1       2.397  -5.769  -2.946  0.00  0.00    +0.196 A 
ATOM     22  N   UNL     1       2.474  -6.894  -2.276  0.00  0.00    -0.221 NA
ATOM     23  C   UNL     1       2.901  -8.046  -2.837  0.00  0.00    +0.081 A 
ATOM     24  C   UNL     1       3.030  -9.317  -2.230  0.00  0.00    +0.032 A 
ATOM     25  C   UNL     1       3.479 -10.387  -2.939  0.00  0.00    +0.048 A 
ATOM     26  C   UNL     1       3.827 -10.278  -4.282  0.00  0.00    +0.121 A 
ATOM     27  C   UNL     1       3.713  -9.049  -4.913  0.00  0.00    +0.063 A 
ATOM     28  C   UNL     1       3.260  -7.965  -4.202  0.00  0.00    +0.044 A 
ATOM     29  S   UNL     1       2.954  -6.255  -4.572  0.00  0.00    -0.048 S 
ATOM     30  H   UNL     1       1.544  -5.968  -0.172  0.00  0.00    +0.156 HD
ENDROOT
BRANCH  26  31
ATOM     31  O   UNL     1       4.273 -11.365  -4.968  0.00  0.00    -0.495 OA
ATOM     32  C   UNL     1       4.362 -12.595  -4.246  0.00  0.00    +0.277 C 
ENDBRANCH  26  31
TORSDOF 1
