REMARK  Name = ZINC62953213
REMARK  5 active torsions:
REMARK  status: ('A' for Active; 'I' for Inactive)
REMARK    1  A    between atoms: C_1  and  C_2
REMARK    2  A    between atoms: C_2  and  C_3
REMARK    3  A    between atoms: C_3  and  C_20
REMARK    4  A    between atoms: N_6  and  C_9
REMARK    5  A    between atoms: C_14  and  N_15
REMARK                            x       y       z     vdW  Elec       q    Type
REMARK                         _______ _______ _______ _____ _____    ______ ____
ROOT
ATOM      1  C   UNL     1       0.434  -2.721  -4.762  0.00  0.00    +0.054 A 
ATOM      2  C   UNL     1       1.300  -3.031  -5.799  0.00  0.00    +0.074 A 
ATOM      3  C   UNL     1       0.871  -3.827  -6.850  0.00  0.00    +0.164 A 
ATOM      4  C   UNL     1      -0.429  -4.317  -6.864  0.00  0.00    +0.164 A 
ATOM      5  C   UNL     1      -1.298  -4.006  -5.829  0.00  0.00    +0.074 A 
ATOM      6  C   UNL     1      -0.869  -3.214  -4.774  0.00  0.00    +0.050 A 
ATOM      7  O   UNL     1      -0.865  -5.106  -7.885  0.00  0.00    -0.485 OA
ATOM      8  C   UNL     1      -0.089  -5.091  -9.088  0.00  0.00    +0.270 C 
ATOM      9  C   UNL     1       1.391  -5.222  -8.706  0.00  0.00    +0.270 C 
ATOM     10  O   UNL     1       1.736  -4.118  -7.862  0.00  0.00    -0.485 OA
ENDROOT
BRANCH   1  14
ATOM     11  C   UNL     1       0.718  -0.497  -1.257  0.00  0.00    -0.029 C 
ATOM     12  C   UNL     1      -0.021   0.011  -2.497  0.00  0.00    +0.025 C 
ATOM     13  C   UNL     1       0.718  -0.456  -3.754  0.00  0.00    +0.105 C 
ATOM     14  N   UNL     1       0.870  -1.916  -3.699  0.00  0.00    -0.328 N 
ATOM     15  C   UNL     1       1.487  -2.518  -2.509  0.00  0.00    +0.105 C 
ATOM     16  C   UNL     1       0.739  -2.028  -1.265  0.00  0.00    +0.025 C 
ATOM     17  C   UNL     1       2.154   0.032  -1.267  0.00  0.00    +0.011 C 
BRANCH  11  19
ATOM     18  C   UNL     1      -0.019   1.526   0.010  0.00  0.00    +0.004 C 
ATOM     19  C   UNL     1       0.002  -0.004   0.002  0.00  0.00    +0.003 C 
ENDBRANCH  11  19
ENDBRANCH   1  14
BRANCH   6  20
ATOM     20  N   UNL     1      -1.747  -2.906  -3.725  0.00  0.00    -0.356 N 
ATOM     21  H   UNL     1      -1.447  -2.349  -2.990  0.00  0.00    +0.142 HD
ATOM     22  H   UNL     1      -2.654  -3.250  -3.734  0.00  0.00    +0.142 HD
ENDBRANCH   6  20
TORSDOF 3
