REMARK  Name = ZINC40745611
REMARK  11 active torsions:
REMARK  status: ('A' for Active; 'I' for Inactive)
REMARK    1  A    between atoms: C_1  and  C_2
REMARK    2  A    between atoms: C_2  and  C_3
REMARK    3  A    between atoms: N_5  and  C_6
REMARK    4  A    between atoms: C_8  and  C_17
REMARK    5  A    between atoms: N_10  and  C_11
REMARK    6  A    between atoms: N_19  and  C_20
REMARK    7  A    between atoms: C_21  and  C_29
REMARK    8  A    between atoms: N_23  and  C_26
REMARK    9  A    between atoms: C_24  and  C_25
REMARK   10  A    between atoms: C_26  and  C_27
REMARK   11  A    between atoms: C_26  and  C_28
REMARK                            x       y       z     vdW  Elec       q    Type
REMARK                         _______ _______ _______ _____ _____    ______ ____
ROOT
ATOM      1  C   UNL     1       2.281  -2.935  -2.303  0.00  0.00    +0.129 A 
ATOM      2  C   UNL     1       3.225  -2.349  -3.083  0.00  0.00    +0.078 A 
ATOM      3  C   UNL     1       3.021  -2.785  -4.409  0.00  0.00    +0.150 A 
ATOM      4  N   UNL     1       1.987  -3.605  -4.417  0.00  0.00    -0.160 NA
ATOM      5  N   UNL     1       1.508  -3.720  -3.106  0.00  0.00    -0.218 N 
ENDROOT
BRANCH   5   6
ATOM      6  C   UNL     1       0.422  -4.503  -2.692  0.00  0.00    +0.067 A 
ATOM      7  C   UNL     1       0.442  -5.116  -1.446  0.00  0.00    +0.028 A 
ATOM      8  C   UNL     1      -0.630  -5.888  -1.041  0.00  0.00    +0.002 A 
ATOM      9  C   UNL     1      -1.722  -6.049  -1.874  0.00  0.00    +0.000 A 
ATOM     10  C   UNL     1      -1.744  -5.439  -3.115  0.00  0.00    +0.002 A 
ATOM     11  C   UNL     1      -0.678  -4.662  -3.524  0.00  0.00    +0.028 A 
ENDBRANCH   5   6
BRANCH   1  14
ATOM     12  C   UNL     1       2.970  -1.956  -0.252  0.00  0.00    +0.218 C 
ATOM     13  O   UNL     1       3.854  -1.372  -0.842  0.00  0.00    -0.275 OA
ATOM     14  N   UNL     1       2.132  -2.768  -0.927  0.00  0.00    -0.270 N 
ATOM     15  H   UNL     1       1.425  -3.235  -0.455  0.00  0.00    +0.156 HD
BRANCH  12  17
ATOM     16  C   UNL     1       3.880  -0.812   1.751  0.00  0.00    +0.013 C 
ATOM     17  C   UNL     1       2.809  -1.776   1.236  0.00  0.00    +0.093 C 
ENDBRANCH  12  17
ENDBRANCH   1  14
BRANCH   3  18
ATOM     18  C   UNL     1       3.825  -2.393  -5.584  0.00  0.00    +0.269 C 
ATOM     19  O   UNL     1       4.759  -1.626  -5.452  0.00  0.00    -0.268 OA
ATOM     20  N   UNL     1       3.522  -2.884  -6.802  0.00  0.00    -0.277 N 
ATOM     21  H   UNL     1       2.814  -3.541  -6.898  0.00  0.00    +0.155 HD
BRANCH  20  22
ATOM     22  C   UNL     1       4.233  -2.445  -7.934  0.00  0.00    +0.077 A 
ATOM     23  C   UNL     1       4.310  -1.125  -8.401  0.00  0.00    +0.081 A 
ATOM     24  N   UNL     1       5.060  -1.110  -9.473  0.00  0.00    -0.174 NA
ATOM     25  N   UNL     1       5.489  -2.418  -9.729  0.00  0.00    -0.264 N 
ATOM     26  C   UNL     1       4.972  -3.224  -8.765  0.00  0.00    +0.058 A 
ATOM     27  C   UNL     1       5.179  -4.712  -8.643  0.00  0.00    +0.067 C 
ATOM     28  C   UNL     1       3.642   0.072  -7.774  0.00  0.00    +0.069 C 
BRANCH  25  29
ATOM     29  C   UNL     1       6.348  -2.842 -10.838  0.00  0.00    +0.101 C 
ATOM     30  C   UNL     1       5.672  -2.500 -12.167  0.00  0.00    +0.032 C 
ATOM     31  C   UNL     1       7.692  -2.116 -10.748  0.00  0.00    +0.032 C 
ENDBRANCH  25  29
ENDBRANCH  20  22
ENDBRANCH   3  18
TORSDOF 6
