REMARK  Name = ZINC16010216
REMARK  6 active torsions:
REMARK  status: ('A' for Active; 'I' for Inactive)
REMARK    1  A    between atoms: C_1  and  O_2
REMARK    2  A    between atoms: O_2  and  C_3
REMARK    3  A    between atoms: C_6  and  N_38
REMARK    4  A    between atoms: C_8  and  N_9
REMARK    5  A    between atoms: C_14  and  C_31
REMARK    6  A    between atoms: C_31  and  C_32
REMARK                            x       y       z     vdW  Elec       q    Type
REMARK                         _______ _______ _______ _____ _____    ______ ____
ROOT
ATOM      1  N   UNL     1      -0.294   6.541   3.191  0.00  0.00    -0.206 N 
ATOM      2  C   UNL     1      -0.377   5.985   1.977  0.00  0.00    +0.229 C 
ATOM      3  O   UNL     1      -1.405   5.795   1.363  0.00  0.00    -0.275 OA
ATOM      4  C   UNL     1       1.010   5.631   1.490  0.00  0.00    +0.074 C 
ATOM      5  C   UNL     1       1.157   4.095   1.455  0.00  0.00    -0.053 C 
ATOM      6  N   UNL     1       2.473   3.823   2.091  0.00  0.00    +0.394 N 
ATOM      7  C   UNL     1       2.549   4.798   3.195  0.00  0.00    +0.050 C 
ATOM      8  C   UNL     1       1.927   6.092   2.657  0.00  0.00    +0.088 C 
ATOM      9  C   UNL     1       0.951   6.650   3.668  0.00  0.00    +0.229 C 
ATOM     10  O   UNL     1       1.250   7.121   4.744  0.00  0.00    -0.275 OA
ATOM     11  C   UNL     1       3.965   5.011   3.647  0.00  0.00    -0.028 A 
ATOM     12  C   UNL     1       5.108   5.446   3.014  0.00  0.00    +0.004 A 
ATOM     13  C   UNL     1       6.296   5.538   3.716  0.00  0.00    +0.000 A 
ATOM     14  C   UNL     1       6.334   5.192   5.054  0.00  0.00    +0.002 A 
ATOM     15  C   UNL     1       5.192   4.755   5.693  0.00  0.00    +0.023 A 
ATOM     16  C   UNL     1       3.991   4.659   4.994  0.00  0.00    +0.036 A 
ATOM     17  N   UNL     1       2.723   4.251   5.411  0.00  0.00    -0.286 N 
ATOM     18  C   UNL     1       1.819   4.304   4.414  0.00  0.00    +0.211 C 
ATOM     19  O   UNL     1       0.644   4.011   4.486  0.00  0.00    -0.277 OA
ATOM     20  H   UNL     1       2.498   2.785   2.455  0.00  0.00    -0.083 HD
ATOM     21  H   UNL     1       2.561   3.937   6.453  0.00  0.00    +0.155 HD
ATOM     22  H   UNL     1       3.275   3.972   1.353  0.00  0.00    -0.083 HD
ENDROOT
BRANCH   1  28
ATOM     23  C   UNL     1      -1.880   8.282   3.760  0.00  0.00    +0.142 A 
ATOM     24  C   UNL     1      -2.996   8.704   4.464  0.00  0.00    +0.050 A 
ATOM     25  C   UNL     1      -3.645   7.832   5.317  0.00  0.00    +0.036 A 
ATOM     26  C   UNL     1      -3.187   6.535   5.466  0.00  0.00    +0.128 A 
ATOM     27  C   UNL     1      -2.078   6.106   4.763  0.00  0.00    +0.060 A 
ATOM     28  C   UNL     1      -1.421   6.975   3.905  0.00  0.00    +0.088 A 
BRANCH  26  29
ATOM     29  N   UNL     1      -3.887   5.606   6.381  0.00  0.00    +0.056 N 
ATOM     30  O   UNL     1      -3.485   4.464   6.514  0.00  0.00    -0.126 OA
ATOM     31  O   UNL     1      -4.865   5.983   7.002  0.00  0.00    -0.126 OA
ENDBRANCH  26  29
BRANCH  23  33
ATOM     32  C   UNL     1      -1.763  10.465   2.825  0.00  0.00    +0.277 C 
ATOM     33  O   UNL     1      -1.236   9.141   2.924  0.00  0.00    -0.493 OA
ENDBRANCH  23  33
ENDBRANCH   1  28
BRANCH   5  34
ATOM     34  C   UNL     1       1.151   3.592   0.010  0.00  0.00    +0.020 C 
BRANCH  34  35
ATOM     35  C   UNL     1       1.171   2.086   0.002  0.00  0.00    -0.049 A 
ATOM     36  C   UNL     1      -0.017   1.378   0.010  0.00  0.00    +0.003 A 
ATOM     37  C   UNL     1       0.002  -0.004   0.002  0.00  0.00    +0.000 A 
ATOM     38  C   UNL     1       1.208  -0.679  -0.014  0.00  0.00    +0.000 A 
ATOM     39  C   UNL     1       2.396   0.029  -0.022  0.00  0.00    +0.000 A 
ATOM     40  C   UNL     1       2.377   1.411  -0.014  0.00  0.00    +0.003 A 
ENDBRANCH  34  35
ENDBRANCH   5  34
TORSDOF 5
