REMARK  Name = ZINC56098724
REMARK  5 active torsions:
REMARK  status: ('A' for Active; 'I' for Inactive)
REMARK    1  A    between atoms: C_1  and  N_2
REMARK    2  A    between atoms: C_3  and  C_5
REMARK    3  A    between atoms: C_10  and  N_11
REMARK    4  A    between atoms: C_12  and  C_14
REMARK    5  A    between atoms: N_24  and  C_25
REMARK                            x       y       z     vdW  Elec       q    Type
REMARK                         _______ _______ _______ _____ _____    ______ ____
ROOT
ATOM      1  N   UNL     1      -3.598  -2.311   0.209  0.00  0.00    -0.281 N 
ATOM      2  C   UNL     1      -4.709  -3.047   0.411  0.00  0.00    +0.248 C 
ATOM      3  O   UNL     1      -4.620  -4.246   0.590  0.00  0.00    -0.270 OA
ATOM      4  H   UNL     1      -3.661  -1.345   0.143  0.00  0.00    +0.155 HD
ENDROOT
BRANCH   2   5
ATOM      5  C   UNL     1      -6.033  -2.397   0.414  0.00  0.00    +0.039 A 
ATOM      6  C   UNL     1      -6.135  -1.019   0.203  0.00  0.00    +0.015 A 
ATOM      7  C   UNL     1      -7.372  -0.410   0.204  0.00  0.00    +0.026 A 
ATOM      8  C   UNL     1      -8.515  -1.167   0.415  0.00  0.00    +0.051 A 
ATOM      9  C   UNL     1      -8.422  -2.546   0.632  0.00  0.00    +0.055 A 
ATOM     10  C   UNL     1      -7.186  -3.160   0.624  0.00  0.00    +0.038 A 
ATOM     11  N   UNL     1      -9.588  -3.290   0.855  0.00  0.00    -0.283 N 
ATOM     12  C   UNL     1     -10.798  -2.767   0.582  0.00  0.00    +0.235 C 
ATOM     13  O   UNL     1     -11.798  -3.410   0.821  0.00  0.00    -0.274 OA
ATOM     14  C   UNL     1     -10.924  -1.389  -0.016  0.00  0.00    +0.200 C 
ATOM     15  N   UNL     1      -9.778  -0.573   0.415  0.00  0.00    -0.323 N 
ATOM     16  C   UNL     1      -9.958   0.821   0.830  0.00  0.00    +0.130 C 
ATOM     17  H   UNL     1      -9.522  -4.191   1.208  0.00  0.00    +0.155 HD
ENDBRANCH   2   5
BRANCH   1  23
ATOM     18  C   UNL     1      -1.206  -2.314   0.596  0.00  0.00    +0.058 A 
ATOM     19  C   UNL     1       0.030  -2.955   0.481  0.00  0.00    +0.016 A 
ATOM     20  C   UNL     1       0.111  -4.189  -0.125  0.00  0.00    +0.021 A 
ATOM     21  C   UNL     1      -1.030  -4.801  -0.624  0.00  0.00    +0.043 A 
ATOM     22  C   UNL     1      -2.260  -4.179  -0.517  0.00  0.00    +0.044 A 
ATOM     23  C   UNL     1      -2.360  -2.937   0.096  0.00  0.00    +0.047 A 
ATOM     24 CL   UNL     1      -0.913  -6.356  -1.386  0.00  0.00    -0.083 Cl
BRANCH  18  27
ATOM     25  C   UNL     1      -0.300   0.870   2.457  0.00  0.00    +0.128 C 
ATOM     26  N   UNL     1      -0.207  -0.443   1.812  0.00  0.00    -0.314 N 
ATOM     27  C   UNL     1      -1.299  -0.993   1.244  0.00  0.00    +0.246 C 
ATOM     28  O   UNL     1      -2.360  -0.400   1.267  0.00  0.00    -0.270 OA
ATOM     29  H   UNL     1       0.639  -0.916   1.794  0.00  0.00    +0.149 HD
ENDBRANCH  18  27
ENDBRANCH   1  23
TORSDOF 3
