REMARK  Name = ZINC39685300
REMARK  7 active torsions:
REMARK  status: ('A' for Active; 'I' for Inactive)
REMARK    1  A    between atoms: C_3  and  O_8
REMARK    2  A    between atoms: O_8  and  C_9
REMARK    3  A    between atoms: C_9  and  C_10
REMARK    4  A    between atoms: C_10  and  N_11
REMARK    5  A    between atoms: C_12  and  C_14
REMARK    6  A    between atoms: C_25  and  C_27
REMARK    7  A    between atoms: C_30  and  C_33
REMARK                            x       y       z     vdW  Elec       q    Type
REMARK                         _______ _______ _______ _____ _____    ______ ____
ROOT
ATOM      1  C   UNL     1       6.791   4.947   3.346  0.00  0.00    +0.100 C 
ATOM      2  C   UNL     1       6.982   3.747   4.301  0.00  0.00    +0.121 C 
ATOM      3  N   UNL     1       8.445   3.674   4.522  0.00  0.00    -0.296 N 
ATOM      4  C   UNL     1       8.874   5.089   4.625  0.00  0.00    +0.115 C 
ATOM      5  C   UNL     1       8.033   5.827   3.564  0.00  0.00    -0.004 C 
ATOM      6  C   UNL     1       8.822   5.958   2.265  0.00  0.00    -0.010 C 
ATOM      7  C   UNL     1      10.021   6.883   2.493  0.00  0.00    -0.082 C 
ATOM      8  N   UNL     1       9.548   8.200   2.937  0.00  0.00    +0.379 N 
ATOM      9  C   UNL     1       8.870   8.078   4.233  0.00  0.00    -0.082 C 
ATOM     10  C   UNL     1       7.623   7.203   4.079  0.00  0.00    -0.010 C 
ATOM     11  C   UNL     1       9.213   2.569   4.609  0.00  0.00    +0.247 C 
ATOM     12  O   UNL     1       8.734   1.476   4.378  0.00  0.00    -0.270 OA
ATOM     13  H   UNL     1      10.334   8.826   3.028  0.00  0.00    -0.086 HD
ATOM     14  H   UNL     1       8.903   8.572   2.256  0.00  0.00    -0.086 HD
ENDROOT
BRANCH  11  15
ATOM     15  C   UNL     1      10.638   2.688   4.987  0.00  0.00    +0.037 A 
ATOM     16  C   UNL     1      11.092   3.822   5.662  0.00  0.00    +0.013 A 
ATOM     17  C   UNL     1      12.423   3.926   6.012  0.00  0.00    +0.013 A 
ATOM     18  C   UNL     1      13.306   2.909   5.695  0.00  0.00    +0.055 A 
ATOM     19  C   UNL     1      12.862   1.782   5.026  0.00  0.00    +0.013 A 
ATOM     20  C   UNL     1      11.533   1.663   4.676  0.00  0.00    +0.013 A 
BRANCH  18  21
ATOM     21  C   UNL     1      14.758   3.029   6.080  0.00  0.00    +0.417 C 
ATOM     22  F   UNL     1      14.949   2.483   7.354  0.00  0.00    -0.166 F 
ATOM     23  F   UNL     1      15.545   2.338   5.153  0.00  0.00    -0.166 F 
ATOM     24  F   UNL     1      15.127   4.378   6.091  0.00  0.00    -0.166 F 
ENDBRANCH  18  21
ENDBRANCH  11  15
BRANCH   1  26
ATOM     25  N   UNL     1       6.110   5.228   0.985  0.00  0.00    -0.312 N 
ATOM     26  C   UNL     1       6.727   4.474   1.917  0.00  0.00    +0.218 C 
ATOM     27  O   UNL     1       7.230   3.416   1.604  0.00  0.00    -0.275 OA
ATOM     28  H   UNL     1       5.707   6.074   1.234  0.00  0.00    +0.149 HD
BRANCH  25  29
ATOM     29  C   UNL     1       6.048   4.769  -0.405  0.00  0.00    +0.145 C 
BRANCH  29  30
ATOM     30  C   UNL     1       5.299   5.801  -1.250  0.00  0.00    +0.247 C 
BRANCH  30  31
ATOM     31  O   UNL     1       6.046   7.019  -1.287  0.00  0.00    -0.490 OA
BRANCH  31  34
ATOM     32  C   UNL     1       5.650  10.301  -2.807  0.00  0.00    +0.006 A 
ATOM     33  C   UNL     1       6.189   9.257  -2.080  0.00  0.00    +0.046 A 
ATOM     34  C   UNL     1       5.516   8.046  -2.002  0.00  0.00    +0.123 A 
ATOM     35  C   UNL     1       4.303   7.886  -2.654  0.00  0.00    +0.084 A 
ATOM     36  C   UNL     1       3.766   8.933  -3.381  0.00  0.00    +0.127 A 
ATOM     37  C   UNL     1       4.441  10.141  -3.457  0.00  0.00    +0.038 A 
ATOM     38  F   UNL     1       2.584   8.778  -4.016  0.00  0.00    -0.205 F 
ENDBRANCH  31  34
ENDBRANCH  30  31
ENDBRANCH  29  30
ENDBRANCH  25  29
ENDBRANCH   1  26
TORSDOF 7
