REMARK  Name = ZINC51096423
REMARK  5 active torsions:
REMARK  status: ('A' for Active; 'I' for Inactive)
REMARK    1  A    between atoms: C_3  and  N_8
REMARK    2  A    between atoms: C_9  and  C_11
REMARK    3  A    between atoms: C_13  and  N_20
REMARK    4  A    between atoms: C_16  and  N_17
REMARK    5  A    between atoms: N_20  and  N_21
REMARK                            x       y       z     vdW  Elec       q    Type
REMARK                         _______ _______ _______ _____ _____    ______ ____
ROOT
ATOM      1  C   UNL     1       6.119   2.067   0.038  0.00  0.00    +0.069 A 
ATOM      2  C   UNL     1       6.191   3.457   0.133  0.00  0.00    +0.039 A 
ATOM      3  C   UNL     1       7.427   4.079   0.214  0.00  0.00    +0.042 A 
ATOM      4  C   UNL     1       8.590   3.317   0.200  0.00  0.00    +0.026 A 
ATOM      5  C   UNL     1       8.519   1.940   0.105  0.00  0.00    +0.035 A 
ATOM      6  C   UNL     1       7.293   1.311   0.029  0.00  0.00    +0.138 A 
ENDROOT
BRANCH   1   8
ATOM      7  N   UNL     1       3.872   1.617   0.898  0.00  0.00    -0.281 N 
ATOM      8  C   UNL     1       4.805   1.396  -0.049  0.00  0.00    +0.251 C 
ATOM      9  O   UNL     1       4.566   0.644  -0.973  0.00  0.00    -0.270 OA
ATOM     10  H   UNL     1       4.039   2.264   1.602  0.00  0.00    +0.155 HD
BRANCH   7  13
ATOM     11  C   UNL     1       0.850  -0.153   2.016  0.00  0.00    +0.003 A 
ATOM     12  C   UNL     1       2.044   0.539   2.051  0.00  0.00    +0.023 A 
ATOM     13  C   UNL     1       2.662   0.916   0.866  0.00  0.00    +0.035 A 
ATOM     14  C   UNL     1       2.076   0.595  -0.352  0.00  0.00    +0.038 A 
ATOM     15  C   UNL     1       0.881  -0.098  -0.380  0.00  0.00    +0.020 A 
ATOM     16  C   UNL     1       0.268  -0.471   0.803  0.00  0.00    +0.015 A 
ATOM     17 BR   UNL     1       0.082  -0.535  -2.037  0.00  0.00    -0.050 Br
ENDBRANCH   7  13
ENDBRANCH   1   8
BRANCH   6  18
ATOM     18  N   UNL     1       7.223  -0.164  -0.066  0.00  0.00    +0.057 N 
ATOM     19  O   UNL     1       8.237  -0.811  -0.192  0.00  0.00    -0.126 OA
ATOM     20  O   UNL     1       6.152  -0.723  -0.018  0.00  0.00    -0.126 OA
ENDBRANCH   6  18
BRANCH   3  21
ATOM     21  N   UNL     1       7.504   5.470   0.310  0.00  0.00    -0.283 N 
ATOM     22  H   UNL     1       6.692   6.001   0.319  0.00  0.00    +0.166 HD
BRANCH  21  23
ATOM     23  N   UNL     1       8.722   6.083   0.389  0.00  0.00    -0.257 NA
ATOM     24  H   UNL     1       9.307   5.828  -0.393  0.00  0.00    +0.140 HD
ATOM     25  H   UNL     1       8.620   7.085   0.453  0.00  0.00    +0.140 HD
ENDBRANCH  21  23
ENDBRANCH   3  21
TORSDOF 5
