REMARK  Name = ZINC32647311
REMARK  6 active torsions:
REMARK  status: ('A' for Active; 'I' for Inactive)
REMARK    1  A    between atoms: C_1  and  C_2
REMARK    2  A    between atoms: C_3  and  N_9
REMARK    3  A    between atoms: C_10  and  C_12
REMARK    4  A    between atoms: C_12  and  N_13
REMARK    5  A    between atoms: C_17  and  C_24
REMARK    6  A    between atoms: N_18  and  C_23
REMARK                            x       y       z     vdW  Elec       q    Type
REMARK                         _______ _______ _______ _____ _____    ______ ____
ROOT
ATOM      1  C   UNL     1       1.022  -2.212  -0.019  0.00  0.00    +0.222 C 
ENDROOT
BRANCH   1   2
ATOM      2  N   UNL     1       1.124  -0.751  -0.012  0.00  0.00    -0.288 N 
ATOM      3  C   UNL     1      -0.015  -0.004  -0.006  0.00  0.00    +0.203 A 
ATOM      4  N   UNL     1      -0.034   1.292   0.000  0.00  0.00    -0.234 NA
ATOM      5  C   UNL     1       1.116   2.015   0.002  0.00  0.00    +0.118 A 
ATOM      6  C   UNL     1       1.462   3.332   0.007  0.00  0.00    +0.062 A 
ATOM      7  N   UNL     1       2.810   3.389   0.005  0.00  0.00    -0.269 N 
ATOM      8  N   UNL     1       3.335   2.215  -0.001  0.00  0.00    -0.164 NA
ATOM      9  C   UNL     1       2.401   1.296  -0.004  0.00  0.00    +0.175 A 
ATOM     10  C   UNL     1       2.348  -0.173  -0.011  0.00  0.00    +0.282 A 
ATOM     11  O   UNL     1       3.364  -0.843  -0.016  0.00  0.00    -0.265 OA
ATOM     12  C   UNL     1       3.581   4.635   0.010  0.00  0.00    +0.172 C 
ATOM     13  C   UNL     1       0.516   4.506   0.015  0.00  0.00    +0.067 C 
ENDBRANCH   1   2
BRANCH   1  15
ATOM     14  N   UNL     1       0.893  -4.027  -1.694  0.00  0.00    -0.284 N 
ATOM     15  C   UNL     1       0.985  -2.707  -1.442  0.00  0.00    +0.237 C 
ATOM     16  O   UNL     1       1.038  -1.916  -2.360  0.00  0.00    -0.274 OA
ATOM     17  H   UNL     1       0.936  -4.750  -0.866  0.00  0.00    +0.155 HD
BRANCH  14  20
ATOM     18  C   UNL     1       1.768  -6.662  -2.318  0.00  0.00    +0.047 C 
ATOM     19  C   UNL     1       1.156  -5.758  -3.358  0.00  0.00    -0.011 A 
ATOM     20  C   UNL     1       0.742  -4.479  -3.010  0.00  0.00    +0.038 A 
ATOM     21  C   UNL     1       0.183  -3.648  -3.971  0.00  0.00    +0.023 A 
ATOM     22  C   UNL     1       0.036  -4.096  -5.269  0.00  0.00    +0.003 A 
ATOM     23  C   UNL     1       0.443  -5.372  -5.612  0.00  0.00    +0.020 A 
ATOM     24  C   UNL     1       1.001  -6.204  -4.657  0.00  0.00    +0.046 A 
ATOM     25 CL   UNL     1       1.512  -7.805  -5.092  0.00  0.00    -0.083 Cl
ENDBRANCH  14  20
ENDBRANCH   1  15
TORSDOF 3
