REMARK  Name = ZINC20744422
REMARK  10 active torsions:
REMARK  status: ('A' for Active; 'I' for Inactive)
REMARK    1  A    between atoms: C_1  and  O_2
REMARK    2  A    between atoms: O_2  and  C_3
REMARK    3  A    between atoms: C_3  and  C_5
REMARK    4  A    between atoms: C_5  and  C_6
REMARK    5  A    between atoms: C_6  and  C_7
REMARK    6  A    between atoms: C_7  and  C_9
REMARK    7  A    between atoms: C_7  and  N_13
REMARK    8  A    between atoms: C_9  and  O_11
REMARK    9  A    between atoms: O_11  and  C_12
REMARK   10  A    between atoms: C_25  and  C_27
REMARK                            x       y       z     vdW  Elec       q    Type
REMARK                         _______ _______ _______ _____ _____    ______ ____
ROOT
ATOM      1  N   UNL     1      -1.681  -6.746  -0.171  0.00  0.00    -0.286 N 
ATOM      2  C   UNL     1      -1.696  -5.921  -1.236  0.00  0.00    +0.304 C 
ATOM      3  O   UNL     1      -2.247  -4.840  -1.160  0.00  0.00    -0.253 OA
ATOM      4  N   UNL     1      -1.099  -6.295  -2.386  0.00  0.00    -0.273 N 
ATOM      5  C   UNL     1      -1.003  -5.366  -3.522  0.00  0.00    +0.116 C 
ATOM      6  C   UNL     1      -1.815  -5.922  -4.698  0.00  0.00    +0.076 C 
ATOM      7  C   UNL     1      -1.504  -7.389  -4.854  0.00  0.00    +0.066 A 
ATOM      8  C   UNL     1      -0.937  -8.155  -3.896  0.00  0.00    +0.064 A 
ATOM      9  N   UNL     1      -0.821  -9.412  -4.401  0.00  0.00    -0.346 N 
ATOM     10  H   UNL     1      -0.451 -10.185  -3.946  0.00  0.00    +0.167 HD
ATOM     11  C   UNL     1      -1.317  -9.380  -5.659  0.00  0.00    +0.197 A 
ATOM     12  N   UNL     1      -1.723  -8.165  -5.920  0.00  0.00    -0.240 NA
ATOM     13  C   UNL     1      -0.522  -7.643  -2.535  0.00  0.00    +0.159 C 
ATOM     14  H   UNL     1      -1.303  -7.636  -0.251  0.00  0.00    +0.151 HD
ENDROOT
BRANCH  13  15
ATOM     15  C   UNL     1       0.981  -7.570  -2.446  0.00  0.00    +0.014 A 
ATOM     16  C   UNL     1       1.745  -7.638  -3.596  0.00  0.00    +0.010 A 
ATOM     17  C   UNL     1       3.123  -7.571  -3.516  0.00  0.00    +0.020 A 
ATOM     18  C   UNL     1       3.740  -7.436  -2.284  0.00  0.00    +0.044 A 
ATOM     19  C   UNL     1       2.977  -7.367  -1.133  0.00  0.00    +0.058 A 
ATOM     20  C   UNL     1       1.596  -7.429  -1.214  0.00  0.00    +0.130 A 
ATOM     21  F   UNL     1       0.849  -7.357  -0.090  0.00  0.00    -0.205 F 
ATOM     22 CL   UNL     1       5.471  -7.353  -2.185  0.00  0.00    -0.083 Cl
ENDBRANCH  13  15
BRANCH   1  23
ATOM     23  C   UNL     1      -2.237  -6.300   1.109  0.00  0.00    +0.184 C 
BRANCH  23  24
ATOM     24  C   UNL     1      -1.188  -5.532   1.872  0.00  0.00    +0.327 C 
ATOM     25  O   UNL     1      -0.089  -5.374   1.395  0.00  0.00    -0.249 OA
BRANCH  24  26
ATOM     26  O   UNL     1      -1.475  -5.023   3.080  0.00  0.00    -0.467 OA
ATOM     27  C   UNL     1      -0.433  -4.307   3.747  0.00  0.00    +0.280 C 
ENDBRANCH  24  26
ENDBRANCH  23  24
BRANCH  23  28
ATOM     28  C   UNL     1      -2.674  -7.516   1.928  0.00  0.00    +0.045 C 
BRANCH  28  29
ATOM     29  C   UNL     1      -3.825  -8.226   1.212  0.00  0.00    +0.123 C 
BRANCH  29  30
ATOM     30  C   UNL     1      -4.256  -9.424   2.018  0.00  0.00    +0.307 C 
ATOM     31  O   UNL     1      -3.699  -9.684   3.058  0.00  0.00    -0.251 OA
BRANCH  30  33
ATOM     32  C   UNL     1      -5.613 -11.321   2.395  0.00  0.00    +0.280 C 
ATOM     33  O   UNL     1      -5.258 -10.202   1.581  0.00  0.00    -0.468 OA
ENDBRANCH  30  33
ENDBRANCH  29  30
ENDBRANCH  28  29
ENDBRANCH  23  28
ENDBRANCH   1  23
TORSDOF 8
