REMARK  Name = ZINC63806831
REMARK  10 active torsions:
REMARK  status: ('A' for Active; 'I' for Inactive)
REMARK    1  A    between atoms: C_4  and  C_7
REMARK    2  A    between atoms: C_7  and  C_9
REMARK    3  A    between atoms: C_7  and  C_24
REMARK    4  A    between atoms: C_9  and  N_10
REMARK    5  A    between atoms: N_10  and  C_11
REMARK    6  A    between atoms: C_11  and  C_12
REMARK    7  A    between atoms: C_12  and  C_14
REMARK    8  A    between atoms: C_12  and  O_23
REMARK    9  A    between atoms: C_14  and  O_15
REMARK   10  A    between atoms: O_15  and  C_16
REMARK                            x       y       z     vdW  Elec       q    Type
REMARK                         _______ _______ _______ _____ _____    ______ ____
ROOT
ATOM      1  C   UNL     1       3.711  -0.707  -0.038  0.00  0.00    +0.030 C 
ENDROOT
BRANCH   1   2
ATOM      2  C   UNL     1       3.816  -1.579   1.188  0.00  0.00    -0.036 C 
ATOM      3  C   UNL     1       4.756  -1.509   2.157  0.00  0.00    -0.001 A 
ATOM      4  C   UNL     1       5.920  -0.636   2.352  0.00  0.00    +0.010 A 
ATOM      5  C   UNL     1       6.696  -0.812   3.446  0.00  0.00    +0.001 A 
ATOM      6  C   UNL     1       6.417  -1.805   4.396  0.00  0.00    +0.002 A 
ATOM      7  C   UNL     1       5.366  -2.646   4.285  0.00  0.00    +0.026 A 
ATOM      8  C   UNL     1       4.483  -2.550   3.174  0.00  0.00    +0.043 A 
ATOM      9  N   UNL     1       3.415  -3.236   2.846  0.00  0.00    -0.380 N 
ATOM     10  C   UNL     1       2.886  -2.703   1.585  0.00  0.00    +0.145 C 
ATOM     11  H   UNL     1       3.036  -3.970   3.354  0.00  0.00    +0.160 HD
ENDBRANCH   1   2
BRANCH   1  15
ATOM     12  C   UNL     1      -0.017   1.378   0.010  0.00  0.00    +0.000 A 
ATOM     13  C   UNL     1       1.171   2.086   0.002  0.00  0.00    +0.000 A 
ATOM     14  C   UNL     1       2.377   1.411  -0.013  0.00  0.00    +0.004 A 
ATOM     15  C   UNL     1       2.396   0.029  -0.020  0.00  0.00    -0.042 A 
ATOM     16  C   UNL     1       1.208  -0.679  -0.012  0.00  0.00    +0.004 A 
ATOM     17  C   UNL     1       0.002  -0.004   0.002  0.00  0.00    +0.000 A 
ENDBRANCH   1  15
BRANCH   1  18
ATOM     18  C   UNL     1       3.791  -1.579  -1.292  0.00  0.00    -0.070 C 
BRANCH  18  19
ATOM     19  N   UNL     1       3.810  -0.722  -2.485  0.00  0.00    +0.381 N 
ATOM     20  H   UNL     1       2.967  -0.167  -2.513  0.00  0.00    -0.086 HD
ATOM     21  H   UNL     1       4.612  -0.111  -2.447  0.00  0.00    -0.086 HD
BRANCH  19  22
ATOM     22  C   UNL     1       3.886  -1.559  -3.689  0.00  0.00    -0.047 C 
BRANCH  22  23
ATOM     23  C   UNL     1       3.906  -0.665  -4.931  0.00  0.00    +0.135 C 
BRANCH  23  24
ATOM     24  O   UNL     1       2.712   0.119  -4.972  0.00  0.00    -0.390 OA
ATOM     25  H   UNL     1       1.899  -0.403  -5.008  0.00  0.00    +0.210 HD
ENDBRANCH  23  24
BRANCH  23  26
ATOM     26  C   UNL     1       3.986  -1.538  -6.185  0.00  0.00    +0.258 C 
BRANCH  26  27
ATOM     27  O   UNL     1       4.121  -0.704  -7.338  0.00  0.00    -0.487 OA
BRANCH  27  28
ATOM     28  C   UNL     1       4.206  -1.326  -8.543  0.00  0.00    +0.156 A 
ATOM     29  C   UNL     1       4.154  -2.709  -8.616  0.00  0.00    +0.048 A 
ATOM     30  C   UNL     1       4.241  -3.340  -9.843  0.00  0.00    +0.004 A 
ATOM     31  C   UNL     1       4.380  -2.593 -10.998  0.00  0.00    +0.003 A 
ATOM     32  C   UNL     1       4.432  -1.213 -10.930  0.00  0.00    +0.042 A 
ATOM     33  C   UNL     1       4.339  -0.576  -9.705  0.00  0.00    +0.165 A 
ATOM     34  F   UNL     1       4.385   0.773  -9.639  0.00  0.00    -0.202 F 
ENDBRANCH  27  28
ENDBRANCH  26  27
ENDBRANCH  23  26
ENDBRANCH  22  23
ENDBRANCH  19  22
ENDBRANCH  18  19
ENDBRANCH   1  18
TORSDOF 10
