REMARK  Name = ZINC37178211
REMARK  5 active torsions:
REMARK  status: ('A' for Active; 'I' for Inactive)
REMARK    1  A    between atoms: C_1  and  C_2
REMARK    2  A    between atoms: C_2  and  C_4
REMARK    3  A    between atoms: C_2  and  N_11
REMARK    4  A    between atoms: C_9  and  N_10
REMARK    5  A    between atoms: C_12  and  C_14
REMARK                            x       y       z     vdW  Elec       q    Type
REMARK                         _______ _______ _______ _____ _____    ______ ____
ROOT
ATOM      1  C   UNL     1      -0.042   1.525   0.023  0.00  0.00    +0.033 C 
ATOM      2  C   UNL     1       0.002  -0.004   0.002  0.00  0.00    +0.102 C 
ENDROOT
BRANCH   2   3
ATOM      3  C   UNL     1       0.807  -0.467  -1.185  0.00  0.00    -0.007 A 
ATOM      4  C   UNL     1       2.158  -0.719  -1.048  0.00  0.00    +0.007 A 
ATOM      5  C   UNL     1       2.898  -1.143  -2.136  0.00  0.00    +0.000 A 
ATOM      6  C   UNL     1       2.288  -1.317  -3.365  0.00  0.00    +0.002 A 
ATOM      7  C   UNL     1       0.937  -1.067  -3.509  0.00  0.00    +0.023 A 
ATOM      8  C   UNL     1       0.190  -0.646  -2.416  0.00  0.00    +0.030 A 
BRANCH   8   9
ATOM      9  N   UNL     1      -1.177  -0.398  -2.557  0.00  0.00    -0.358 N 
ATOM     10  H   UNL     1      -1.697  -0.100  -1.794  0.00  0.00    +0.142 HD
ATOM     11  H   UNL     1      -1.607  -0.523  -3.417  0.00  0.00    +0.142 HD
ENDBRANCH   8   9
ENDBRANCH   2   3
BRANCH   2  12
ATOM     12  N   UNL     1       0.625  -0.492   1.235  0.00  0.00    -0.305 N 
ATOM     13  C   UNL     1      -0.128  -0.700   2.333  0.00  0.00    +0.245 C 
ATOM     14  O   UNL     1      -1.323  -0.483   2.301  0.00  0.00    -0.270 OA
ATOM     15  H   UNL     1       1.579  -0.665   1.261  0.00  0.00    +0.150 HD
BRANCH  13  16
ATOM     16  C   UNL     1       0.501  -1.192   3.577  0.00  0.00    +0.037 A 
ATOM     17  C   UNL     1       1.875  -1.437   3.619  0.00  0.00    +0.014 A 
ATOM     18  C   UNL     1       2.455  -1.897   4.783  0.00  0.00    +0.016 A 
ATOM     19  C   UNL     1       1.679  -2.115   5.908  0.00  0.00    +0.018 A 
ATOM     20  C   UNL     1       0.316  -1.874   5.873  0.00  0.00    +0.016 A 
ATOM     21  C   UNL     1      -0.276  -1.409   4.717  0.00  0.00    +0.014 A 
ATOM     22 BR   UNL     1       2.483  -2.745   7.499  0.00  0.00    -0.050 Br
ENDBRANCH  13  16
ENDBRANCH   2  12
TORSDOF 4
