REMARK  Name = ZINC04694302
REMARK  9 active torsions:
REMARK  status: ('A' for Active; 'I' for Inactive)
REMARK    1  A    between atoms: C_1  and  C_2
REMARK    2  A    between atoms: C_4  and  O_10
REMARK    3  A    between atoms: C_6  and  C_9
REMARK    4  A    between atoms: O_10  and  C_11
REMARK    5  A    between atoms: C_11  and  C_12
REMARK    6  A    between atoms: N_14  and  C_15
REMARK    7  A    between atoms: C_18  and  N_23
REMARK    8  A    between atoms: C_20  and  O_21
REMARK    9  A    between atoms: O_21  and  C_22
REMARK                            x       y       z     vdW  Elec       q    Type
REMARK                         _______ _______ _______ _____ _____    ______ ____
ROOT
ATOM      1  C   UNL     1      -4.783   0.889   0.037  0.00  0.00    +0.255 C 
ATOM      2  O   UNL     1      -4.610  -0.311   0.026  0.00  0.00    -0.272 OA
ATOM      3  N   UNL     1      -6.035   1.389   0.038  0.00  0.00    -0.280 N 
ATOM      4  H   UNL     1      -6.175   2.346   0.112  0.00  0.00    +0.155 HD
ENDROOT
BRANCH   3   5
ATOM      5  C   UNL     1      -7.134   0.527  -0.067  0.00  0.00    +0.076 A 
ATOM      6  C   UNL     1      -7.090  -0.731   0.516  0.00  0.00    +0.029 A 
ATOM      7  C   UNL     1      -8.175  -1.580   0.411  0.00  0.00    +0.035 A 
ATOM      8  C   UNL     1      -9.307  -1.179  -0.274  0.00  0.00    +0.130 A 
ATOM      9  C   UNL     1      -9.359   0.073  -0.858  0.00  0.00    +0.080 A 
ATOM     10  C   UNL     1      -8.277   0.932  -0.753  0.00  0.00    +0.143 A 
BRANCH   8  11
ATOM     11  N   UNL     1     -10.467  -2.092  -0.383  0.00  0.00    +0.057 N 
ATOM     12  O   UNL     1     -10.423  -3.196   0.132  0.00  0.00    -0.126 OA
ATOM     13  O   UNL     1     -11.465  -1.741  -0.986  0.00  0.00    -0.126 OA
ENDBRANCH   8  11
BRANCH  10  14
ATOM     14  O   UNL     1      -8.328   2.166  -1.322  0.00  0.00    -0.493 OA
ATOM     15  C   UNL     1      -9.532   2.514  -2.010  0.00  0.00    +0.277 C 
ENDBRANCH  10  14
ENDBRANCH   3   5
BRANCH   1  16
ATOM     16  C   UNL     1      -3.599   1.821   0.049  0.00  0.00    +0.324 C 
BRANCH  16  17
ATOM     17  O   UNL     1      -2.392   1.057   0.045  0.00  0.00    -0.483 OA
BRANCH  17  21
ATOM     18  C   UNL     1       2.489   1.043   0.046  0.00  0.00    +0.045 C 
ATOM     19  C   UNL     1       1.174   1.780   0.056  0.00  0.00    -0.028 A 
ATOM     20  C   UNL     1      -0.013   1.073   0.052  0.00  0.00    +0.050 A 
ATOM     21  C   UNL     1      -1.223   1.751   0.055  0.00  0.00    +0.122 A 
ATOM     22  C   UNL     1      -1.238   3.138   0.074  0.00  0.00    +0.050 A 
ATOM     23  C   UNL     1      -0.049   3.841   0.078  0.00  0.00    -0.028 A 
ATOM     24  C   UNL     1       1.157   3.163   0.069  0.00  0.00    +0.047 A 
ATOM     25 CL   UNL     1       2.650   4.049   0.074  0.00  0.00    -0.083 Cl
ATOM     26  C   UNL     1      -0.066   5.348   0.093  0.00  0.00    +0.045 C 
ENDBRANCH  17  21
ENDBRANCH  16  17
ENDBRANCH   1  16
TORSDOF 6
