REMARK  Name = ZINC51021898
REMARK  5 active torsions:
REMARK  status: ('A' for Active; 'I' for Inactive)
REMARK    1  A    between atoms: C_1  and  C_2
REMARK    2  A    between atoms: C_3  and  N_19
REMARK    3  A    between atoms: C_4  and  S_8
REMARK    4  A    between atoms: N_5  and  C_7
REMARK    5  A    between atoms: S_8  and  C_9
REMARK                            x       y       z     vdW  Elec       q    Type
REMARK                         _______ _______ _______ _____ _____    ______ ____
ROOT
ATOM      1  S   UNL     1       0.043  -3.540  -1.762  0.00  0.00    -0.047 S 
ENDROOT
BRANCH   1   2
ATOM      2  C   UNL     1       1.537  -4.367  -1.329  0.00  0.00    +0.132 A 
ATOM      3  C   UNL     1       1.902  -5.559  -1.960  0.00  0.00    +0.118 A 
ATOM      4  C   UNL     1       3.103  -6.181  -1.581  0.00  0.00    +0.182 A 
ATOM      5  N   UNL     1       3.219  -7.295  -2.328  0.00  0.00    -0.216 NA
ATOM      6  H   UNL     1       0.517  -6.200  -3.408  0.00  0.00    +0.167 HD
ATOM      7  C   UNL     1       2.193  -7.399  -3.125  0.00  0.00    +0.199 A 
ATOM      8  N   UNL     1       1.351  -6.357  -2.940  0.00  0.00    -0.341 N 
ATOM      9  N   UNL     1       3.850  -5.607  -0.631  0.00  0.00    -0.214 NA
ATOM     10  C   UNL     1       3.466  -4.484  -0.065  0.00  0.00    +0.224 A 
ATOM     11  N   UNL     1       2.347  -3.867  -0.398  0.00  0.00    -0.227 NA
ENDBRANCH   1   2
BRANCH   1  15
ATOM     12  C   UNL     1      -0.018   1.503   0.010  0.00  0.00    +0.069 C 
ATOM     13  C   UNL     1       0.002  -0.004   0.002  0.00  0.00    +0.082 A 
ATOM     14  C   UNL     1       0.008  -0.816  -1.138  0.00  0.00    +0.080 A 
ATOM     15  C   UNL     1       0.028  -2.116  -0.725  0.00  0.00    +0.121 A 
ATOM     16  N   UNL     1       0.035  -2.110   0.637  0.00  0.00    -0.259 N 
ATOM     17  N   UNL     1       0.023  -0.775   1.060  0.00  0.00    -0.174 NA
ATOM     18  C   UNL     1       0.056  -3.290   1.505  0.00  0.00    +0.173 C 
BRANCH  14  19
ATOM     19  N   UNL     1      -0.005  -0.369  -2.478  0.00  0.00    -0.354 N 
ATOM     20  H   UNL     1      -0.020   0.582  -2.672  0.00  0.00    +0.142 HD
ATOM     21  H   UNL     1      -0.000  -1.012  -3.204  0.00  0.00    +0.142 HD
ENDBRANCH  14  19
ENDBRANCH   1  15
TORSDOF 3
