REMARK  Name = ZINC34756694
REMARK  5 active torsions:
REMARK  status: ('A' for Active; 'I' for Inactive)
REMARK    1  A    between atoms: C_1  and  N_2
REMARK    2  A    between atoms: N_2  and  C_3
REMARK    3  A    between atoms: N_13  and  C_16
REMARK    4  A    between atoms: N_24  and  S_26
REMARK    5  A    between atoms: S_26  and  C_29
REMARK                            x       y       z     vdW  Elec       q    Type
REMARK                         _______ _______ _______ _____ _____    ______ ____
ROOT
ATOM      1  C   UNL     1      -1.265   0.471   0.563  0.00  0.00    +0.130 C 
ATOM      2  N   UNL     1       0.002  -0.004   0.002  0.00  0.00    -0.321 N 
ATOM      3  C   UNL     1       1.268   0.340   0.655  0.00  0.00    +0.130 C 
ATOM      4  C   UNL     1       0.004  -0.779  -1.146  0.00  0.00    +0.131 A 
ATOM      5  C   UNL     1       0.043  -0.175  -2.409  0.00  0.00    +0.030 A 
ATOM      6  C   UNL     1       0.049  -0.976  -3.524  0.00  0.00    +0.054 A 
ATOM      7  N   UNL     1       0.004  -2.298  -3.365  0.00  0.00    -0.219 NA
ATOM      8  C   UNL     1      -0.035  -2.844  -2.161  0.00  0.00    +0.220 A 
ATOM      9  N   UNL     1      -0.027  -2.104  -1.063  0.00  0.00    -0.199 NA
ATOM     10  N   UNL     1      -0.079  -4.222  -2.047  0.00  0.00    -0.303 N 
ATOM     11  C   UNL     1      -0.077  -5.081  -3.241  0.00  0.00    +0.089 C 
ATOM     12  C   UNL     1       1.008  -6.149  -3.070  0.00  0.00    -0.059 C 
ATOM     13  N   UNL     1       0.792  -6.867  -1.807  0.00  0.00    +0.384 N 
ATOM     14  C   UNL     1       0.959  -5.948  -0.674  0.00  0.00    -0.059 C 
ATOM     15  C   UNL     1      -0.123  -4.870  -0.727  0.00  0.00    +0.089 C 
ATOM     16  C   UNL     1       0.121  -0.429  -4.923  0.00  0.00    +0.073 C 
ATOM     17  C   UNL     1      -0.312   1.036  -4.955  0.00  0.00    +0.116 C 
ATOM     18  N   UNL     1       0.381   1.740  -3.864  0.00  0.00    -0.172 NA
ATOM     19  C   UNL     1       0.069   1.328  -2.490  0.00  0.00    +0.149 C 
ATOM     20  H   UNL     1      -0.143  -7.248  -1.794  0.00  0.00    -0.081 HD
ENDROOT
BRANCH  13  21
ATOM     21  C   UNL     1       1.765  -7.962  -1.695  0.00  0.00    -0.068 C 
ATOM     22  C   UNL     1       1.584  -8.927  -2.869  0.00  0.00    -0.015 C 
ATOM     23  C   UNL     1       2.598 -10.067  -2.753  0.00  0.00    -0.002 C 
ATOM     24  C   UNL     1       2.373 -10.816  -1.438  0.00  0.00    -0.000 C 
ATOM     25  C   UNL     1       2.554  -9.852  -0.264  0.00  0.00    -0.002 C 
ATOM     26  C   UNL     1       1.541  -8.711  -0.380  0.00  0.00    -0.015 C 
ENDBRANCH  13  21
BRANCH  18  27
ATOM     27  S   UNL     1       1.470   2.949  -4.173  0.00  0.00    +0.061 S 
ATOM     28  O   UNL     1       2.331   3.018  -3.046  0.00  0.00    -0.153 OA
ATOM     29  O   UNL     1       1.955   2.730  -5.491  0.00  0.00    -0.153 OA
BRANCH  27  30
ATOM     30  C   UNL     1       0.569   4.463  -4.213  0.00  0.00    +0.106 A 
ATOM     31  C   UNL     1       0.031   4.916  -5.403  0.00  0.00    +0.030 A 
ATOM     32  C   UNL     1      -0.675   6.104  -5.435  0.00  0.00    +0.022 A 
ATOM     33  C   UNL     1      -0.843   6.840  -4.276  0.00  0.00    +0.041 A 
ATOM     34  C   UNL     1      -0.304   6.386  -3.085  0.00  0.00    +0.022 A 
ATOM     35  C   UNL     1       0.397   5.196  -3.053  0.00  0.00    +0.030 A 
ATOM     36 CL   UNL     1      -1.729   8.332  -4.315  0.00  0.00    -0.084 Cl
ENDBRANCH  27  30
ENDBRANCH  18  27
TORSDOF 3
