REMARK  Name = ZINC01093106
REMARK  8 active torsions:
REMARK  status: ('A' for Active; 'I' for Inactive)
REMARK    1  A    between atoms: C_1  and  C_2
REMARK    2  A    between atoms: C_4  and  C_28
REMARK    3  A    between atoms: C_5  and  O_9
REMARK    4  A    between atoms: C_6  and  C_8
REMARK    5  A    between atoms: O_9  and  C_10
REMARK    6  A    between atoms: C_10  and  C_11
REMARK    7  A    between atoms: C_14  and  C_23
REMARK    8  A    between atoms: C_14  and  O_27
REMARK                            x       y       z     vdW  Elec       q    Type
REMARK                         _______ _______ _______ _____ _____    ______ ____
ROOT
ATOM      1  C   UNL     1       1.670  -2.085  -4.140  0.00  0.00    +0.275 C 
ATOM      2  O   UNL     1       2.607  -2.064  -4.910  0.00  0.00    -0.270 OA
ATOM      3  N   UNL     1       1.674  -1.288  -3.053  0.00  0.00    -0.149 N 
ATOM      4  C   UNL     1       2.746  -0.348  -2.679  0.00  0.00    +0.259 C 
ATOM      5  C   UNL     1       2.296   0.165  -1.305  0.00  0.00    +0.096 C 
ATOM      6  C   UNL     1       2.143   1.687  -1.285  0.00  0.00    +0.014 C 
ATOM      7  C   UNL     1       1.406   2.081  -0.000  0.00  0.00    +0.001 C 
ATOM      8  C   UNL     1      -0.019   1.533   0.011  0.00  0.00    +0.006 C 
ATOM      9  C   UNL     1       0.002  -0.004   0.002  0.00  0.00    +0.053 C 
ATOM     10  C   UNL     1       0.897  -0.416  -1.147  0.00  0.00    +0.045 C 
ATOM     11  N   UNL     1       0.663  -1.217  -2.093  0.00  0.00    -0.183 NA
ENDROOT
BRANCH   4  12
ATOM     12  C   UNL     1       4.089  -1.074  -2.571  0.00  0.00    +0.438 C 
ATOM     13  F   UNL     1       4.421  -1.626  -3.813  0.00  0.00    -0.166 F 
ATOM     14  F   UNL     1       5.080  -0.166  -2.183  0.00  0.00    -0.166 F 
ATOM     15  F   UNL     1       3.992  -2.094  -1.618  0.00  0.00    -0.166 F 
ENDBRANCH   4  12
BRANCH   4  16
ATOM     16  O   UNL     1       2.826   0.727  -3.617  0.00  0.00    -0.363 OA
ATOM     17  H   UNL     1       3.034   0.446  -4.519  0.00  0.00    +0.212 HD
ENDBRANCH   4  16
BRANCH   1  18
ATOM     18  C   UNL     1       0.502  -3.001  -4.400  0.00  0.00    +0.326 C 
BRANCH  18  19
ATOM     19  O   UNL     1       0.732  -3.737  -5.603  0.00  0.00    -0.482 OA
BRANCH  19  24
ATOM     20  C   UNL     1      -3.268  -7.375  -7.179  0.00  0.00    +0.044 C 
ATOM     21  C   UNL     1      -2.198  -6.402  -6.757  0.00  0.00    -0.050 A 
ATOM     22  C   UNL     1      -2.246  -5.091  -7.196  0.00  0.00    +0.010 A 
ATOM     23  C   UNL     1      -1.266  -4.197  -6.811  0.00  0.00    -0.008 A 
ATOM     24  C   UNL     1      -0.233  -4.614  -5.983  0.00  0.00    +0.127 A 
ATOM     25  C   UNL     1      -0.185  -5.931  -5.549  0.00  0.00    -0.008 A 
ATOM     26  C   UNL     1      -1.170  -6.821  -5.933  0.00  0.00    +0.010 A 
ATOM     27  C   UNL     1       0.939  -6.390  -4.656  0.00  0.00    +0.047 C 
ATOM     28  C   UNL     1      -1.318  -2.769  -7.289  0.00  0.00    +0.047 C 
ENDBRANCH  19  24
ENDBRANCH  18  19
ENDBRANCH   1  18
TORSDOF 5
