REMARK  Name = ZINC04766258
REMARK  11 active torsions:
REMARK  status: ('A' for Active; 'I' for Inactive)
REMARK    1  A    between atoms: C_1  and  C_2
REMARK    2  A    between atoms: C_7  and  C_19
REMARK    3  A    between atoms: C_9  and  C_13
REMARK    4  A    between atoms: C_10  and  C_12
REMARK    5  A    between atoms: C_13  and  O_15
REMARK    6  A    between atoms: O_15  and  C_16
REMARK    7  A    between atoms: C_16  and  C_17
REMARK    8  A    between atoms: C_16  and  C_18
REMARK    9  A    between atoms: C_32  and  C_34
REMARK   10  A    between atoms: C_34  and  O_36
REMARK   11  A    between atoms: O_36  and  C_37
REMARK                            x       y       z     vdW  Elec       q    Type
REMARK                         _______ _______ _______ _____ _____    ______ ____
ROOT
ATOM      1  C   UNL     1       6.964   2.292  -5.123  0.00  0.00    +0.009 C 
ATOM      2  C   UNL     1       6.278   2.537  -3.777  0.00  0.00    +0.013 C 
ATOM      3  C   UNL     1       7.282   2.338  -2.639  0.00  0.00    +0.055 C 
ATOM      4  C   UNL     1       6.614   2.627  -1.318  0.00  0.00    +0.016 C 
ATOM      5  C   UNL     1       5.616   3.531  -1.227  0.00  0.00    +0.025 C 
ATOM      6  C   UNL     1       4.956   3.819   0.099  0.00  0.00    +0.099 C 
ATOM      7  C   UNL     1       5.802   3.333   1.238  0.00  0.00    +0.065 C 
ATOM      8  C   UNL     1       6.787   2.438   1.045  0.00  0.00    +0.016 C 
ATOM      9  N   UNL     1       7.045   1.953  -0.207  0.00  0.00    -0.321 N 
ATOM     10  C   UNL     1       7.610   1.966   2.215  0.00  0.00    +0.061 C 
ATOM     11  C   UNL     1       5.161   4.227  -2.360  0.00  0.00    +0.176 C 
ATOM     12  O   UNL     1       4.270   5.044  -2.241  0.00  0.00    -0.291 OA
ATOM     13  C   UNL     1       5.758   3.977  -3.719  0.00  0.00    +0.171 C 
ATOM     14  H   UNL     1       7.606   1.013  -0.317  0.00  0.00    +0.152 HD
ENDROOT
BRANCH   6  15
ATOM     15  C   UNL     1       3.618   3.128   0.146  0.00  0.00    +0.047 A 
ATOM     16  C   UNL     1       3.545   1.787   0.059  0.00  0.00    +0.204 A 
ATOM     17  O   UNL     1       2.387   1.120   0.094  0.00  0.00    -0.462 OA
ATOM     18  C   UNL     1       1.197   1.743   0.221  0.00  0.00    +0.138 A 
ATOM     19  C   UNL     1       0.011   1.020   0.254  0.00  0.00    +0.047 A 
ATOM     20  C   UNL     1      -1.193   1.680   0.378  0.00  0.00    +0.004 A 
ATOM     21  C   UNL     1      -1.235   3.063   0.483  0.00  0.00    +0.001 A 
ATOM     22  C   UNL     1      -0.070   3.798   0.452  0.00  0.00    +0.015 A 
ATOM     23  C   UNL     1       1.153   3.143   0.321  0.00  0.00    +0.064 A 
ATOM     24  C   UNL     1       2.426   3.887   0.283  0.00  0.00    +0.197 A 
ATOM     25  O   UNL     1       2.454   5.104   0.364  0.00  0.00    -0.287 OA
ENDBRANCH   6  15
BRANCH   7  26
ATOM     26  C   UNL     1       5.560   3.825   2.542  0.00  0.00    +0.338 C 
ATOM     27  O   UNL     1       6.165   3.362   3.490  0.00  0.00    -0.245 OA
BRANCH  26  28
ATOM     28  O   UNL     1       4.656   4.809   2.734  0.00  0.00    -0.459 OA
BRANCH  28  29
ATOM     29  C   UNL     1       4.462   5.259   4.076  0.00  0.00    +0.171 C 
ATOM     30  C   UNL     1       4.059   6.735   4.067  0.00  0.00    +0.052 C 
ATOM     31  C   UNL     1       3.356   4.432   4.736  0.00  0.00    +0.052 C 
ENDBRANCH  28  29
ENDBRANCH  26  28
ENDBRANCH   7  26
BRANCH  13  32
ATOM     32  C   UNL     1       4.703   4.176  -4.777  0.00  0.00    +0.318 C 
ATOM     33  O   UNL     1       4.404   3.264  -5.511  0.00  0.00    -0.250 OA
BRANCH  32  34
ATOM     34  O   UNL     1       4.097   5.366  -4.905  0.00  0.00    -0.467 OA
ATOM     35  C   UNL     1       3.091   5.486  -5.945  0.00  0.00    +0.280 C 
ENDBRANCH  32  34
ENDBRANCH  13  32
TORSDOF 6
