REMARK  Name = ZINC20090324
REMARK  4 active torsions:
REMARK  status: ('A' for Active; 'I' for Inactive)
REMARK    1  A    between atoms: C_1  and  C_2
REMARK    2  A    between atoms: C_2  and  C_4
REMARK    3  A    between atoms: C_2  and  N_15
REMARK    4  A    between atoms: N_15  and  C_16
REMARK                            x       y       z     vdW  Elec       q    Type
REMARK                         _______ _______ _______ _____ _____    ______ ____
ROOT
ATOM      1  C   UNL     1       3.905   0.252  -2.704  0.00  0.00    -0.026 A 
ATOM      2  C   UNL     1       4.049   1.588  -2.378  0.00  0.00    +0.009 A 
ATOM      3  C   UNL     1       3.188   2.181  -1.472  0.00  0.00    +0.048 A 
ATOM      4  C   UNL     1       2.179   1.435  -0.891  0.00  0.00    +0.142 A 
ATOM      5  C   UNL     1       2.034   0.088  -1.219  0.00  0.00    +0.076 A 
ATOM      6  C   UNL     1       2.899  -0.500  -2.126  0.00  0.00    +0.032 A 
ATOM      7  N   UNL     1       1.007  -0.657  -0.621  0.00  0.00    -0.280 N 
ATOM      8  C   UNL     1       0.002  -0.004   0.002  0.00  0.00    +0.255 C 
ATOM      9  O   UNL     1      -0.881  -0.628   0.552  0.00  0.00    -0.272 OA
ATOM     10  C   UNL     1      -0.018   1.503   0.010  0.00  0.00    +0.325 C 
ATOM     11  O   UNL     1       1.322   2.002   0.000  0.00  0.00    -0.481 OA
ATOM     12  H   UNL     1       1.028  -1.756  -0.664  0.00  0.00    +0.155 HD
ENDROOT
BRANCH   1  14
ATOM     13  C   UNL     1       4.414  -0.030  -5.114  0.00  0.00    +0.033 C 
ATOM     14  C   UNL     1       4.848  -0.386  -3.691  0.00  0.00    +0.098 C 
BRANCH  14  15
ATOM     15  N   UNL     1       6.208   0.108  -3.458  0.00  0.00    -0.337 N 
ATOM     16  H   UNL     1       6.363   1.086  -2.979  0.00  0.00    +0.147 HD
BRANCH  15  17
ATOM     17  C   UNL     1       7.307  -0.664  -3.843  0.00  0.00    +0.028 A 
ATOM     18  C   UNL     1       7.113  -1.902  -4.442  0.00  0.00    +0.024 A 
ATOM     19  C   UNL     1       8.201  -2.660  -4.825  0.00  0.00    +0.017 A 
ATOM     20  C   UNL     1       9.484  -2.192  -4.604  0.00  0.00    +0.018 A 
ATOM     21  C   UNL     1       9.681  -0.962  -4.003  0.00  0.00    +0.017 A 
ATOM     22  C   UNL     1       8.596  -0.197  -3.622  0.00  0.00    +0.024 A 
ATOM     23 BR   UNL     1      10.972  -3.237  -5.125  0.00  0.00    -0.050 Br
ENDBRANCH  15  17
ENDBRANCH  14  15
ENDBRANCH   1  14
TORSDOF 3
