REMARK  Name = ZINC14674885
REMARK  9 active torsions:
REMARK  status: ('A' for Active; 'I' for Inactive)
REMARK    1  A    between atoms: C_1  and  N_2
REMARK    2  A    between atoms: N_2  and  C_3
REMARK    3  A    between atoms: N_2  and  S_9
REMARK    4  A    between atoms: S_9  and  C_12
REMARK    5  A    between atoms: C_15  and  C_18
REMARK    6  A    between atoms: C_18  and  O_20
REMARK    7  A    between atoms: O_20  and  C_21
REMARK    8  A    between atoms: C_21  and  C_22
REMARK    9  A    between atoms: N_27  and  C_30
REMARK                            x       y       z     vdW  Elec       q    Type
REMARK                         _______ _______ _______ _____ _____    ______ ____
ROOT
ATOM      1  C   UNL     1      -6.864   5.133  -3.259  0.00  0.00    +0.340 C 
ATOM      2  O   UNL     1      -7.145   3.955  -3.350  0.00  0.00    -0.245 OA
ENDROOT
BRANCH   1   6
ATOM      3  C   UNL     1      -8.495   7.925  -6.013  0.00  0.00    +0.109 A 
ATOM      4  C   UNL     1      -8.817   6.583  -6.120  0.00  0.00    +0.029 A 
ATOM      5  C   UNL     1      -8.290   5.671  -5.229  0.00  0.00    +0.017 A 
ATOM      6  C   UNL     1      -7.431   6.104  -4.217  0.00  0.00    +0.059 A 
ATOM      7  C   UNL     1      -7.115   7.460  -4.111  0.00  0.00    +0.017 A 
ATOM      8  C   UNL     1      -7.645   8.361  -5.012  0.00  0.00    +0.029 A 
BRANCH   3   9
ATOM      9  S   UNL     1      -9.171   9.083  -7.155  0.00  0.00    +0.074 S 
ATOM     10  O   UNL     1      -8.287  10.195  -7.177  0.00  0.00    -0.150 OA
ATOM     11  O   UNL     1      -9.504   8.351  -8.327  0.00  0.00    -0.150 OA
BRANCH   9  13
ATOM     12  C   UNL     1     -10.597  10.728  -5.551  0.00  0.00    +0.157 C 
ATOM     13  N   UNL     1     -10.599   9.626  -6.515  0.00  0.00    -0.206 N 
BRANCH  13  14
ATOM     14  C   UNL     1     -11.805   9.032  -6.895  0.00  0.00    +0.051 A 
ATOM     15  C   UNL     1     -12.201   9.050  -8.226  0.00  0.00    +0.025 A 
ATOM     16  C   UNL     1     -13.392   8.458  -8.599  0.00  0.00    +0.002 A 
ATOM     17  C   UNL     1     -14.194   7.856  -7.646  0.00  0.00    +0.000 A 
ATOM     18  C   UNL     1     -13.805   7.841  -6.320  0.00  0.00    +0.002 A 
ATOM     19  C   UNL     1     -12.613   8.427  -5.941  0.00  0.00    +0.025 A 
ENDBRANCH  13  14
ENDBRANCH   9  13
ENDBRANCH   3   9
ENDBRANCH   1   6
BRANCH   1  20
ATOM     20  O   UNL     1      -6.036   5.554  -2.284  0.00  0.00    -0.452 OA
BRANCH  20  21
ATOM     21  C   UNL     1      -5.517   4.545  -1.378  0.00  0.00    +0.328 C 
BRANCH  21  22
ATOM     22  C   UNL     1      -4.615   5.197  -0.362  0.00  0.00    +0.253 C 
ATOM     23  O   UNL     1      -4.429   6.395  -0.397  0.00  0.00    -0.272 OA
ATOM     24  N   UNL     1      -4.016   4.450   0.586  0.00  0.00    -0.296 N 
ATOM     25  C   UNL     1      -3.133   5.067   1.587  0.00  0.00    +0.127 C 
ATOM     26  C   UNL     1      -1.809   4.295   1.609  0.00  0.00    +0.125 C 
ATOM     27  N   UNL     1      -2.082   2.867   1.817  0.00  0.00    -0.314 N 
ATOM     28  C   UNL     1      -2.862   2.306   0.706  0.00  0.00    +0.125 C 
ATOM     29  C   UNL     1      -4.229   2.996   0.647  0.00  0.00    +0.127 C 
BRANCH  27  30
ATOM     30  C   UNL     1      -0.902   2.157   2.006  0.00  0.00    +0.099 A 
ATOM     31  C   UNL     1      -0.950   0.783   2.220  0.00  0.00    +0.042 A 
ATOM     32  C   UNL     1       0.232   0.088   2.400  0.00  0.00    +0.005 A 
ATOM     33  C   UNL     1       1.428   0.793   2.360  0.00  0.00    +0.018 A 
ATOM     34  C   UNL     1       1.402   2.156   2.143  0.00  0.00    +0.084 A 
ATOM     35  N   UNL     1       0.260   2.871   1.962  0.00  0.00    -0.350 N 
ATOM     36  H   UNL     1       0.271   3.885   1.803  0.00  0.00    +0.166 HD
ENDBRANCH  27  30
ENDBRANCH  21  22
ENDBRANCH  20  21
ENDBRANCH   1  20
TORSDOF 8
