REMARK  Name = ZINC15357005
REMARK  9 active torsions:
REMARK  status: ('A' for Active; 'I' for Inactive)
REMARK    1  A    between atoms: C_1  and  C_2
REMARK    2  A    between atoms: C_3  and  N_15
REMARK    3  A    between atoms: N_6  and  C_9
REMARK    4  A    between atoms: N_7  and  C_8
REMARK    5  A    between atoms: N_15  and  C_16
REMARK    6  A    between atoms: C_16  and  N_18
REMARK    7  A    between atoms: N_18  and  N_19
REMARK    8  A    between atoms: C_20  and  C_21
REMARK    9  A    between atoms: C_24  and  N_27
REMARK                            x       y       z     vdW  Elec       q    Type
REMARK                         _______ _______ _______ _____ _____    ______ ____
ROOT
ATOM      1  N   UNL     1       0.071   0.942  -1.138  0.00  0.00    -0.290 N 
ATOM      2  H   UNL     1      -0.627   1.616  -1.145  0.00  0.00    +0.154 HD
ENDROOT
BRANCH   1   5
ATOM      3  C   UNL     1       1.347   2.690   1.037  0.00  0.00    +0.067 C 
ATOM      4  C   UNL     1       2.022   2.098  -0.173  0.00  0.00    +0.059 A 
ATOM      5  C   UNL     1       1.426   1.331  -1.113  0.00  0.00    +0.121 A 
ATOM      6  C   UNL     1       2.447   0.984  -2.102  0.00  0.00    +0.293 A 
ATOM      7  O   UNL     1       2.287   0.306  -3.101  0.00  0.00    -0.264 OA
ATOM      8  N   UNL     1       3.598   1.558  -1.697  0.00  0.00    -0.216 N 
ATOM      9  N   UNL     1       3.344   2.246  -0.504  0.00  0.00    -0.282 N 
ATOM     10  C   UNL     1       4.332   3.007   0.264  0.00  0.00    +0.171 C 
BRANCH   8  11
ATOM     11  C   UNL     1       4.830   1.481  -2.353  0.00  0.00    +0.067 A 
ATOM     12  C   UNL     1       5.576   2.632  -2.572  0.00  0.00    +0.028 A 
ATOM     13  C   UNL     1       6.795   2.551  -3.215  0.00  0.00    +0.002 A 
ATOM     14  C   UNL     1       7.268   1.327  -3.653  0.00  0.00    +0.000 A 
ATOM     15  C   UNL     1       6.525   0.180  -3.442  0.00  0.00    +0.002 A 
ATOM     16  C   UNL     1       5.308   0.253  -2.794  0.00  0.00    +0.028 A 
ENDBRANCH   8  11
ENDBRANCH   1   5
BRANCH   1  17
ATOM     17  C   UNL     1      -0.255  -0.365  -1.157  0.00  0.00    +0.154 C 
ATOM     18  S   UNL     1       0.972  -1.551  -1.297  0.00  0.00    -0.017 S 
BRANCH  17  19
ATOM     19  N   UNL     1      -1.546  -0.740  -1.066  0.00  0.00    -0.218 N 
ATOM     20  H   UNL     1      -1.781  -1.681  -1.080  0.00  0.00    +0.176 HD
BRANCH  19  21
ATOM     21  N   UNL     1      -2.550   0.231  -0.952  0.00  0.00    -0.188 NA
ATOM     22  C   UNL     1      -3.776  -0.128  -0.724  0.00  0.00    +0.138 C 
BRANCH  22  23
ATOM     23  C   UNL     1      -4.071  -1.500  -0.268  0.00  0.00    -0.005 A 
ATOM     24  C   UNL     1      -5.347  -2.040  -0.447  0.00  0.00    +0.012 A 
ATOM     25  C   UNL     1      -5.613  -3.325  -0.024  0.00  0.00    +0.033 A 
ATOM     26  C   UNL     1      -4.624  -4.075   0.587  0.00  0.00    +0.126 A 
ATOM     27  C   UNL     1      -3.360  -3.544   0.773  0.00  0.00    +0.033 A 
ATOM     28  C   UNL     1      -3.077  -2.262   0.349  0.00  0.00    +0.012 A 
BRANCH  26  29
ATOM     29  N   UNL     1      -4.920  -5.451   1.045  0.00  0.00    +0.056 N 
ATOM     30  O   UNL     1      -4.051  -6.114   1.583  0.00  0.00    -0.126 OA
ATOM     31  O   UNL     1      -6.032  -5.921   0.883  0.00  0.00    -0.126 OA
ENDBRANCH  26  29
ENDBRANCH  22  23
ENDBRANCH  19  21
ENDBRANCH  17  19
ENDBRANCH   1  17
TORSDOF 7
