REMARK  Name = ZINC50793121
REMARK  3 active torsions:
REMARK  status: ('A' for Active; 'I' for Inactive)
REMARK    1  A    between atoms: C_1  and  C_2
REMARK    2  A    between atoms: N_11  and  C_12
REMARK    3  A    between atoms: C_12  and  C_13
REMARK                            x       y       z     vdW  Elec       q    Type
REMARK                         _______ _______ _______ _____ _____    ______ ____
ROOT
ATOM      1  C   UNL     1       2.148   1.010   2.390  0.00  0.00    +0.149 A 
ATOM      2  N   UNL     1       2.292   2.181   1.795  0.00  0.00    -0.215 NA
ATOM      3  C   UNL     1       2.363   3.313   2.475  0.00  0.00    +0.128 A 
ATOM      4  C   UNL     1       2.282   3.276   3.895  0.00  0.00    +0.047 A 
ATOM      5  C   UNL     1       2.332   4.363   4.857  0.00  0.00    +0.021 A 
ATOM      6  C   UNL     1       2.234   4.084   6.165  0.00  0.00    +0.048 A 
ATOM      7  S   UNL     1       2.063   2.310   6.201  0.00  0.00    -0.077 S 
ATOM      8  C   UNL     1       2.128   1.991   4.458  0.00  0.00    +0.114 A 
ATOM      9  N   UNL     1       2.062   0.912   3.703  0.00  0.00    -0.223 NA
ATOM     10  N   UNL     1       2.514   4.519   1.814  0.00  0.00    -0.343 N 
ATOM     11  H   UNL     1       2.570   4.537   0.846  0.00  0.00    +0.144 HD
ATOM     12  H   UNL     1       2.566   5.346   2.318  0.00  0.00    +0.144 HD
ENDROOT
BRANCH   1  13
ATOM     13  C   UNL     1       2.075  -0.239   1.552  0.00  0.00    +0.181 C 
BRANCH  13  23
ATOM     14  C   UNL     1      -0.019   1.526   0.010  0.00  0.00    +0.028 C 
ATOM     15  C   UNL     1       0.002  -0.004   0.002  0.00  0.00    +0.075 C 
ATOM     16  C   UNL     1      -1.430  -0.557   0.082  0.00  0.00    +0.059 C 
ATOM     17  C   UNL     1      -1.455  -1.361   1.363  0.00  0.00    -0.025 A 
ATOM     18  C   UNL     1      -2.470  -2.086   1.958  0.00  0.00    +0.005 A 
ATOM     19  C   UNL     1      -2.244  -2.746   3.152  0.00  0.00    +0.000 A 
ATOM     20  C   UNL     1      -0.999  -2.679   3.750  0.00  0.00    +0.002 A 
ATOM     21  C   UNL     1       0.017  -1.957   3.160  0.00  0.00    +0.023 A 
ATOM     22  C   UNL     1      -0.204  -1.287   1.954  0.00  0.00    +0.034 A 
ATOM     23  N   UNL     1       0.679  -0.510   1.199  0.00  0.00    -0.319 N 
ENDBRANCH  13  23
ENDBRANCH   1  13
TORSDOF 2
