REMARK  Name = ZINC08809404
REMARK  11 active torsions:
REMARK  status: ('A' for Active; 'I' for Inactive)
REMARK    1  A    between atoms: C_1  and  C_2
REMARK    2  A    between atoms: C_3  and  C_31
REMARK    3  A    between atoms: C_4  and  C_26
REMARK    4  A    between atoms: C_10  and  C_11
REMARK    5  A    between atoms: C_14  and  O_19
REMARK    6  A    between atoms: C_15  and  O_17
REMARK    7  A    between atoms: O_17  and  C_18
REMARK    8  A    between atoms: O_19  and  C_20
REMARK    9  A    between atoms: C_20  and  C_22
REMARK   10  A    between atoms: C_31  and  O_33
REMARK   11  A    between atoms: O_33  and  C_34
REMARK                            x       y       z     vdW  Elec       q    Type
REMARK                         _______ _______ _______ _____ _____    ______ ____
ROOT
ATOM      1  C   UNL     1      -2.504  -0.036  -0.592  0.00  0.00    +0.066 C 
ATOM      2  C   UNL     1      -1.189  -0.771  -0.628  0.00  0.00    +0.053 C 
ATOM      3  C   UNL     1      -0.037  -0.085  -0.893  0.00  0.00    +0.085 C 
ATOM      4  C   UNL     1       1.262  -0.858  -0.914  0.00  0.00    +0.168 C 
ATOM      5  N   UNL     1       1.187  -2.322  -0.647  0.00  0.00    -0.274 N 
ATOM      6  C   UNL     1       2.222  -3.171  -0.623  0.00  0.00    +0.268 A 
ATOM      7  O   UNL     1       3.357  -2.782  -0.828  0.00  0.00    -0.266 OA
ATOM      8  C   UNL     1       1.947  -4.587  -0.341  0.00  0.00    +0.081 A 
ATOM      9  C   UNL     1       2.807  -5.635  -0.261  0.00  0.00    +0.028 C 
ATOM     10  S   UNL     1       0.173  -4.556  -0.132  0.00  0.00    -0.046 S 
ATOM     11  C   UNL     1      -0.076  -2.813  -0.408  0.00  0.00    +0.178 A 
ATOM     12  N   UNL     1      -1.160  -2.079  -0.407  0.00  0.00    -0.228 NA
ENDROOT
BRANCH   9  13
ATOM     13  C   UNL     1       4.256  -5.399  -0.295  0.00  0.00    -0.020 A 
ATOM     14  C   UNL     1       4.800  -4.278   0.343  0.00  0.00    +0.012 A 
ATOM     15  C   UNL     1       6.160  -4.062   0.313  0.00  0.00    +0.051 A 
ATOM     16  C   UNL     1       6.993  -4.948  -0.358  0.00  0.00    +0.173 A 
ATOM     17  C   UNL     1       6.459  -6.064  -1.000  0.00  0.00    +0.163 A 
ATOM     18  C   UNL     1       5.097  -6.292  -0.971  0.00  0.00    +0.057 A 
BRANCH  17  19
ATOM     19  O   UNL     1       7.279  -6.928  -1.656  0.00  0.00    -0.491 OA
ATOM     20  C   UNL     1       6.663  -8.050  -2.292  0.00  0.00    +0.277 C 
ENDBRANCH  17  19
BRANCH  16  21
ATOM     21  O   UNL     1       8.334  -4.726  -0.388  0.00  0.00    -0.422 OA
BRANCH  21  22
ATOM     22  C   UNL     1       8.820  -4.074  -1.456  0.00  0.00    +0.309 C 
ATOM     23  O   UNL     1       8.065  -3.632  -2.289  0.00  0.00    -0.251 OA
ATOM     24  C   UNL     1      10.307  -3.894  -1.616  0.00  0.00    +0.136 C 
ENDBRANCH  21  22
ENDBRANCH  16  21
ENDBRANCH   9  13
BRANCH   4  25
ATOM     25  C   UNL     1       1.894  -0.666  -2.269  0.00  0.00    +0.017 A 
ATOM     26  C   UNL     1       2.891   0.176  -2.634  0.00  0.00    +0.013 A 
ATOM     27  C   UNL     1       3.318   0.179  -3.949  0.00  0.00    +0.008 A 
ATOM     28  C   UNL     1       2.720  -0.653  -4.836  0.00  0.00    +0.045 A 
ATOM     29  S   UNL     1       1.518  -1.484  -3.811  0.00  0.00    -0.099 S 
ENDBRANCH   4  25
BRANCH   3  30
ATOM     30  C   UNL     1      -0.058   1.298  -1.134  0.00  0.00    +0.339 C 
ATOM     31  O   UNL     1      -1.122   1.886  -1.213  0.00  0.00    -0.245 OA
BRANCH  30  32
ATOM     32  O   UNL     1       1.101   1.976  -1.283  0.00  0.00    -0.465 OA
ATOM     33  C   UNL     1       1.004   3.381  -1.525  0.00  0.00    +0.280 C 
ENDBRANCH  30  32
ENDBRANCH   3  30
TORSDOF 7
