REMARK  Name = ZINC40166599
REMARK  4 active torsions:
REMARK  status: ('A' for Active; 'I' for Inactive)
REMARK    1  A    between atoms: C_3  and  O_8
REMARK    2  A    between atoms: C_6  and  N_7
REMARK    3  A    between atoms: O_8  and  C_9
REMARK    4  A    between atoms: C_12  and  N_15
REMARK                            x       y       z     vdW  Elec       q    Type
REMARK                         _______ _______ _______ _____ _____    ______ ____
ROOT
ATOM      1  C   UNL     1       4.760   1.492  -0.002  0.00  0.00    +0.129 A 
ATOM      2  C   UNL     1       4.833   0.107  -0.053  0.00  0.00    +0.048 A 
ATOM      3  C   UNL     1       6.062  -0.520  -0.033  0.00  0.00    +0.027 A 
ATOM      4  C   UNL     1       7.226   0.234   0.037  0.00  0.00    +0.038 A 
ATOM      5  C   UNL     1       7.152   1.620   0.088  0.00  0.00    +0.027 A 
ATOM      6  C   UNL     1       5.922   2.247   0.063  0.00  0.00    +0.048 A 
ENDROOT
BRANCH   4   7
ATOM      7  N   UNL     1       8.474  -0.403   0.058  0.00  0.00    -0.249 N 
ATOM      8  C   UNL     1       9.778   0.275   0.136  0.00  0.00    +0.126 C 
ATOM      9  C   UNL     1       9.827   1.126   1.423  0.00  0.00    +0.190 C 
ATOM     10  S   UNL     1      10.612  -0.050   2.608  0.00  0.00    -0.027 S 
ATOM     11  O   UNL     1       9.624  -0.936   3.116  0.00  0.00    -0.174 OA
ATOM     12  O   UNL     1      11.441   0.672   3.509  0.00  0.00    -0.174 OA
ATOM     13  C   UNL     1      11.667  -0.947   1.388  0.00  0.00    +0.190 C 
ATOM     14  C   UNL     1      10.794  -0.871   0.127  0.00  0.00    +0.118 C 
ATOM     15  N   UNL     1       9.964  -2.083   0.044  0.00  0.00    -0.293 N 
ATOM     16  C   UNL     1       8.672  -1.727   0.015  0.00  0.00    +0.307 C 
ATOM     17  O   UNL     1       7.764  -2.533  -0.048  0.00  0.00    -0.252 OA
ATOM     18  H   UNL     1      10.298  -2.994   0.018  0.00  0.00    +0.151 HD
ENDBRANCH   4   7
BRANCH   1  19
ATOM     19  O   UNL     1       3.549   2.110  -0.021  0.00  0.00    -0.456 OA
BRANCH  19  22
ATOM     20  C   UNL     1       2.936   2.230   3.564  0.00  0.00    +0.026 A 
ATOM     21  C   UNL     1       3.555   1.982   2.355  0.00  0.00    +0.048 A 
ATOM     22  C   UNL     1       2.938   2.354   1.170  0.00  0.00    +0.129 A 
ATOM     23  C   UNL     1       1.698   2.975   1.198  0.00  0.00    +0.048 A 
ATOM     24  C   UNL     1       1.077   3.223   2.406  0.00  0.00    +0.026 A 
ATOM     25  C   UNL     1       1.694   2.851   3.593  0.00  0.00    +0.025 A 
BRANCH  25  26
ATOM     26  N   UNL     1       1.065   3.102   4.818  0.00  0.00    -0.358 N 
ATOM     27  H   UNL     1       1.497   2.841   5.647  0.00  0.00    +0.142 HD
ATOM     28  H   UNL     1       0.198   3.535   4.838  0.00  0.00    +0.142 HD
ENDBRANCH  25  26
ENDBRANCH  19  22
ENDBRANCH   1  19
TORSDOF 4
