REMARK  Name = ZINC09373468
REMARK  4 active torsions:
REMARK  status: ('A' for Active; 'I' for Inactive)
REMARK    1  A    between atoms: C_1  and  C_2
REMARK    2  A    between atoms: N_24  and  C_25
REMARK    3  A    between atoms: C_25  and  C_26
REMARK    4  A    between atoms: C_26  and  N_59
REMARK                            x       y       z     vdW  Elec       q    Type
REMARK                         _______ _______ _______ _____ _____    ______ ____
ROOT
ATOM      1  C   UNL     1       1.397   3.573   0.257  0.00  0.00    +0.008 C 
ATOM      2  C   UNL     1       1.415   2.065  -0.000  0.00  0.00    -0.009 C 
ATOM      3  C   UNL     1      -0.019   1.525   0.010  0.00  0.00    +0.008 C 
ATOM      4  C   UNL     1       0.002  -0.004   0.002  0.00  0.00    +0.037 C 
ATOM      5  C   UNL     1       0.877  -0.479  -1.155  0.00  0.00    -0.023 A 
ATOM      6  C   UNL     1       1.765   0.355  -1.734  0.00  0.00    -0.004 A 
ATOM      7  S   UNL     1       2.541  -0.608  -3.005  0.00  0.00    -0.073 S 
ATOM      8  C   UNL     1       1.669  -2.133  -2.754  0.00  0.00    +0.116 A 
ATOM      9  C   UNL     1       0.798  -1.841  -1.686  0.00  0.00    +0.077 A 
ATOM     10  C   UNL     1      -0.048  -2.909  -1.262  0.00  0.00    +0.283 A 
ATOM     11  O   UNL     1      -0.834  -2.742  -0.345  0.00  0.00    -0.265 OA
ATOM     12  N   UNL     1       0.027  -4.105  -1.882  0.00  0.00    -0.175 N 
ATOM     13  C   UNL     1       0.907  -4.299  -2.912  0.00  0.00    +0.167 A 
ATOM     14  N   UNL     1       1.700  -3.325  -3.325  0.00  0.00    -0.220 NA
ATOM     15  C   UNL     1       0.967  -5.614  -3.564  0.00  0.00    +0.030 A 
ATOM     16  C   UNL     1       1.843  -5.873  -4.617  0.00  0.00    +0.012 A 
ATOM     17  C   UNL     1       1.860  -7.125  -5.193  0.00  0.00    +0.001 A 
ATOM     18  C   UNL     1       1.016  -8.127  -4.736  0.00  0.00    +0.001 A 
ATOM     19  C   UNL     1       0.142  -7.891  -3.697  0.00  0.00    +0.012 A 
ATOM     20  C   UNL     1       0.107  -6.633  -3.099  0.00  0.00    +0.027 A 
ATOM     21  C   UNL     1      -0.805  -6.328  -1.989  0.00  0.00    +0.148 A 
ATOM     22  N   UNL     1      -0.811  -5.141  -1.450  0.00  0.00    -0.146 NA
ATOM     23  N   UNL     1      -1.664  -7.308  -1.511  0.00  0.00    -0.329 N 
ATOM     24  C   UNL     1       2.035   1.785  -1.377  0.00  0.00    +0.046 C 
ATOM     25  H   UNL     1      -1.661  -8.192  -1.910  0.00  0.00    +0.147 HD
ENDROOT
BRANCH  23  26
ATOM     26  C   UNL     1      -2.575  -7.007  -0.404  0.00  0.00    +0.084 C 
BRANCH  26  27
ATOM     27  C   UNL     1      -3.404  -8.249  -0.074  0.00  0.00    -0.060 C 
BRANCH  27  33
ATOM     28  C   UNL     1      -3.572  -7.693   2.278  0.00  0.00    -0.050 C 
ATOM     29  C   UNL     1      -4.556  -7.326   3.391  0.00  0.00    +0.141 C 
ATOM     30  O   UNL     1      -5.514  -8.377   3.541  0.00  0.00    -0.383 OA
ATOM     31  C   UNL     1      -6.259  -8.650   2.351  0.00  0.00    +0.141 C 
ATOM     32  C   UNL     1      -5.292  -9.032   1.226  0.00  0.00    -0.050 C 
ATOM     33  N   UNL     1      -4.332  -7.925   1.031  0.00  0.00    +0.384 N 
ATOM     34  H   UNL     1      -4.850  -7.071   0.793  0.00  0.00    -0.082 HD
ENDBRANCH  27  33
ENDBRANCH  26  27
ENDBRANCH  23  26
TORSDOF 3
