REMARK  Name = ZINC66944281
REMARK  4 active torsions:
REMARK  status: ('A' for Active; 'I' for Inactive)
REMARK    1  A    between atoms: C_2  and  C_12
REMARK    2  A    between atoms: C_12  and  C_13
REMARK    3  A    between atoms: C_19  and  C_21
REMARK    4  A    between atoms: C_21  and  N_22
REMARK                            x       y       z     vdW  Elec       q    Type
REMARK                         _______ _______ _______ _____ _____    ______ ____
ROOT
ATOM      1  C   UNL     1       2.794   3.664   1.044  0.00  0.00    +0.222 C 
ATOM      2  O   UNL     1       3.094   2.682   1.688  0.00  0.00    -0.275 OA
ATOM      3  N   UNL     1       3.179   4.887   1.460  0.00  0.00    -0.300 N 
ATOM      4  C   UNL     1       2.974   6.149   0.726  0.00  0.00    +0.108 C 
ATOM      5  C   UNL     1       2.996   7.249   1.816  0.00  0.00    +0.021 C 
ATOM      6  C   UNL     1       4.085   6.711   2.781  0.00  0.00    +0.022 C 
ATOM      7  C   UNL     1       3.869   5.184   2.724  0.00  0.00    +0.060 C 
ENDROOT
BRANCH   1   8
ATOM      8  C   UNL     1       1.990   3.518  -0.223  0.00  0.00    +0.152 C 
BRANCH   8  10
ATOM      9  C   UNL     1       0.290   1.713  -0.526  0.00  0.00    +0.072 A 
ATOM     10  C   UNL     1       1.590   2.076  -0.400  0.00  0.00    +0.059 A 
ATOM     11  N   UNL     1       2.490   1.110  -0.438  0.00  0.00    -0.229 NA
ATOM     12  C   UNL     1       2.132  -0.146  -0.594  0.00  0.00    +0.168 A 
ATOM     13  S   UNL     1       0.454  -0.057  -0.699  0.00  0.00    -0.060 S 
ATOM     14  N   UNL     1       2.942  -1.274  -0.655  0.00  0.00    -0.233 N 
ATOM     15  C   UNL     1       2.481  -2.640  -0.942  0.00  0.00    +0.136 C 
ATOM     16  C   UNL     1       3.769  -3.484  -0.888  0.00  0.00    +0.125 C 
ATOM     17  N   UNL     1       4.819  -2.504  -0.577  0.00  0.00    -0.297 N 
ATOM     18  C   UNL     1       4.269  -1.288  -0.469  0.00  0.00    +0.308 C 
ATOM     19  O   UNL     1       4.913  -0.287  -0.220  0.00  0.00    -0.252 OA
ATOM     20  H   UNL     1       5.762  -2.705  -0.471  0.00  0.00    +0.150 HD
ENDBRANCH   8  10
ENDBRANCH   1   8
BRANCH   7  21
ATOM     21  C   UNL     1       5.221   4.468   2.760  0.00  0.00    -0.056 C 
BRANCH  21  22
ATOM     22  N   UNL     1       5.849   4.673   4.072  0.00  0.00    +0.381 N 
ATOM     23  C   UNL     1       5.090   3.947   5.122  0.00  0.00    -0.079 C 
ATOM     24  C   UNL     1       6.128   3.783   6.260  0.00  0.00    -0.020 C 
ATOM     25  C   UNL     1       7.444   3.518   5.492  0.00  0.00    -0.020 C 
ATOM     26  C   UNL     1       7.209   4.092   4.083  0.00  0.00    -0.079 C 
ATOM     27  H   UNL     1       5.890   5.658   4.288  0.00  0.00    -0.082 HD
ENDBRANCH  21  22
ENDBRANCH   7  21
TORSDOF 4
