REMARK  Name = ZINC06732665
REMARK  8 active torsions:
REMARK  status: ('A' for Active; 'I' for Inactive)
REMARK    1  A    between atoms: C_1  and  C_2
REMARK    2  A    between atoms: C_2  and  O_3
REMARK    3  A    between atoms: O_3  and  C_4
REMARK    4  A    between atoms: C_14  and  O_29
REMARK    5  A    between atoms: C_16  and  C_19
REMARK    6  A    between atoms: C_22  and  C_25
REMARK    7  A    between atoms: C_25  and  O_27
REMARK    8  A    between atoms: O_27  and  C_28
REMARK                            x       y       z     vdW  Elec       q    Type
REMARK                         _______ _______ _______ _____ _____    ______ ____
ROOT
ATOM      1  C   UNL     1       0.801  -1.812   1.304  0.00  0.00    +0.403 C 
ATOM      2  O   UNL     1       0.321  -2.554   0.470  0.00  0.00    -0.226 OA
ATOM      3  N   UNL     1       1.441  -2.324   2.374  0.00  0.00    -0.262 N 
ATOM      4  C   UNL     1       1.580  -3.777   2.556  0.00  0.00    +0.116 C 
ATOM      5  C   UNL     1       3.059  -4.163   2.493  0.00  0.00    +0.056 C 
ATOM      6  C   UNL     1       3.860  -3.221   3.382  0.00  0.00    -0.020 A 
ATOM      7  C   UNL     1       3.366  -2.021   3.763  0.00  0.00    +0.013 A 
ATOM      8  S   UNL     1       4.639  -1.302   4.763  0.00  0.00    -0.076 S 
ATOM      9  C   UNL     1       5.766  -2.515   4.685  0.00  0.00    +0.080 A 
ATOM     10  C   UNL     1       5.189  -3.511   3.889  0.00  0.00    +0.068 A 
ATOM     11  C   UNL     1       5.982  -4.745   3.655  0.00  0.00    +0.220 C 
ATOM     12  N   UNL     1       7.245  -4.726   3.986  0.00  0.00    -0.223 NA
ATOM     13  C   UNL     1       7.944  -3.560   4.511  0.00  0.00    +0.224 C 
ATOM     14  N   UNL     1       7.027  -2.651   5.221  0.00  0.00    -0.313 N 
ATOM     15  C   UNL     1       2.034  -1.448   3.404  0.00  0.00    +0.153 C 
ATOM     16  H   UNL     1       7.296  -2.175   6.022  0.00  0.00    +0.149 HD
ENDROOT
BRANCH  13  17
ATOM     17  C   UNL     1       8.585  -2.815   3.368  0.00  0.00    -0.005 A 
ATOM     18  C   UNL     1       8.759  -1.445   3.450  0.00  0.00    +0.008 A 
ATOM     19  C   UNL     1       9.344  -0.757   2.407  0.00  0.00    +0.015 A 
ATOM     20  C   UNL     1       9.761  -1.447   1.267  0.00  0.00    +0.059 A 
ATOM     21  C   UNL     1       9.582  -2.829   1.190  0.00  0.00    +0.015 A 
ATOM     22  C   UNL     1       9.001  -3.506   2.243  0.00  0.00    +0.008 A 
BRANCH  20  23
ATOM     23  C   UNL     1      10.389  -0.717   0.146  0.00  0.00    +0.339 C 
ATOM     24  O   UNL     1      10.543   0.486   0.215  0.00  0.00    -0.245 OA
BRANCH  23  25
ATOM     25  O   UNL     1      10.790  -1.385  -0.952  0.00  0.00    -0.464 OA
ATOM     26  C   UNL     1      11.388  -0.616  -1.997  0.00  0.00    +0.280 C 
ENDBRANCH  23  25
ENDBRANCH  20  23
ENDBRANCH  13  17
BRANCH  11  27
ATOM     27  O   UNL     1       5.417  -5.850   3.116  0.00  0.00    -0.492 OA
ATOM     28  H   UNL     1       6.027  -6.593   3.009  0.00  0.00    +0.294 HD
ENDBRANCH  11  27
BRANCH   1  29
ATOM     29  O   UNL     1       0.693  -0.477   1.160  0.00  0.00    -0.451 OA
BRANCH  29  31
ATOM     30  C   UNL     1      -0.019   1.526   0.010  0.00  0.00    +0.048 C 
ATOM     31  C   UNL     1       0.002  -0.004   0.002  0.00  0.00    +0.230 C 
ENDBRANCH  29  31
ENDBRANCH   1  29
TORSDOF 6
