REMARK  Name = ZINC13501139
REMARK  9 active torsions:
REMARK  status: ('A' for Active; 'I' for Inactive)
REMARK    1  A    between atoms: C_1  and  C_2
REMARK    2  A    between atoms: C_2  and  C_3
REMARK    3  A    between atoms: C_3  and  C_5
REMARK    4  A    between atoms: C_3  and  N_66
REMARK    5  A    between atoms: N_9  and  C_10
REMARK    6  A    between atoms: C_15  and  C_16
REMARK    7  A    between atoms: C_15  and  N_66
REMARK    8  A    between atoms: C_20  and  C_28
REMARK    9  A    between atoms: C_29  and  N_66
REMARK                            x       y       z     vdW  Elec       q    Type
REMARK                         _______ _______ _______ _____ _____    ______ ____
ROOT
ATOM      1  N   UNL     1      -2.813   0.709  -1.000  0.00  0.00    +0.391 N 
ATOM      2  H   UNL     1      -2.695   1.611  -1.476  0.00  0.00    -0.080 HD
ENDROOT
BRANCH   1   3
ATOM      3  C   UNL     1      -1.702  -0.187  -1.387  0.00  0.00    -0.067 C 
ATOM      4  C   UNL     1      -1.924  -1.613  -0.842  0.00  0.00    -0.015 C 
ATOM      5  C   UNL     1      -0.504  -2.094  -0.450  0.00  0.00    -0.002 C 
ATOM      6  C   UNL     1       0.143  -0.813   0.132  0.00  0.00    -0.002 C 
ATOM      7  C   UNL     1      -0.388   0.322  -0.768  0.00  0.00    -0.015 C 
ENDBRANCH   1   3
BRANCH   1   8
ATOM      8  C   UNL     1      -4.104   0.116  -1.408  0.00  0.00    +0.003 C 
BRANCH   8   9
ATOM      9  C   UNL     1      -3.930  -0.608  -2.718  0.00  0.00    +0.138 A 
ATOM     10  N   UNL     1      -3.251  -0.191  -3.758  0.00  0.00    -0.115 NA
ATOM     11  N   UNL     1      -3.339  -1.089  -4.678  0.00  0.00    -0.023 NA
ATOM     12  N   UNL     1      -4.064  -2.065  -4.253  0.00  0.00    -0.044 NA
ATOM     13  N   UNL     1      -4.447  -1.806  -3.049  0.00  0.00    -0.228 N 
BRANCH  13  14
ATOM     14  C   UNL     1      -5.288  -2.655  -2.201  0.00  0.00    +0.111 C 
ATOM     15  C   UNL     1      -4.629  -4.038  -2.021  0.00  0.00    +0.027 C 
ATOM     16  C   UNL     1      -5.821  -5.029  -2.026  0.00  0.00    +0.002 C 
ATOM     17  C   UNL     1      -6.766  -4.423  -3.092  0.00  0.00    +0.002 C 
ATOM     18  C   UNL     1      -6.646  -2.900  -2.882  0.00  0.00    +0.027 C 
ENDBRANCH  13  14
ENDBRANCH   8   9
BRANCH   8  20
ATOM     19  C   UNL     1      -5.016   2.214  -0.402  0.00  0.00    +0.002 C 
ATOM     20  C   UNL     1      -5.126   1.242  -1.579  0.00  0.00    -0.011 C 
ENDBRANCH   8  20
ENDBRANCH   1   8
BRANCH   1  21
ATOM     21  C   UNL     1      -2.798   0.931   0.461  0.00  0.00    -0.036 C 
BRANCH  21  22
ATOM     22  C   UNL     1      -3.168  -0.334   1.192  0.00  0.00    +0.001 A 
ATOM     23  C   UNL     1      -2.212  -1.042   1.843  0.00  0.00    +0.017 A 
ATOM     24  C   UNL     1      -2.604  -2.269   2.539  0.00  0.00    -0.001 A 
ATOM     25  C   UNL     1      -1.662  -3.043   3.225  0.00  0.00    +0.013 A 
ATOM     26  C   UNL     1      -2.060  -4.183   3.865  0.00  0.00    -0.050 A 
ATOM     27  C   UNL     1      -3.390  -4.579   3.841  0.00  0.00    +0.005 A 
ATOM     28  C   UNL     1      -4.335  -3.831   3.172  0.00  0.00    +0.026 A 
ATOM     29  C   UNL     1      -3.954  -2.667   2.513  0.00  0.00    +0.049 A 
ATOM     30  N   UNL     1      -4.878  -1.900   1.837  0.00  0.00    -0.322 N 
ATOM     31  H   UNL     1      -5.808  -2.175   1.820  0.00  0.00    +0.169 HD
ATOM     32  C   UNL     1      -4.509  -0.774   1.200  0.00  0.00    +0.251 A 
ATOM     33  O   UNL     1      -5.353  -0.120   0.612  0.00  0.00    -0.268 OA
ATOM     34  C   UNL     1      -1.045  -5.017   4.604  0.00  0.00    +0.044 C 
ENDBRANCH  21  22
ENDBRANCH   1  21
TORSDOF 7
