REMARK  Name = ZINC39727629
REMARK  7 active torsions:
REMARK  status: ('A' for Active; 'I' for Inactive)
REMARK    1  A    between atoms: C_1  and  C_2
REMARK    2  A    between atoms: C_5  and  N_8
REMARK    3  A    between atoms: C_17  and  C_21
REMARK    4  A    between atoms: N_19  and  C_20
REMARK    5  A    between atoms: N_23  and  C_24
REMARK    6  A    between atoms: C_29  and  O_30
REMARK    7  A    between atoms: O_30  and  C_31
REMARK                            x       y       z     vdW  Elec       q    Type
REMARK                         _______ _______ _______ _____ _____    ______ ____
ROOT
ATOM      1  N   UNL     1       0.018  -4.151  -0.044  0.00  0.00    -0.191 N 
ATOM      2  C   UNL     1       0.112  -4.801   1.141  0.00  0.00    +0.254 C 
ATOM      3  O   UNL     1      -0.025  -4.216   2.194  0.00  0.00    -0.272 OA
ATOM      4  C   UNL     1       0.393  -6.276   1.097  0.00  0.00    +0.208 C 
ATOM      5  C   UNL     1      -0.258  -6.814  -0.166  0.00  0.00    +0.078 C 
ATOM      6  N   UNL     1      -0.351  -6.122  -1.273  0.00  0.00    -0.164 NA
ATOM      7  C   UNL     1      -0.062  -4.808  -1.214  0.00  0.00    +0.337 C 
ATOM      8  O   UNL     1       0.136  -4.199  -2.249  0.00  0.00    -0.250 OA
ATOM      9  C   UNL     1      -0.821  -8.042   0.219  0.00  0.00    +0.072 C 
ATOM     10  C   UNL     1      -0.811  -8.123   1.603  0.00  0.00    +0.085 C 
ATOM     11  N   UNL     1      -0.206  -7.043   2.182  0.00  0.00    -0.322 N 
ATOM     12  C   UNL     1      -0.170  -6.704   3.607  0.00  0.00    +0.130 C 
ENDROOT
BRANCH   1  17
ATOM     13  C   UNL     1      -0.065   1.524  -0.065  0.00  0.00    +0.044 C 
ATOM     14  C   UNL     1      -0.043   0.017  -0.060  0.00  0.00    -0.050 A 
ATOM     15  C   UNL     1      -1.075  -0.691  -0.648  0.00  0.00    +0.005 A 
ATOM     16  C   UNL     1      -1.058  -2.072  -0.644  0.00  0.00    +0.024 A 
ATOM     17  C   UNL     1      -0.002  -2.750  -0.050  0.00  0.00    +0.046 A 
ATOM     18  C   UNL     1       1.033  -2.037   0.539  0.00  0.00    +0.024 A 
ATOM     19  C   UNL     1       1.013  -0.656   0.528  0.00  0.00    +0.005 A 
ENDBRANCH   1  17
BRANCH   9  20
ATOM     20  C   UNL     1      -1.337  -9.072  -0.696  0.00  0.00    +0.251 C 
ATOM     21  O   UNL     1      -1.805 -10.102  -0.249  0.00  0.00    -0.270 OA
ATOM     22  N   UNL     1      -1.292  -8.874  -2.028  0.00  0.00    -0.278 N 
ATOM     23  H   UNL     1      -0.843  -8.093  -2.387  0.00  0.00    +0.155 HD
BRANCH  22  24
ATOM     24  C   UNL     1      -1.892  -9.797  -2.894  0.00  0.00    +0.076 A 
ATOM     25  C   UNL     1      -3.048 -10.460  -2.510  0.00  0.00    +0.027 A 
ATOM     26  C   UNL     1      -3.639 -11.370  -3.366  0.00  0.00    +0.002 A 
ATOM     27  C   UNL     1      -3.080 -11.622  -4.606  0.00  0.00    +0.004 A 
ATOM     28  C   UNL     1      -1.928 -10.965  -4.995  0.00  0.00    +0.047 A 
ATOM     29  C   UNL     1      -1.334 -10.046  -4.146  0.00  0.00    +0.141 A 
BRANCH  29  30
ATOM     30  O   UNL     1      -0.204  -9.394  -4.530  0.00  0.00    -0.493 OA
ATOM     31  C   UNL     1       0.312  -9.700  -5.827  0.00  0.00    +0.277 C 
ENDBRANCH  29  30
ENDBRANCH  22  24
ENDBRANCH   9  20
TORSDOF 4
