REMARK  Name = ZINC09761624
REMARK  10 active torsions:
REMARK  status: ('A' for Active; 'I' for Inactive)
REMARK    1  A    between atoms: C_1  and  C_2
REMARK    2  A    between atoms: C_2  and  O_3
REMARK    3  A    between atoms: O_3  and  C_4
REMARK    4  A    between atoms: C_4  and  C_6
REMARK    5  A    between atoms: C_7  and  O_20
REMARK    6  A    between atoms: N_11  and  C_13
REMARK    7  A    between atoms: O_20  and  S_21
REMARK    8  A    between atoms: S_21  and  C_24
REMARK    9  A    between atoms: C_26  and  C_32
REMARK   10  A    between atoms: C_29  and  C_30
REMARK                            x       y       z     vdW  Elec       q    Type
REMARK                         _______ _______ _______ _____ _____    ______ ____
ROOT
ATOM      1  C   UNL     1       0.482   3.956  -0.295  0.00  0.00    +0.213 A 
ATOM      2  C   UNL     1       0.740   2.536  -0.034  0.00  0.00    +0.196 A 
ATOM      3  C   UNL     1       2.062   2.133   0.054  0.00  0.00    +0.123 A 
ATOM      4  C   UNL     1       3.056   3.110  -0.123  0.00  0.00    +0.276 A 
ATOM      5  O   UNL     1       4.234   2.796  -0.058  0.00  0.00    -0.266 OA
ATOM      6  N   UNL     1       2.716   4.388  -0.359  0.00  0.00    -0.196 N 
ATOM      7  N   UNL     1       1.498   4.780  -0.439  0.00  0.00    -0.153 NA
ENDROOT
BRANCH   6   8
ATOM      8  C   UNL     1       3.735   5.332  -0.525  0.00  0.00    +0.069 A 
ATOM      9  C   UNL     1       4.772   5.405   0.397  0.00  0.00    +0.031 A 
ATOM     10  C   UNL     1       5.779   6.334   0.230  0.00  0.00    +0.040 A 
ATOM     11  C   UNL     1       5.751   7.200  -0.852  0.00  0.00    +0.124 A 
ATOM     12  C   UNL     1       4.716   7.132  -1.769  0.00  0.00    +0.040 A 
ATOM     13  C   UNL     1       3.709   6.201  -1.608  0.00  0.00    +0.031 A 
ATOM     14  F   UNL     1       6.735   8.111  -1.011  0.00  0.00    -0.205 F 
ENDBRANCH   6   8
BRANCH   1  15
ATOM     15  C   UNL     1      -0.903   4.455  -0.396  0.00  0.00    +0.363 C 
ATOM     16  O   UNL     1      -1.836   3.688  -0.263  0.00  0.00    -0.243 OA
BRANCH  15  17
ATOM     17  O   UNL     1      -1.133   5.761  -0.636  0.00  0.00    -0.460 OA
BRANCH  17  19
ATOM     18  C   UNL     1      -2.581   7.685  -0.998  0.00  0.00    +0.048 C 
ATOM     19  C   UNL     1      -2.520   6.181  -0.723  0.00  0.00    +0.229 C 
ENDBRANCH  17  19
ENDBRANCH  15  17
ENDBRANCH   1  15
BRANCH   2  20
ATOM     20  O   UNL     1      -0.275   1.654   0.120  0.00  0.00    -0.340 OA
BRANCH  20  21
ATOM     21  S   UNL     1       0.178   0.247   0.484  0.00  0.00    +0.151 S 
ATOM     22  O   UNL     1       0.765  -0.306  -0.685  0.00  0.00    -0.131 OA
ATOM     23  O   UNL     1       0.882   0.352   1.714  0.00  0.00    -0.131 OA
BRANCH  21  24
ATOM     24  C   UNL     1      -1.273  -0.698   0.814  0.00  0.00    +0.131 A 
ATOM     25  C   UNL     1      -1.708  -0.864   2.116  0.00  0.00    +0.035 A 
ATOM     26  C   UNL     1      -2.845  -1.605   2.375  0.00  0.00    -0.030 A 
ATOM     27  C   UNL     1      -3.549  -2.180   1.331  0.00  0.00    +0.044 A 
ATOM     28  C   UNL     1      -3.114  -2.012   0.029  0.00  0.00    +0.025 A 
ATOM     29  C   UNL     1      -1.978  -1.267  -0.229  0.00  0.00    -0.021 A 
ATOM     30  C   UNL     1      -1.507  -1.080  -1.649  0.00  0.00    +0.046 C 
ATOM     31 CL   UNL     1      -4.979  -3.110   1.656  0.00  0.00    -0.083 Cl
ATOM     32  C   UNL     1      -3.319  -1.787   3.794  0.00  0.00    +0.045 C 
ENDBRANCH  21  24
ENDBRANCH  20  21
ENDBRANCH   2  20
TORSDOF 7
