REMARK  Name = ZINC58557214
REMARK  11 active torsions:
REMARK  status: ('A' for Active; 'I' for Inactive)
REMARK    1  A    between atoms: C_1  and  C_2
REMARK    2  A    between atoms: C_4  and  C_33
REMARK    3  A    between atoms: C_6  and  O_8
REMARK    4  A    between atoms: O_8  and  C_9
REMARK    5  A    between atoms: C_9  and  C_10
REMARK    6  A    between atoms: C_10  and  C_12
REMARK    7  A    between atoms: C_10  and  O_32
REMARK    8  A    between atoms: C_12  and  S_13
REMARK    9  A    between atoms: S_13  and  C_14
REMARK   10  A    between atoms: N_21  and  C_29
REMARK   11  A    between atoms: C_24  and  C_26
REMARK                            x       y       z     vdW  Elec       q    Type
REMARK                         _______ _______ _______ _____ _____    ______ ____
ROOT
ATOM      1  C   UNL     1      -0.031  -2.153   8.882  0.00  0.00    +0.115 A 
ATOM      2  C   UNL     1      -0.136  -2.660  10.186  0.00  0.00    +0.116 A 
ATOM      3  C   UNL     1      -0.119  -4.097  10.486  0.00  0.00    +0.288 A 
ATOM      4  O   UNL     1      -0.012  -4.922   9.594  0.00  0.00    -0.265 OA
ATOM      5  N   UNL     1      -0.225  -4.478  11.771  0.00  0.00    -0.153 NA
ATOM      6  C   UNL     1      -0.340  -3.602  12.741  0.00  0.00    +0.353 A 
ATOM      7  O   UNL     1      -0.442  -4.054  14.006  0.00  0.00    -0.244 OA
ATOM      8  N   UNL     1      -0.362  -2.260  12.531  0.00  0.00    -0.273 N 
ATOM      9  C   UNL     1      -0.261  -1.756  11.256  0.00  0.00    +0.155 A 
ATOM     10  N   UNL     1      -0.276  -0.454  10.996  0.00  0.00    -0.214 NA
ATOM     11  C   UNL     1      -0.176  -0.019   9.755  0.00  0.00    +0.136 A 
ATOM     12  N   UNL     1      -0.051  -0.829   8.722  0.00  0.00    -0.225 NA
ENDROOT
BRANCH  11  13
ATOM     13  C   UNL     1      -0.198   1.467   9.507  0.00  0.00    +0.057 C 
ATOM     14  C   UNL     1      -0.284   1.940   8.055  0.00  0.00    +0.012 C 
ATOM     15  C   UNL     1       1.026   2.090   8.832  0.00  0.00    +0.012 C 
ENDBRANCH  11  13
BRANCH   8  16
ATOM     16  C   UNL     1      -0.494  -1.345  13.668  0.00  0.00    +0.094 C 
ATOM     17  C   UNL     1       0.465  -0.155  13.732  0.00  0.00    +0.027 C 
ATOM     18  C   UNL     1       0.639  -1.330  14.697  0.00  0.00    +0.027 C 
ENDBRANCH   8  16
BRANCH   1  19
ATOM     19  S   UNL     1       0.128  -3.232   7.498  0.00  0.00    -0.102 S 
BRANCH  19  20
ATOM     20  C   UNL     1       0.233  -2.110   6.077  0.00  0.00    +0.110 C 
BRANCH  20  21
ATOM     21  C   UNL     1       0.376  -2.928   4.791  0.00  0.00    +0.162 C 
BRANCH  21  22
ATOM     22  O   UNL     1       1.562  -3.721   4.861  0.00  0.00    -0.388 OA
ATOM     23  H   UNL     1       2.374  -3.206   4.963  0.00  0.00    +0.210 HD
ENDBRANCH  21  22
BRANCH  21  24
ATOM     24  C   UNL     1       0.464  -1.982   3.592  0.00  0.00    +0.261 C 
BRANCH  24  25
ATOM     25  O   UNL     1       0.480  -2.745   2.384  0.00  0.00    -0.489 OA
BRANCH  25  31
ATOM     26  C   UNL     1       0.756   1.543   0.068  0.00  0.00    +0.044 C 
ATOM     27  C   UNL     1       0.692   0.037   0.049  0.00  0.00    -0.047 A 
ATOM     28  C   UNL     1       0.712  -0.640  -1.157  0.00  0.00    +0.007 A 
ATOM     29  C   UNL     1       0.655  -2.021  -1.177  0.00  0.00    -0.047 A 
ATOM     30  C   UNL     1       0.577  -2.728   0.007  0.00  0.00    +0.049 A 
ATOM     31  C   UNL     1       0.557  -2.051   1.217  0.00  0.00    +0.121 A 
ATOM     32  C   UNL     1       0.620  -0.665   1.236  0.00  0.00    +0.049 A 
ATOM     33  C   UNL     1       0.676  -2.756  -2.493  0.00  0.00    +0.044 C 
ENDBRANCH  25  31
ENDBRANCH  24  25
ENDBRANCH  21  24
ENDBRANCH  20  21
ENDBRANCH  19  20
ENDBRANCH   1  19
TORSDOF 9
