REMARK  Name = ZINC02139884
REMARK  6 active torsions:
REMARK  status: ('A' for Active; 'I' for Inactive)
REMARK    1  A    between atoms: C_1  and  N_52
REMARK    2  A    between atoms: C_8  and  O_25
REMARK    3  A    between atoms: C_10  and  C_12
REMARK    4  A    between atoms: C_12  and  C_13
REMARK    5  A    between atoms: C_13  and  C_15
REMARK    6  A    between atoms: O_25  and  C_26
REMARK                            x       y       z     vdW  Elec       q    Type
REMARK                         _______ _______ _______ _____ _____    ______ ____
ROOT
ATOM      1  C   UNL     1       5.024   3.932   0.051  0.00  0.00    -0.095 C 
ATOM      2  C   UNL     1       3.928   1.895  -0.671  0.00  0.00    -0.074 C 
ATOM      3  C   UNL     1       2.828   0.918  -0.253  0.00  0.00    +0.017 C 
ATOM      4  C   UNL     1       1.494   1.620  -0.242  0.00  0.00    -0.040 A 
ATOM      5  C   UNL     1       0.342   0.848  -0.236  0.00  0.00    +0.053 A 
ATOM      6  C   UNL     1      -0.906   1.447  -0.226  0.00  0.00    +0.170 A 
ATOM      7  C   UNL     1      -1.004   2.834  -0.211  0.00  0.00    +0.208 A 
ATOM      8  C   UNL     1       0.149   3.604  -0.216  0.00  0.00    +0.167 A 
ATOM      9  C   UNL     1       1.401   2.996  -0.234  0.00  0.00    -0.012 A 
ATOM     10  C   UNL     1       2.624   3.876  -0.245  0.00  0.00    -0.027 C 
ATOM     11  O   UNL     1      -2.326   3.179  -0.195  0.00  0.00    -0.449 OA
ATOM     12  C   UNL     1      -3.028   1.990   0.215  0.00  0.00    +0.467 C 
ATOM     13  O   UNL     1      -2.165   0.919  -0.214  0.00  0.00    -0.452 OA
ATOM     14  N   UNL     1       3.805   3.101   0.171  0.00  0.00    +0.383 N 
ATOM     15  H   UNL     1       3.690   2.816   1.151  0.00  0.00    -0.081 HD
ENDROOT
BRANCH   8  16
ATOM     16  O   UNL     1       0.057   4.961  -0.205  0.00  0.00    -0.491 OA
ATOM     17  C   UNL     1       0.000   5.618  -1.472  0.00  0.00    +0.277 C 
ENDBRANCH   8  16
BRANCH  10  18
ATOM     18  C   UNL     1       2.421   5.035   0.733  0.00  0.00    +0.069 C 
BRANCH  18  19
ATOM     19  C   UNL     1       2.083   4.488   2.096  0.00  0.00    +0.162 C 
ATOM     20  O   UNL     1       2.116   3.292   2.295  0.00  0.00    -0.292 OA
BRANCH  19  21
ATOM     21  C   UNL     1       1.714   5.404   3.183  0.00  0.00    +0.021 A 
ATOM     22  C   UNL     1       1.675   6.785   2.956  0.00  0.00    +0.015 A 
ATOM     23  C   UNL     1       1.330   7.640   3.978  0.00  0.00    +0.050 A 
ATOM     24  C   UNL     1       1.019   7.138   5.237  0.00  0.00    +0.162 A 
ATOM     25  C   UNL     1       1.053   5.765   5.470  0.00  0.00    +0.163 A 
ATOM     26  C   UNL     1       1.394   4.899   4.449  0.00  0.00    +0.060 A 
ATOM     27  O   UNL     1       0.747   5.259   6.697  0.00  0.00    -0.485 OA
ATOM     28  C   UNL     1       0.770   6.177   7.795  0.00  0.00    +0.270 C 
ATOM     29  C   UNL     1       0.023   7.450   7.372  0.00  0.00    +0.270 C 
ATOM     30  O   UNL     1       0.689   8.003   6.232  0.00  0.00    -0.485 OA
ENDBRANCH  19  21
ENDBRANCH  18  19
ENDBRANCH  10  18
TORSDOF 4
