REMARK  Name = ZINC03412253
REMARK  6 active torsions:
REMARK  status: ('A' for Active; 'I' for Inactive)
REMARK    1  A    between atoms: C_1  and  C_2
REMARK    2  A    between atoms: C_10  and  C_11
REMARK    3  A    between atoms: C_11  and  O_13
REMARK    4  A    between atoms: O_13  and  C_14
REMARK    5  A    between atoms: C_14  and  C_15
REMARK    6  A    between atoms: N_20  and  C_21
REMARK                            x       y       z     vdW  Elec       q    Type
REMARK                         _______ _______ _______ _____ _____    ______ ____
ROOT
ATOM      1  C   UNL     1       4.832  -4.006   0.226  0.00  0.00    +0.258 C 
ATOM      2  O   UNL     1       3.790  -4.627   0.235  0.00  0.00    -0.272 OA
ATOM      3  N   UNL     1       4.814  -2.662   0.133  0.00  0.00    -0.237 N 
ATOM      4  C   UNL     1       3.639  -2.008   0.049  0.00  0.00    +0.310 C 
ATOM      5  O   UNL     1       2.595  -2.630   0.058  0.00  0.00    -0.252 OA
ATOM      6  N   UNL     1       3.622  -0.663  -0.045  0.00  0.00    -0.269 N 
ATOM      7  H   UNL     1       5.647  -2.166   0.125  0.00  0.00    +0.159 HD
ATOM      8  H   UNL     1       4.454  -0.172  -0.130  0.00  0.00    +0.156 HD
ENDROOT
BRANCH   6   9
ATOM      9  C   UNL     1       2.401   0.025  -0.019  0.00  0.00    +0.038 A 
ATOM     10  C   UNL     1       1.346  -0.460   0.741  0.00  0.00    +0.027 A 
ATOM     11  C   UNL     1       0.142   0.218   0.766  0.00  0.00    +0.051 A 
ATOM     12  C   UNL     1      -0.016   1.384   0.032  0.00  0.00    +0.162 A 
ATOM     13  C   UNL     1       1.040   1.873  -0.728  0.00  0.00    +0.164 A 
ATOM     14  C   UNL     1       2.247   1.192  -0.754  0.00  0.00    +0.072 A 
ATOM     15  O   UNL     1       0.906   3.021  -1.448  0.00  0.00    -0.485 OA
ATOM     16  C   UNL     1      -0.429   3.474  -1.696  0.00  0.00    +0.270 C 
ATOM     17  C   UNL     1      -1.215   3.396  -0.380  0.00  0.00    +0.270 C 
ATOM     18  O   UNL     1      -1.212   2.034   0.062  0.00  0.00    -0.485 OA
ENDBRANCH   6   9
BRANCH   1  19
ATOM     19  C   UNL     1       6.146  -4.738   0.320  0.00  0.00    +0.328 C 
BRANCH  19  20
ATOM     20  O   UNL     1       5.899  -6.166   0.411  0.00  0.00    -0.450 OA
BRANCH  20  21
ATOM     21  C   UNL     1       6.978  -6.970   0.501  0.00  0.00    +0.376 C 
ATOM     22  O   UNL     1       8.095  -6.489   0.504  0.00  0.00    -0.241 OA
BRANCH  21  32
ATOM     23  C   UNL     1       9.294  -9.036   0.707  0.00  0.00    +0.048 C 
ATOM     24  C   UNL     1       7.816  -9.328   0.686  0.00  0.00    +0.010 A 
ATOM     25  C   UNL     1       7.178 -10.642   0.762  0.00  0.00    +0.024 A 
ATOM     26  C   UNL     1       7.655 -11.951   0.868  0.00  0.00    +0.012 A 
ATOM     27  C   UNL     1       6.772 -12.992   0.911  0.00  0.00    +0.001 A 
ATOM     28  C   UNL     1       5.404 -12.758   0.850  0.00  0.00    +0.004 A 
ATOM     29  C   UNL     1       4.914 -11.474   0.745  0.00  0.00    +0.047 A 
ATOM     30  C   UNL     1       5.793 -10.398   0.700  0.00  0.00    +0.136 A 
ATOM     31  O   UNL     1       5.618  -9.066   0.602  0.00  0.00    -0.448 OA
ATOM     32  C   UNL     1       6.805  -8.424   0.597  0.00  0.00    +0.216 A 
ENDBRANCH  21  32
ENDBRANCH  20  21
ENDBRANCH  19  20
ENDBRANCH   1  19
TORSDOF 5
