REMARK  Name = ZINC43424564
REMARK  2 active torsions:
REMARK  status: ('A' for Active; 'I' for Inactive)
REMARK    1  A    between atoms: C_5  and  N_18
REMARK    2  A    between atoms: C_6  and  N_7
REMARK                            x       y       z     vdW  Elec       q    Type
REMARK                         _______ _______ _______ _____ _____    ______ ____
ROOT
ATOM      1  C   UNL     1      -0.017   1.387   0.010  0.00  0.00    +0.026 A 
ATOM      2  C   UNL     1       1.177   2.085   0.002  0.00  0.00    +0.019 A 
ATOM      3  C   UNL     1       2.367   1.398  -0.013  0.00  0.00    +0.041 A 
ATOM      4  C   UNL     1       2.429  -0.013  -0.021  0.00  0.00    +0.101 A 
ATOM      5  C   UNL     1       1.195  -0.705  -0.013  0.00  0.00    +0.073 A 
ATOM      6  C   UNL     1       0.002  -0.004   0.002  0.00  0.00    +0.053 A 
ATOM      7  N   UNL     1       3.689  -0.495  -0.036  0.00  0.00    -0.246 NA
ATOM      8  C   UNL     1       4.729   0.286  -0.042  0.00  0.00    +0.157 A 
ATOM      9  S   UNL     1       4.085   1.841  -0.028  0.00  0.00    -0.075 S 
ENDROOT
BRANCH   6  10
ATOM     10  N   UNL     1      -1.212  -0.710   0.010  0.00  0.00    -0.321 N 
ATOM     11  C   UNL     1      -1.842  -1.083   1.285  0.00  0.00    +0.133 C 
ATOM     12  C   UNL     1      -3.311  -0.641   1.221  0.00  0.00    +0.179 C 
ATOM     13  O   UNL     1      -3.908  -1.220   0.061  0.00  0.00    -0.373 OA
ATOM     14  C   UNL     1      -3.371  -0.784  -1.188  0.00  0.00    +0.139 C 
ATOM     15  C   UNL     1      -1.859  -1.072  -1.246  0.00  0.00    +0.102 C 
ATOM     16  C   UNL     1      -1.762  -2.585  -1.499  0.00  0.00    +0.025 C 
ATOM     17  C   UNL     1      -3.090  -3.000  -2.160  0.00  0.00    +0.004 C 
ATOM     18  C   UNL     1      -3.933  -1.727  -2.287  0.00  0.00    +0.033 C 
ENDBRANCH   6  10
BRANCH   5  19
ATOM     19  N   UNL     1       1.180  -2.106  -0.020  0.00  0.00    -0.355 N 
ATOM     20  H   UNL     1       2.015  -2.599  -0.031  0.00  0.00    +0.142 HD
ATOM     21  H   UNL     1       0.335  -2.582  -0.014  0.00  0.00    +0.142 HD
ENDBRANCH   5  19
TORSDOF 2
