REMARK  Name = ZINC02657080
REMARK  4 active torsions:
REMARK  status: ('A' for Active; 'I' for Inactive)
REMARK    1  A    between atoms: C_1  and  N_2
REMARK    2  A    between atoms: C_7  and  C_9
REMARK    3  A    between atoms: N_11  and  C_12
REMARK    4  A    between atoms: C_13  and  C_20
REMARK                            x       y       z     vdW  Elec       q    Type
REMARK                         _______ _______ _______ _____ _____    ______ ____
ROOT
ATOM      1  C   UNL     1      -1.612   7.336   0.053  0.00  0.00    +0.085 A 
ATOM      2  C   UNL     1      -2.764   8.104   0.062  0.00  0.00    +0.068 A 
ATOM      3  C   UNL     1      -2.608   9.558   0.072  0.00  0.00    -0.023 A 
ATOM      4  C   UNL     1      -1.336   9.996   0.062  0.00  0.00    -0.004 A 
ATOM      5  S   UNL     1      -0.350   8.520   0.046  0.00  0.00    -0.077 S 
ATOM      6  C   UNL     1      -1.257  11.499   0.071  0.00  0.00    +0.043 C 
ATOM      7  C   UNL     1      -2.660  11.960   0.524  0.00  0.00    +0.010 C 
ATOM      8  C   UNL     1      -3.538  10.772   0.083  0.00  0.00    +0.037 C 
ENDROOT
BRANCH   2   9
ATOM      9  C   UNL     1      -4.092   7.483   0.066  0.00  0.00    +0.244 C 
ATOM     10  O   UNL     1      -4.638   7.221   1.122  0.00  0.00    -0.270 OA
ATOM     11  N   UNL     1      -4.708   7.201  -1.099  0.00  0.00    -0.325 N 
ATOM     12  H   UNL     1      -4.272   7.410  -1.940  0.00  0.00    +0.145 HD
ATOM     13  H   UNL     1      -5.586   6.790  -1.097  0.00  0.00    +0.145 HD
ENDBRANCH   2   9
BRANCH   1  16
ATOM     14  C   UNL     1      -0.280   5.380   0.032  0.00  0.00    +0.269 C 
ATOM     15  O   UNL     1       0.720   6.072   0.025  0.00  0.00    -0.268 OA
ATOM     16  N   UNL     1      -1.498   5.955   0.046  0.00  0.00    -0.274 N 
ATOM     17  H   UNL     1      -2.295   5.403   0.051  0.00  0.00    +0.156 HD
BRANCH  14  24
ATOM     18  C   UNL     1      -2.436   1.113   0.020  0.00  0.00    +0.176 C 
ATOM     19  N   UNL     1      -1.187   1.877   0.018  0.00  0.00    -0.232 N 
ATOM     20  C   UNL     1      -0.015   1.216   0.009  0.00  0.00    +0.267 A 
ATOM     21  O   UNL     1       0.002  -0.004   0.002  0.00  0.00    -0.266 OA
ATOM     22  C   UNL     1       1.196   1.943   0.001  0.00  0.00    +0.074 A 
ATOM     23  C   UNL     1       1.124   3.304   0.009  0.00  0.00    +0.040 A 
ATOM     24  C   UNL     1      -0.158   3.907   0.024  0.00  0.00    +0.146 A 
ATOM     25  N   UNL     1      -1.239   3.160   0.030  0.00  0.00    -0.164 NA
ENDBRANCH  14  24
ENDBRANCH   1  16
TORSDOF 3
