REMARK  Name = ZINC09454646
REMARK  7 active torsions:
REMARK  status: ('A' for Active; 'I' for Inactive)
REMARK    1  A    between atoms: C_1  and  C_2
REMARK    2  A    between atoms: C_2  and  O_3
REMARK    3  A    between atoms: O_3  and  C_4
REMARK    4  A    between atoms: C_13  and  C_15
REMARK    5  A    between atoms: N_17  and  C_18
REMARK    6  A    between atoms: C_20  and  N_25
REMARK    7  A    between atoms: C_26  and  C_36
REMARK                            x       y       z     vdW  Elec       q    Type
REMARK                         _______ _______ _______ _____ _____    ______ ____
ROOT
ATOM      1  C   UNL     1       2.334   1.175   0.055  0.00  0.00    +0.054 A 
ATOM      2  C   UNL     1       2.307  -0.212   0.041  0.00  0.00    +0.051 A 
ATOM      3  C   UNL     1       3.492  -0.927   0.139  0.00  0.00    +0.053 A 
ATOM      4  C   UNL     1       4.702  -0.254   0.250  0.00  0.00    +0.028 A 
ATOM      5  C   UNL     1       4.727   1.127   0.264  0.00  0.00    +0.024 A 
ATOM      6  C   UNL     1       3.549   1.844   0.161  0.00  0.00    +0.062 A 
ATOM      7 CL   UNL     1       3.585   3.579   0.171  0.00  0.00    -0.082 Cl
ENDROOT
BRANCH   3   8
ATOM      8  N   UNL     1       3.468  -2.328   0.124  0.00  0.00    -0.265 N 
ATOM      9  C   UNL     1       2.717  -2.999   1.040  0.00  0.00    +0.114 A 
ATOM     10  N   UNL     1       2.639  -4.294   1.086  0.00  0.00    -0.233 NA
ATOM     11  C   UNL     1       3.323  -5.080   0.217  0.00  0.00    +0.078 A 
ATOM     12  C   UNL     1       3.244  -6.473   0.272  0.00  0.00    +0.028 A 
ATOM     13  C   UNL     1       3.956  -7.232  -0.630  0.00  0.00    +0.002 A 
ATOM     14  C   UNL     1       4.753  -6.629  -1.595  0.00  0.00    +0.001 A 
ATOM     15  C   UNL     1       4.847  -5.257  -1.669  0.00  0.00    +0.015 A 
ATOM     16  C   UNL     1       4.135  -4.470  -0.765  0.00  0.00    +0.065 A 
ATOM     17  C   UNL     1       4.197  -3.002  -0.796  0.00  0.00    +0.266 A 
ATOM     18  O   UNL     1       4.877  -2.415  -1.617  0.00  0.00    -0.267 OA
ATOM     19  C   UNL     1       1.931  -2.198   2.045  0.00  0.00    +0.086 C 
ENDBRANCH   3   8
BRANCH   1  22
ATOM     20  C   UNL     1       0.064   1.347  -0.632  0.00  0.00    +0.255 C 
ATOM     21  O   UNL     1       0.156   0.261  -1.173  0.00  0.00    -0.270 OA
ATOM     22  N   UNL     1       1.142   1.900  -0.043  0.00  0.00    -0.280 N 
ATOM     23  H   UNL     1       1.091   2.801   0.313  0.00  0.00    +0.155 HD
BRANCH  20  33
ATOM     24  C   UNL     1      -4.934   3.992  -0.673  0.00  0.00    +0.163 A 
ATOM     25  C   UNL     1      -5.061   5.227  -0.064  0.00  0.00    +0.049 A 
ATOM     26  C   UNL     1      -3.974   5.823   0.558  0.00  0.00    +0.004 A 
ATOM     27  C   UNL     1      -2.760   5.200   0.579  0.00  0.00    +0.012 A 
ATOM     28  C   UNL     1      -2.604   3.946  -0.033  0.00  0.00    +0.022 A 
ATOM     29  C   UNL     1      -3.702   3.336  -0.664  0.00  0.00    +0.180 A 
ATOM     30  O   UNL     1      -3.577   2.130  -1.259  0.00  0.00    -0.418 OA
ATOM     31  C   UNL     1      -2.406   1.472  -1.269  0.00  0.00    +0.350 A 
ATOM     32  O   UNL     1      -2.325   0.386  -1.813  0.00  0.00    -0.244 OA
ATOM     33  C   UNL     1      -1.225   2.059  -0.626  0.00  0.00    +0.122 A 
ATOM     34  C   UNL     1      -1.345   3.293  -0.010  0.00  0.00    +0.032 A 
BRANCH  24  35
ATOM     35  O   UNL     1      -6.006   3.417  -1.280  0.00  0.00    -0.489 OA
BRANCH  35  37
ATOM     36  C   UNL     1      -8.319   3.347  -1.977  0.00  0.00    +0.048 C 
ATOM     37  C   UNL     1      -7.236   4.145  -1.250  0.00  0.00    +0.226 C 
ENDBRANCH  35  37
ENDBRANCH  24  35
ENDBRANCH  20  33
ENDBRANCH   1  22
TORSDOF 5
