REMARK  Name = ZINC02628547
REMARK  7 active torsions:
REMARK  status: ('A' for Active; 'I' for Inactive)
REMARK    1  A    between atoms: C_1  and  O_2
REMARK    2  A    between atoms: O_2  and  C_3
REMARK    3  A    between atoms: C_7  and  C_9
REMARK    4  A    between atoms: C_12  and  S_20
REMARK    5  A    between atoms: N_13  and  C_14
REMARK    6  A    between atoms: S_20  and  C_21
REMARK    7  A    between atoms: C_21  and  C_22
REMARK                            x       y       z     vdW  Elec       q    Type
REMARK                         _______ _______ _______ _____ _____    ______ ____
ROOT
ATOM      1  C   UNL     1      -0.052   5.336   0.182  0.00  0.00    +0.169 A 
ATOM      2  N   UNL     1       0.963   6.130  -0.068  0.00  0.00    -0.128 NA
ATOM      3  N   UNL     1       0.557   7.345  -0.172  0.00  0.00    -0.122 NA
ATOM      4  C   UNL     1      -0.744   7.403   0.006  0.00  0.00    +0.197 A 
ATOM      5  N   UNL     1      -1.179   6.126   0.233  0.00  0.00    -0.270 N 
ENDROOT
BRANCH   1  10
ATOM      6  C   UNL     1      -0.997   1.830   1.154  0.00  0.00    +0.121 A 
ATOM      7  C   UNL     1       0.114   1.122   0.714  0.00  0.00    +0.045 A 
ATOM      8  C   UNL     1       1.166   1.783   0.110  0.00  0.00    +0.004 A 
ATOM      9  C   UNL     1       1.116   3.150  -0.070  0.00  0.00    +0.012 A 
ATOM     10  C   UNL     1       0.004   3.871   0.369  0.00  0.00    +0.023 A 
ATOM     11  C   UNL     1      -1.056   3.203   0.984  0.00  0.00    +0.057 A 
BRANCH   6  13
ATOM     12  C   UNL     1      -1.899  -0.241   1.896  0.00  0.00    +0.277 C 
ATOM     13  O   UNL     1      -2.027   1.175   1.753  0.00  0.00    -0.495 OA
ENDBRANCH   6  13
ENDBRANCH   1  10
BRANCH   5  14
ATOM     14  C   UNL     1      -2.497   5.709   0.470  0.00  0.00    +0.051 A 
ATOM     15  C   UNL     1      -3.162   4.936  -0.473  0.00  0.00    +0.026 A 
ATOM     16  C   UNL     1      -4.457   4.522  -0.234  0.00  0.00    +0.002 A 
ATOM     17  C   UNL     1      -5.097   4.886   0.937  0.00  0.00    +0.000 A 
ATOM     18  C   UNL     1      -4.439   5.660   1.875  0.00  0.00    +0.002 A 
ATOM     19  C   UNL     1      -3.141   6.073   1.644  0.00  0.00    +0.026 A 
ENDBRANCH   5  14
BRANCH   4  20
ATOM     20  S   UNL     1      -1.742   8.854  -0.044  0.00  0.00    -0.076 S 
BRANCH  20  21
ATOM     21  C   UNL     1      -0.473  10.097  -0.391  0.00  0.00    +0.173 C 
BRANCH  21  22
ATOM     22  C   UNL     1      -1.113  11.458  -0.481  0.00  0.00    +0.231 C 
ATOM     23  O   UNL     1      -2.310  11.576  -0.325  0.00  0.00    -0.274 OA
ATOM     24  N   UNL     1      -0.356  12.544  -0.734  0.00  0.00    -0.260 N 
ATOM     25  C   UNL     1       1.098  12.427  -0.927  0.00  0.00    +0.209 C 
ATOM     26  C   UNL     1       1.781  13.560  -0.205  0.00  0.00    +0.235 C 
ATOM     27  O   UNL     1       2.906  13.406   0.222  0.00  0.00    -0.274 OA
ATOM     28  N   UNL     1       1.159  14.741  -0.029  0.00  0.00    -0.283 N 
ATOM     29  C   UNL     1      -0.156  14.929  -0.468  0.00  0.00    +0.055 A 
ATOM     30  C   UNL     1      -0.930  13.821  -0.828  0.00  0.00    +0.058 A 
ATOM     31  C   UNL     1      -2.231  13.989  -1.263  0.00  0.00    +0.025 A 
ATOM     32  C   UNL     1      -2.767  15.262  -1.349  0.00  0.00    +0.002 A 
ATOM     33  C   UNL     1      -2.005  16.363  -1.003  0.00  0.00    +0.002 A 
ATOM     34  C   UNL     1      -0.700  16.201  -0.554  0.00  0.00    +0.025 A 
ATOM     35  H   UNL     1       1.628  15.470   0.407  0.00  0.00    +0.155 HD
ENDBRANCH  21  22
ENDBRANCH  20  21
ENDBRANCH   4  20
TORSDOF 6
