REMARK  Name = ZINC22059377
REMARK  7 active torsions:
REMARK  status: ('A' for Active; 'I' for Inactive)
REMARK    1  A    between atoms: C_1  and  C_2
REMARK    2  A    between atoms: C_3  and  C_16
REMARK    3  A    between atoms: C_11  and  O_14
REMARK    4  A    between atoms: O_14  and  C_15
REMARK    5  A    between atoms: C_16  and  C_17
REMARK    6  A    between atoms: C_17  and  N_18
REMARK    7  A    between atoms: C_21  and  C_24
REMARK                            x       y       z     vdW  Elec       q    Type
REMARK                         _______ _______ _______ _____ _____    ______ ____
ROOT
ATOM      1  N   UNL     1      -0.706   2.000   1.219  0.00  0.00    +0.380 N 
ATOM      2  C   UNL     1      -2.126   1.626   1.197  0.00  0.00    -0.078 C 
ATOM      3  C   UNL     1      -2.775   2.005   2.530  0.00  0.00    -0.009 C 
ATOM      4  C   UNL     1      -2.629   3.513   2.753  0.00  0.00    +0.038 C 
ATOM      5  C   UNL     1      -1.143   3.883   2.723  0.00  0.00    -0.009 C 
ATOM      6  C   UNL     1      -0.541   3.449   1.384  0.00  0.00    -0.078 C 
ATOM      7  H   UNL     1      -0.244   1.508   2.088  0.00  0.00    -0.082 HD
ENDROOT
BRANCH   4   8
ATOM      8  C   UNL     1      -3.213   3.885   4.091  0.00  0.00    +0.094 A 
ATOM      9  C   UNL     1      -4.315   4.823   4.326  0.00  0.00    +0.045 A 
ATOM     10  C   UNL     1      -5.112   5.606   3.486  0.00  0.00    +0.016 A 
ATOM     11  C   UNL     1      -6.084   6.401   4.021  0.00  0.00    +0.039 A 
ATOM     12  C   UNL     1      -6.289   6.438   5.395  0.00  0.00    +0.127 A 
ATOM     13  C   UNL     1      -5.513   5.671   6.241  0.00  0.00    +0.088 A 
ATOM     14  C   UNL     1      -4.518   4.856   5.715  0.00  0.00    +0.170 A 
ATOM     15  O   UNL     1      -3.620   4.015   6.268  0.00  0.00    -0.354 OA
ATOM     16  N   UNL     1      -2.838   3.430   5.247  0.00  0.00    -0.082 NA
ATOM     17  F   UNL     1      -7.256   7.230   5.908  0.00  0.00    -0.205 F 
ENDBRANCH   4   8
BRANCH   1  18
ATOM     18  C   UNL     1      -0.019   1.526   0.010  0.00  0.00    -0.074 C 
BRANCH  18  19
ATOM     19  C   UNL     1       0.002  -0.004   0.002  0.00  0.00    +0.024 C 
BRANCH  19  22
ATOM     20  C   UNL     1       2.824  -0.645   0.062  0.00  0.00    +0.066 C 
ATOM     21  C   UNL     1       2.035  -0.796  -1.213  0.00  0.00    +0.048 A 
ATOM     22  C   UNL     1       0.707  -0.490  -1.238  0.00  0.00    +0.036 A 
ATOM     23  C   UNL     1       0.015  -0.634  -2.454  0.00  0.00    +0.257 A 
ATOM     24  O   UNL     1      -1.175  -0.373  -2.519  0.00  0.00    -0.267 OA
ATOM     25  N   UNL     1       0.683  -1.068  -3.554  0.00  0.00    -0.294 N 
ATOM     26  C   UNL     1       1.986  -1.375  -3.461  0.00  0.00    +0.113 A 
ATOM     27  N   UNL     1       2.629  -1.234  -2.320  0.00  0.00    -0.238 NA
ATOM     28  C   UNL     1       2.786  -1.898  -4.628  0.00  0.00    +0.077 C 
ATOM     29  C   UNL     1       2.068  -1.606  -5.944  0.00  0.00    +0.041 C 
ATOM     30  C   UNL     1       0.613  -2.072  -5.805  0.00  0.00    +0.138 C 
ATOM     31  C   UNL     1      -0.085  -1.165  -4.796  0.00  0.00    +0.158 C 
BRANCH  30  32
ATOM     32  O   UNL     1      -0.045  -1.982  -7.071  0.00  0.00    -0.378 OA
ATOM     33  C   UNL     1      -1.100  -2.929  -7.246  0.00  0.00    +0.194 C 
ENDBRANCH  30  32
ENDBRANCH  19  22
ENDBRANCH  18  19
ENDBRANCH   1  18
TORSDOF 5
