REMARK  Name = ZINC63279583
REMARK  9 active torsions:
REMARK  status: ('A' for Active; 'I' for Inactive)
REMARK    1  A    between atoms: C_6  and  C_7
REMARK    2  A    between atoms: C_7  and  N_8
REMARK    3  A    between atoms: C_9  and  C_11
REMARK    4  A    between atoms: C_11  and  C_12
REMARK    5  A    between atoms: C_12  and  C_13
REMARK    6  A    between atoms: N_17  and  C_21
REMARK    7  A    between atoms: C_18  and  O_20
REMARK    8  A    between atoms: C_21  and  C_22
REMARK    9  A    between atoms: C_22  and  C_23
REMARK                            x       y       z     vdW  Elec       q    Type
REMARK                         _______ _______ _______ _____ _____    ______ ____
ROOT
ATOM      1  C   UNL     1      -5.081  -2.974  -4.457  0.00  0.00    +0.197 C 
ATOM      2  C   UNL     1      -6.345  -3.811  -4.478  0.00  0.00    +0.248 C 
ATOM      3  O   UNL     1      -6.493  -4.936  -4.051  0.00  0.00    -0.273 OA
ATOM      4  N   UNL     1      -7.271  -3.031  -5.076  0.00  0.00    -0.224 N 
ATOM      5  C   UNL     1      -6.731  -1.819  -5.423  0.00  0.00    +0.285 C 
ATOM      6  N   UNL     1      -5.479  -1.712  -5.102  0.00  0.00    -0.224 NA
ENDROOT
BRANCH   5   7
ATOM      7  O   UNL     1      -7.430  -0.840  -6.038  0.00  0.00    -0.481 OA
ATOM      8  H   UNL     1      -6.913  -0.043  -6.219  0.00  0.00    +0.295 HD
ENDBRANCH   5   7
BRANCH   1   9
ATOM      9  C   UNL     1      -4.629  -2.721  -3.017  0.00  0.00    +0.045 C 
BRANCH   9  10
ATOM     10  C   UNL     1      -3.314  -1.940  -3.025  0.00  0.00    +0.098 C 
BRANCH  10  12
ATOM     11  N   UNL     1      -1.727  -1.016  -1.368  0.00  0.00    -0.311 N 
ATOM     12  C   UNL     1      -2.868  -1.691  -1.607  0.00  0.00    +0.213 C 
ATOM     13  O   UNL     1      -3.537  -2.098  -0.681  0.00  0.00    -0.276 OA
ATOM     14  H   UNL     1      -1.192  -0.690  -2.109  0.00  0.00    +0.149 HD
BRANCH  11  15
ATOM     15  C   UNL     1      -1.294  -0.774   0.010  0.00  0.00    +0.139 C 
BRANCH  15  21
ATOM     16  C   UNL     1      -0.017   1.378   0.010  0.00  0.00    +0.009 A 
ATOM     17  C   UNL     1       1.170   2.088   0.002  0.00  0.00    +0.050 A 
ATOM     18  C   UNL     1       2.380   1.416  -0.013  0.00  0.00    +0.166 A 
ATOM     19  C   UNL     1       2.399   0.023  -0.021  0.00  0.00    +0.167 A 
ATOM     20  C   UNL     1       1.207  -0.682  -0.014  0.00  0.00    +0.054 A 
ATOM     21  C   UNL     1       0.002  -0.004   0.002  0.00  0.00    -0.027 A 
ATOM     22  O   UNL     1       3.698  -0.395  -0.036  0.00  0.00    -0.453 OA
ATOM     23  C   UNL     1       4.466   0.750  -0.450  0.00  0.00    +0.466 C 
ATOM     24  O   UNL     1       3.668   1.870  -0.024  0.00  0.00    -0.453 OA
ENDBRANCH  15  21
ENDBRANCH  11  15
ENDBRANCH  10  12
ENDBRANCH   9  10
ENDBRANCH   1   9
BRANCH   4  25
ATOM     25  C   UNL     1      -8.661  -3.425  -5.320  0.00  0.00    +0.122 C 
BRANCH  25  26
ATOM     26  C   UNL     1      -9.522  -3.027  -4.120  0.00  0.00    +0.052 C 
BRANCH  26  27
ATOM     27  C   UNL     1     -10.952  -3.432  -4.371  0.00  0.00    -0.040 C 
ATOM     28  C   UNL     1     -11.558  -4.570  -3.963  0.00  0.00    +0.002 A 
ATOM     29  C   UNL     1     -11.085  -5.727  -3.192  0.00  0.00    +0.048 A 
ATOM     30  C   UNL     1     -11.945  -6.740  -2.934  0.00  0.00    +0.124 A 
ATOM     31  C   UNL     1     -13.275  -6.711  -3.384  0.00  0.00    +0.040 A 
ATOM     32  C   UNL     1     -13.780  -5.683  -4.098  0.00  0.00    +0.029 A 
ATOM     33  C   UNL     1     -12.964  -4.565  -4.426  0.00  0.00    +0.043 A 
ATOM     34  N   UNL     1     -13.217  -3.466  -5.094  0.00  0.00    -0.380 N 
ATOM     35  C   UNL     1     -12.001  -2.646  -5.125  0.00  0.00    +0.144 C 
ATOM     36  F   UNL     1     -11.513  -7.806  -2.226  0.00  0.00    -0.205 F 
ATOM     37  H   UNL     1     -14.068  -3.232  -5.497  0.00  0.00    +0.160 HD
ENDBRANCH  26  27
ENDBRANCH  25  26
ENDBRANCH   4  25
TORSDOF 9
