REMARK  Name = ZINC55176809
REMARK  4 active torsions:
REMARK  status: ('A' for Active; 'I' for Inactive)
REMARK    1  A    between atoms: C_1  and  C_2
REMARK    2  A    between atoms: C_2  and  C_3
REMARK    3  A    between atoms: C_2  and  N_4
REMARK    4  A    between atoms: C_12  and  C_13
REMARK                            x       y       z     vdW  Elec       q    Type
REMARK                         _______ _______ _______ _____ _____    ______ ____
ROOT
ATOM      1  N   UNL     1      -1.372  -0.510  -0.058  0.00  0.00    -0.320 N 
ATOM      2  C   UNL     1      -1.892  -1.360  -1.017  0.00  0.00    +0.069 A 
ATOM      3  C   UNL     1      -1.373  -1.951  -2.160  0.00  0.00    +0.029 A 
ATOM      4  C   UNL     1      -2.169  -2.774  -2.929  0.00  0.00    +0.017 A 
ATOM      5  C   UNL     1      -3.488  -3.015  -2.568  0.00  0.00    +0.020 A 
ATOM      6  C   UNL     1      -4.020  -2.438  -1.437  0.00  0.00    +0.045 A 
ATOM      7  C   UNL     1      -3.226  -1.601  -0.646  0.00  0.00    +0.091 A 
ATOM      8  N   UNL     1      -3.458  -0.905   0.494  0.00  0.00    -0.226 NA
ATOM      9  C   UNL     1      -2.369  -0.264   0.849  0.00  0.00    +0.161 A 
ATOM     10 BR   UNL     1      -4.562  -4.146  -3.638  0.00  0.00    -0.050 Br
ENDROOT
BRANCH   9  11
ATOM     11  C   UNL     1      -2.238   0.593   2.043  0.00  0.00    +0.115 A 
ATOM     12  C   UNL     1      -3.330   0.864   2.825  0.00  0.00    +0.080 A 
ATOM     13  S   UNL     1      -2.594   1.910   4.074  0.00  0.00    -0.060 S 
ATOM     14  C   UNL     1      -0.924   1.884   3.438  0.00  0.00    +0.156 A 
ATOM     15  N   UNL     1      -1.056   1.111   2.377  0.00  0.00    -0.222 NA
ATOM     16  N   UNL     1       0.210   2.507   3.931  0.00  0.00    -0.338 N 
ATOM     17  H   UNL     1       0.156   3.049   4.733  0.00  0.00    +0.144 HD
ATOM     18  H   UNL     1       1.059   2.401   3.473  0.00  0.00    +0.144 HD
ENDBRANCH   9  11
BRANCH   1  20
ATOM     19  C   UNL     1       0.988  -1.131   0.100  0.00  0.00    +0.030 C 
ATOM     20  C   UNL     1      -0.008   0.024  -0.017  0.00  0.00    +0.083 C 
ATOM     21  C   UNL     1       0.270   0.810  -1.300  0.00  0.00    +0.030 C 
ENDBRANCH   1  20
TORSDOF 2
