REMARK  Name = ZINC13051214
REMARK  9 active torsions:
REMARK  status: ('A' for Active; 'I' for Inactive)
REMARK    1  A    between atoms: C_1  and  C_2
REMARK    2  A    between atoms: C_12  and  C_14
REMARK    3  A    between atoms: C_14  and  S_15
REMARK    4  A    between atoms: S_15  and  C_16
REMARK    5  A    between atoms: C_20  and  C_32
REMARK    6  A    between atoms: N_26  and  C_27
REMARK    7  A    between atoms: C_27  and  C_28
REMARK    8  A    between atoms: C_28  and  C_30
REMARK    9  A    between atoms: C_28  and  O_31
REMARK                            x       y       z     vdW  Elec       q    Type
REMARK                         _______ _______ _______ _____ _____    ______ ____
ROOT
ATOM      1  C   UNL     1       3.739   7.086   0.003  0.00  0.00    +0.173 A 
ATOM      2  N   UNL     1       3.693   5.776  -0.003  0.00  0.00    -0.223 NA
ATOM      3  C   UNL     1       2.516   5.108   0.005  0.00  0.00    +0.080 A 
ATOM      4  C   UNL     1       2.470   3.711  -0.002  0.00  0.00    +0.043 A 
ATOM      5  C   UNL     1       1.238   3.069   0.007  0.00  0.00    +0.065 A 
ATOM      6  C   UNL     1       0.050   3.811   0.016  0.00  0.00    +0.016 A 
ATOM      7  C   UNL     1       0.083   5.176   0.029  0.00  0.00    +0.016 A 
ATOM      8  C   UNL     1       1.308   5.841   0.021  0.00  0.00    +0.065 A 
ATOM      9  C   UNL     1       1.389   7.311   0.028  0.00  0.00    +0.262 A 
ATOM     10  O   UNL     1       0.385   7.998   0.040  0.00  0.00    -0.267 OA
ATOM     11  N   UNL     1       2.621   7.870   0.018  0.00  0.00    -0.285 N 
ENDROOT
BRANCH   5  12
ATOM     12  C   UNL     1       1.181   1.591  -0.001  0.00  0.00    +0.387 C 
ATOM     13  O   UNL     1       2.208   0.943  -0.014  0.00  0.00    -0.241 OA
ATOM     14  O   UNL     1      -0.011   0.963   0.007  0.00  0.00    -0.241 OA
ENDBRANCH   5  12
BRANCH   1  15
ATOM     15  S   UNL     1       5.316   7.871  -0.009  0.00  0.00    -0.078 S 
BRANCH  15  16
ATOM     16  C   UNL     1       6.392   6.416  -0.027  0.00  0.00    +0.173 C 
BRANCH  16  27
ATOM     17  C   UNL     1      10.609   7.035  -1.332  0.00  0.00    +0.029 C 
ATOM     18  C   UNL     1      10.252   6.243  -0.073  0.00  0.00    +0.083 C 
ATOM     19  C   UNL     1      10.955   4.876  -0.082  0.00  0.00    +0.059 C 
ATOM     20  C   UNL     1       9.828   3.868  -0.076  0.00  0.00    -0.024 A 
ATOM     21  C   UNL     1       9.848   2.486  -0.084  0.00  0.00    +0.005 A 
ATOM     22  C   UNL     1       8.663   1.775  -0.077  0.00  0.00    +0.000 A 
ATOM     23  C   UNL     1       7.456   2.449  -0.060  0.00  0.00    +0.002 A 
ATOM     24  C   UNL     1       7.431   3.827  -0.051  0.00  0.00    +0.024 A 
ATOM     25  C   UNL     1       8.624   4.553  -0.060  0.00  0.00    +0.040 A 
ATOM     26  N   UNL     1       8.819   5.938  -0.054  0.00  0.00    -0.267 N 
ATOM     27  C   UNL     1       7.833   6.857  -0.040  0.00  0.00    +0.230 C 
ATOM     28  O   UNL     1       8.106   8.039  -0.036  0.00  0.00    -0.274 OA
ENDBRANCH  16  27
ENDBRANCH  15  16
ENDBRANCH   1  15
BRANCH  11  29
ATOM     29  C   UNL     1       2.757   9.329   0.024  0.00  0.00    +0.158 C 
BRANCH  29  30
ATOM     30  C   UNL     1       2.818   9.829   1.469  0.00  0.00    +0.131 C 
ATOM     31  C   UNL     1       2.960  11.353   1.475  0.00  0.00    +0.039 C 
BRANCH  30  32
ATOM     32  O   UNL     1       1.619   9.460   2.152  0.00  0.00    -0.390 OA
ATOM     33  H   UNL     1       1.589   9.745   3.076  0.00  0.00    +0.210 HD
ENDBRANCH  30  32
ENDBRANCH  29  30
ENDBRANCH  11  29
TORSDOF 7
