REMARK  Name = ZINC39927419
REMARK  4 active torsions:
REMARK  status: ('A' for Active; 'I' for Inactive)
REMARK    1  A    between atoms: C_1  and  C_2
REMARK    2  A    between atoms: C_4  and  N_16
REMARK    3  A    between atoms: N_5  and  C_7
REMARK    4  A    between atoms: C_17  and  C_19
REMARK                            x       y       z     vdW  Elec       q    Type
REMARK                         _______ _______ _______ _____ _____    ______ ____
ROOT
ATOM      1  C   UNL     1       0.016   1.503   0.011  0.00  0.00    +0.067 C 
ATOM      2  C   UNL     1       0.017  -0.004   0.002  0.00  0.00    +0.062 A 
ATOM      3  C   UNL     1       0.033  -0.816  -1.135  0.00  0.00    +0.068 A 
ATOM      4  C   UNL     1       0.028  -2.112  -0.722  0.00  0.00    +0.128 A 
ATOM      5  N   UNL     1       0.010  -2.110   0.630  0.00  0.00    -0.209 N 
ATOM      6  N   UNL     1       0.008  -0.776   1.059  0.00  0.00    -0.171 NA
ENDROOT
BRANCH   5   7
ATOM      7  C   UNL     1      -0.000  -3.293   1.495  0.00  0.00    +0.303 C 
ATOM      8  N   UNL     1      -1.228  -3.318   2.299  0.00  0.00    -0.345 N 
ATOM      9  C   UNL     1      -0.875  -3.278   3.552  0.00  0.00    +0.062 A 
ATOM     10  C   UNL     1      -1.641  -3.277   4.806  0.00  0.00    +0.027 A 
ATOM     11  C   UNL     1      -0.988  -3.227   5.984  0.00  0.00    +0.002 A 
ATOM     12  C   UNL     1       0.415  -3.175   6.071  0.00  0.00    +0.002 A 
ATOM     13  C   UNL     1       1.211  -3.171   4.984  0.00  0.00    +0.027 A 
ATOM     14  C   UNL     1       0.609  -3.223   3.644  0.00  0.00    +0.062 A 
ATOM     15  N   UNL     1       1.117  -3.232   2.446  0.00  0.00    -0.345 N 
ATOM     16  H   UNL     1      -2.136  -3.357   1.960  0.00  0.00    +0.163 HD
ATOM     17  H   UNL     1       2.060  -3.204   2.222  0.00  0.00    +0.163 HD
ENDBRANCH   5   7
BRANCH   4  18
ATOM     18  N   UNL     1       0.040  -3.239  -1.544  0.00  0.00    -0.269 N 
ATOM     19  C   UNL     1      -0.071  -3.100  -2.880  0.00  0.00    +0.233 C 
ATOM     20  O   UNL     1      -0.180  -1.995  -3.368  0.00  0.00    -0.274 OA
ATOM     21  H   UNL     1       0.127  -4.123  -1.154  0.00  0.00    +0.156 HD
BRANCH  19  22
ATOM     22  C   UNL     1      -0.058  -4.317  -3.768  0.00  0.00    +0.159 C 
ATOM     23  C   UNL     1      -0.806  -4.055  -5.095  0.00  0.00    +0.133 C 
ATOM     24  C   UNL     1       0.123  -3.547  -6.170  0.00  0.00    -0.015 A 
ATOM     25  C   UNL     1      -0.242  -2.849  -7.324  0.00  0.00    +0.007 A 
ATOM     26  C   UNL     1       0.702  -2.451  -8.244  0.00  0.00    +0.020 A 
ATOM     27  C   UNL     1       2.043  -2.732  -8.051  0.00  0.00    +0.042 A 
ATOM     28  C   UNL     1       2.429  -3.416  -6.912  0.00  0.00    +0.035 A 
ATOM     29  C   UNL     1       1.479  -3.807  -5.987  0.00  0.00    +0.015 A 
ATOM     30  S   UNL     1       1.628  -4.651  -4.426  0.00  0.00    -0.110 S 
ATOM     31 CL   UNL     1       3.225  -2.235  -9.221  0.00  0.00    -0.084 Cl
ATOM     32 CL   UNL     1      -1.566  -5.591  -5.655  0.00  0.00    -0.115 Cl
ENDBRANCH  19  22
ENDBRANCH   4  18
TORSDOF 3
