REMARK  Name = ZINC03233405
REMARK  8 active torsions:
REMARK  status: ('A' for Active; 'I' for Inactive)
REMARK    1  A    between atoms: C_1  and  C_2
REMARK    2  A    between atoms: C_3  and  N_15
REMARK    3  A    between atoms: N_6  and  C_9
REMARK    4  A    between atoms: N_7  and  C_8
REMARK    5  A    between atoms: C_16  and  C_18
REMARK    6  A    between atoms: C_18  and  N_19
REMARK    7  A    between atoms: N_19  and  C_20
REMARK    8  A    between atoms: C_20  and  C_21
REMARK                            x       y       z     vdW  Elec       q    Type
REMARK                         _______ _______ _______ _____ _____    ______ ____
ROOT
ATOM      1  N   UNL     1       0.122  -0.219  -2.458  0.00  0.00    -0.281 N 
ATOM      2  C   UNL     1       0.643  -0.894  -3.501  0.00  0.00    +0.200 C 
ATOM      3  O   UNL     1       1.158  -1.978  -3.326  0.00  0.00    -0.278 OA
ATOM      4  H   UNL     1      -0.225   0.678  -2.585  0.00  0.00    +0.155 HD
ENDROOT
BRANCH   1   7
ATOM      5  C   UNL     1      -2.433  -0.669  -0.820  0.00  0.00    +0.067 C 
ATOM      6  C   UNL     1      -1.022  -1.031  -0.432  0.00  0.00    +0.059 A 
ATOM      7  C   UNL     1       0.082  -0.816  -1.182  0.00  0.00    +0.121 A 
ATOM      8  C   UNL     1       1.227  -1.319  -0.422  0.00  0.00    +0.293 A 
ATOM      9  O   UNL     1       2.393  -1.300  -0.771  0.00  0.00    -0.264 OA
ATOM     10  N   UNL     1       0.744  -1.806   0.740  0.00  0.00    -0.216 N 
ATOM     11  N   UNL     1      -0.644  -1.627   0.742  0.00  0.00    -0.282 N 
ATOM     12  C   UNL     1      -1.549  -2.016   1.826  0.00  0.00    +0.171 C 
BRANCH  10  13
ATOM     13  C   UNL     1       1.499  -2.385   1.764  0.00  0.00    +0.067 A 
ATOM     14  C   UNL     1       1.100  -3.592   2.325  0.00  0.00    +0.028 A 
ATOM     15  C   UNL     1       1.848  -4.161   3.337  0.00  0.00    +0.002 A 
ATOM     16  C   UNL     1       2.992  -3.531   3.792  0.00  0.00    +0.000 A 
ATOM     17  C   UNL     1       3.391  -2.330   3.235  0.00  0.00    +0.002 A 
ATOM     18  C   UNL     1       2.651  -1.758   2.219  0.00  0.00    +0.028 A 
ENDBRANCH  10  13
ENDBRANCH   1   7
BRANCH   2  19
ATOM     19  C   UNL     1       0.587  -0.301  -4.886  0.00  0.00    +0.016 C 
BRANCH  19  20
ATOM     20  N   UNL     1       1.217  -1.224  -5.840  0.00  0.00    +0.387 N 
ATOM     21  H   UNL     1       2.179  -1.374  -5.577  0.00  0.00    -0.085 HD
ATOM     22  H   UNL     1       0.725  -2.105  -5.830  0.00  0.00    -0.085 HD
BRANCH  20  23
ATOM     23  C   UNL     1       1.162  -0.646  -7.189  0.00  0.00    -0.046 C 
BRANCH  23  24
ATOM     24  C   UNL     1       1.808  -1.593  -8.168  0.00  0.00    -0.061 A 
ATOM     25  C   UNL     1       3.163  -1.499  -8.427  0.00  0.00    +0.005 A 
ATOM     26  C   UNL     1       3.760  -2.365  -9.323  0.00  0.00    +0.050 A 
ATOM     27  C   UNL     1       3.002  -3.331  -9.964  0.00  0.00    +0.166 A 
ATOM     28  C   UNL     1       1.637  -3.426  -9.703  0.00  0.00    +0.166 A 
ATOM     29  C   UNL     1       1.046  -2.558  -8.800  0.00  0.00    +0.051 A 
ATOM     30  O   UNL     1       1.120  -4.444 -10.451  0.00  0.00    -0.453 OA
ATOM     31  C   UNL     1       2.098  -4.705 -11.475  0.00  0.00    +0.466 C 
ATOM     32  O   UNL     1       3.340  -4.290 -10.875  0.00  0.00    -0.453 OA
ENDBRANCH  23  24
ENDBRANCH  20  23
ENDBRANCH  19  20
ENDBRANCH   2  19
TORSDOF 6
