REMARK  Name = ZINC09209519
REMARK  4 active torsions:
REMARK  status: ('A' for Active; 'I' for Inactive)
REMARK    1  A    between atoms: C_1  and  O_2
REMARK    2  A    between atoms: O_2  and  C_3
REMARK    3  A    between atoms: N_21  and  C_24
REMARK    4  A    between atoms: C_27  and  N_30
REMARK                            x       y       z     vdW  Elec       q    Type
REMARK                         _______ _______ _______ _____ _____    ______ ____
ROOT
ATOM      1  C   UNL     1      -1.659   5.769  -2.898  0.00  0.00    +0.120 A 
ATOM      2  C   UNL     1      -1.366   5.718  -4.253  0.00  0.00    +0.047 A 
ATOM      3  C   UNL     1      -0.592   4.695  -4.758  0.00  0.00    +0.027 A 
ATOM      4  C   UNL     1      -0.099   3.704  -3.913  0.00  0.00    +0.036 A 
ATOM      5  C   UNL     1      -0.397   3.764  -2.556  0.00  0.00    -0.024 A 
ATOM      6  C   UNL     1      -1.170   4.785  -2.050  0.00  0.00    +0.050 A 
ATOM      7  C   UNL     1       0.273   2.572  -1.933  0.00  0.00    +0.053 C 
ATOM      8  C   UNL     1      -0.742   1.657  -1.238  0.00  0.00    +0.089 C 
ATOM      9  C   UNL     1       0.007   1.113   0.008  0.00  0.00    +0.074 C 
ATOM     10  C   UNL     1       1.405   1.757  -0.048  0.00  0.00    -0.054 C 
ATOM     11  C   UNL     1       0.616   3.976   0.005  0.00  0.00    -0.076 C 
ATOM     12  C   UNL     1       1.273   3.746   1.381  0.00  0.00    -0.020 C 
ATOM     13  C   UNL     1       1.775   2.289   1.349  0.00  0.00    -0.016 C 
ATOM     14  C   UNL     1      -0.762   1.689   1.176  0.00  0.00    +0.228 C 
ATOM     15  O   UNL     1      -0.499   1.509   2.345  0.00  0.00    -0.275 OA
ATOM     16  N   UNL     1      -1.788   2.428   0.694  0.00  0.00    -0.210 N 
ATOM     17  C   UNL     1      -1.862   2.478  -0.641  0.00  0.00    +0.229 C 
ATOM     18  O   UNL     1      -2.698   3.088  -1.273  0.00  0.00    -0.275 OA
ATOM     19  C   UNL     1       0.956   1.867  -3.074  0.00  0.00    +0.212 C 
ATOM     20  O   UNL     1       1.614   0.851  -3.007  0.00  0.00    -0.277 OA
ATOM     21  N   UNL     1       0.693   2.583  -4.184  0.00  0.00    -0.286 N 
ATOM     22  H   UNL     1       1.016   2.349  -5.068  0.00  0.00    +0.155 HD
ATOM     23  N   UNL     1       1.205   2.934  -0.862  0.00  0.00    +0.395 N 
ATOM     24  H   UNL     1       2.094   3.262  -1.258  0.00  0.00    -0.079 HD
ENDROOT
BRANCH  16  25
ATOM     25  C   UNL     1      -2.694   3.095   1.530  0.00  0.00    +0.044 A 
ATOM     26  C   UNL     1      -3.582   2.369   2.313  0.00  0.00    +0.026 A 
ATOM     27  C   UNL     1      -4.470   3.029   3.140  0.00  0.00    +0.034 A 
ATOM     28  C   UNL     1      -4.482   4.411   3.181  0.00  0.00    +0.126 A 
ATOM     29  C   UNL     1      -3.604   5.136   2.397  0.00  0.00    +0.034 A 
ATOM     30  C   UNL     1      -2.709   4.482   1.573  0.00  0.00    +0.026 A 
BRANCH  28  31
ATOM     31  N   UNL     1      -5.439   5.115   4.064  0.00  0.00    +0.056 N 
ATOM     32  O   UNL     1      -5.452   6.332   4.100  0.00  0.00    -0.126 OA
ATOM     33  O   UNL     1      -6.213   4.477   4.754  0.00  0.00    -0.126 OA
ENDBRANCH  28  31
ENDBRANCH  16  25
BRANCH   1  35
ATOM     34  C   UNL     1      -2.892   7.756  -3.335  0.00  0.00    +0.277 C 
ATOM     35  O   UNL     1      -2.424   6.779  -2.403  0.00  0.00    -0.495 OA
ENDBRANCH   1  35
TORSDOF 3
