REMARK  Name = ZINC34788858
REMARK  5 active torsions:
REMARK  status: ('A' for Active; 'I' for Inactive)
REMARK    1  A    between atoms: C_3  and  C_8
REMARK    2  A    between atoms: N_17  and  C_18
REMARK    3  A    between atoms: C_18  and  C_19
REMARK    4  A    between atoms: N_29  and  C_30
REMARK    5  A    between atoms: C_33  and  N_36
REMARK                            x       y       z     vdW  Elec       q    Type
REMARK                         _______ _______ _______ _____ _____    ______ ____
ROOT
ATOM      1  C   UNL     1       5.199   0.065  -3.099  0.00  0.00    +0.230 C 
ATOM      2  O   UNL     1       6.331   0.030  -2.663  0.00  0.00    -0.274 OA
ATOM      3  N   UNL     1       4.972  -0.177  -4.405  0.00  0.00    -0.297 N 
ATOM      4  C   UNL     1       3.607  -0.132  -4.948  0.00  0.00    +0.127 C 
ATOM      5  C   UNL     1       3.579   0.857  -6.120  0.00  0.00    +0.128 C 
ATOM      6  N   UNL     1       4.691   0.542  -7.027  0.00  0.00    -0.282 N 
ATOM      7  C   UNL     1       6.056   0.497  -6.484  0.00  0.00    +0.128 C 
ATOM      8  C   UNL     1       6.086  -0.486  -5.313  0.00  0.00    +0.127 C 
ATOM      9  C   UNL     1       4.464   0.299  -8.333  0.00  0.00    +0.307 C 
ATOM     10  O   UNL     1       3.324   0.242  -8.751  0.00  0.00    -0.252 OA
ATOM     11  N   UNL     1       5.501   0.120  -9.175  0.00  0.00    -0.269 N 
ATOM     12  H   UNL     1       6.404   0.063  -8.827  0.00  0.00    +0.156 HD
ENDROOT
BRANCH  11  13
ATOM     13  C   UNL     1       5.274   0.015 -10.552  0.00  0.00    +0.035 A 
ATOM     14  C   UNL     1       4.244   0.734 -11.144  0.00  0.00    +0.025 A 
ATOM     15  C   UNL     1       4.022   0.629 -12.503  0.00  0.00    +0.034 A 
ATOM     16  C   UNL     1       4.825  -0.192 -13.274  0.00  0.00    +0.126 A 
ATOM     17  C   UNL     1       5.851  -0.910 -12.688  0.00  0.00    +0.034 A 
ATOM     18  C   UNL     1       6.081  -0.804 -11.330  0.00  0.00    +0.025 A 
BRANCH  16  19
ATOM     19  N   UNL     1       4.585  -0.302 -14.731  0.00  0.00    +0.056 N 
ATOM     20  O   UNL     1       3.688   0.325 -15.245  0.00  0.00    -0.126 OA
ATOM     21  O   UNL     1       5.285  -1.019 -15.406  0.00  0.00    -0.126 OA
ENDBRANCH  16  19
ENDBRANCH  11  13
BRANCH   1  22
ATOM     22  C   UNL     1       4.048   0.381  -2.179  0.00  0.00    +0.181 C 
BRANCH  22  31
ATOM     23  C   UNL     1       3.451   0.679   0.148  0.00  0.00    +0.118 C 
ATOM     24  C   UNL     1       4.031   0.937   1.535  0.00  0.00    -0.016 A 
ATOM     25  C   UNL     1       3.339   0.704   2.721  0.00  0.00    +0.013 A 
ATOM     26  C   UNL     1       3.931   0.959   3.912  0.00  0.00    +0.046 A 
ATOM     27  S   UNL     1       5.537   1.557   3.404  0.00  0.00    -0.101 S 
ATOM     28  C   UNL     1       5.298   1.423   1.655  0.00  0.00    -0.004 A 
ATOM     29  C   UNL     1       6.235   1.755   0.540  0.00  0.00    +0.058 C 
ATOM     30  C   UNL     1       5.418   1.793  -0.763  0.00  0.00    +0.091 C 
ATOM     31  N   UNL     1       4.554   0.604  -0.819  0.00  0.00    -0.283 NA
BRANCH  23  34
ATOM     32  C   UNL     1       0.614  -1.810   0.250  0.00  0.00    +0.003 A 
ATOM     33  C   UNL     1       1.312  -0.617   0.248  0.00  0.00    +0.006 A 
ATOM     34  C   UNL     1       2.691  -0.622   0.150  0.00  0.00    -0.023 A 
ATOM     35  C   UNL     1       3.373  -1.821   0.055  0.00  0.00    +0.043 A 
ATOM     36  C   UNL     1       2.675  -3.016   0.057  0.00  0.00    +0.124 A 
ATOM     37  C   UNL     1       1.294  -3.010   0.155  0.00  0.00    +0.038 A 
ATOM     38  F   UNL     1       3.341  -4.188  -0.036  0.00  0.00    -0.205 F 
ENDBRANCH  23  34
ENDBRANCH  22  31
ENDBRANCH   1  22
TORSDOF 5
