REMARK  Name = ZINC17082515
REMARK  3 active torsions:
REMARK  status: ('A' for Active; 'I' for Inactive)
REMARK    1  A    between atoms: C_5  and  S_7
REMARK    2  A    between atoms: S_7  and  N_10
REMARK    3  A    between atoms: C_15  and  N_54
REMARK                            x       y       z     vdW  Elec       q    Type
REMARK                         _______ _______ _______ _____ _____    ______ ____
ROOT
ATOM      1  N   UNL     1      -0.872   3.042   1.182  0.00  0.00    -0.180 NA
ATOM      2  C   UNL     1      -0.731   1.581   1.268  0.00  0.00    +0.091 C 
ATOM      3  C   UNL     1      -0.013   1.086   0.008  0.00  0.00    -0.061 C 
ATOM      4  C   UNL     1      -0.705   3.040  -1.250  0.00  0.00    -0.061 C 
ATOM      5  C   UNL     1      -1.452   3.615  -0.042  0.00  0.00    +0.091 C 
ATOM      6  N   UNL     1      -0.753   1.564  -1.180  0.00  0.00    +0.385 N 
ATOM      7  H   UNL     1      -1.733   1.266  -1.103  0.00  0.00    -0.081 HD
ENDROOT
BRANCH   6   8
ATOM      8  C   UNL     1      -0.170   0.981  -2.406  0.00  0.00    -0.065 C 
ATOM      9  C   UNL     1       1.308   1.357  -2.530  0.00  0.00    -0.009 C 
ATOM     10  C   UNL     1       1.886   0.740  -3.805  0.00  0.00    -0.012 C 
ATOM     11  C   UNL     1       1.121   1.270  -5.020  0.00  0.00    +0.007 C 
ATOM     12  C   UNL     1      -0.357   0.894  -4.896  0.00  0.00    -0.012 C 
ATOM     13  C   UNL     1      -0.934   1.511  -3.620  0.00  0.00    -0.009 C 
ATOM     14  C   UNL     1      -0.492  -0.628  -4.833  0.00  0.00    +0.007 C 
ATOM     15  C   UNL     1       0.273  -1.158  -3.618  0.00  0.00    -0.012 C 
ATOM     16  C   UNL     1       1.751  -0.782  -3.742  0.00  0.00    +0.007 C 
ATOM     17  C   UNL     1      -0.305  -0.542  -2.343  0.00  0.00    -0.009 C 
ENDBRANCH   6   8
BRANCH   1  18
ATOM     18  S   UNL     1      -0.390   4.017   2.431  0.00  0.00    +0.063 S 
ATOM     19  O   UNL     1       0.587   3.288   3.162  0.00  0.00    -0.153 OA
ATOM     20  O   UNL     1      -0.125   5.295   1.870  0.00  0.00    -0.153 OA
BRANCH  18  25
ATOM     21  C   UNL     1      -2.821   3.862   5.645  0.00  0.00    +0.004 A 
ATOM     22  C   UNL     1      -3.964   4.494   5.282  0.00  0.00    +0.033 A 
ATOM     23  C   UNL     1      -4.076   5.031   3.985  0.00  0.00    +0.136 A 
ATOM     24  C   UNL     1      -2.928   4.889   3.055  0.00  0.00    +0.160 A 
ATOM     25  C   UNL     1      -1.776   4.215   3.502  0.00  0.00    +0.136 A 
ATOM     26  C   UNL     1      -1.739   3.724   4.765  0.00  0.00    +0.031 A 
ATOM     27  N   UNL     1      -3.362   5.479   1.968  0.00  0.00    -0.047 NA
ATOM     28  O   UNL     1      -4.487   5.894   2.163  0.00  0.00    -0.242 OA
ATOM     29  N   UNL     1      -4.955   5.683   3.264  0.00  0.00    -0.049 NA
ENDBRANCH  18  25
ENDBRANCH   1  18
TORSDOF 3
