REMARK  Name = ZINC58295135
REMARK  7 active torsions:
REMARK  status: ('A' for Active; 'I' for Inactive)
REMARK    1  A    between atoms: C_1  and  C_2
REMARK    2  A    between atoms: C_2  and  C_3
REMARK    3  A    between atoms: C_3  and  N_4
REMARK    4  A    between atoms: C_8  and  C_10
REMARK    5  A    between atoms: C_10  and  N_11
REMARK    6  A    between atoms: C_14  and  C_18
REMARK    7  A    between atoms: C_14  and  C_19
REMARK                            x       y       z     vdW  Elec       q    Type
REMARK                         _______ _______ _______ _____ _____    ______ ____
ROOT
ATOM      1  N   UNL     1       2.628  -6.610  -4.526  0.00  0.00    -0.215 N 
ATOM      2  C   UNL     1       2.013  -6.859  -5.699  0.00  0.00    +0.251 C 
ATOM      3  O   UNL     1       0.832  -6.739  -5.946  0.00  0.00    -0.272 OA
ATOM      4  C   UNL     1       3.104  -7.320  -6.644  0.00  0.00    +0.136 C 
ATOM      5  N   UNL     1       4.322  -7.272  -5.817  0.00  0.00    -0.281 N 
ATOM      6  C   UNL     1       3.944  -6.842  -4.600  0.00  0.00    +0.310 C 
ATOM      7  O   UNL     1       4.711  -6.685  -3.671  0.00  0.00    -0.252 OA
ATOM      8  C   UNL     1       2.834  -8.748  -7.123  0.00  0.00    +0.047 C 
ATOM      9  H   UNL     1       5.222  -7.503  -6.097  0.00  0.00    +0.152 HD
ENDROOT
BRANCH   4  10
ATOM     10  C   UNL     1       3.222  -6.380  -7.816  0.00  0.00    -0.009 A 
ATOM     11  C   UNL     1       4.437  -6.197  -8.450  0.00  0.00    +0.014 A 
ATOM     12  C   UNL     1       4.508  -5.344  -9.501  0.00  0.00    +0.045 A 
ATOM     13  S   UNL     1       2.824  -4.766  -9.622  0.00  0.00    -0.105 S 
ATOM     14  C   UNL     1       2.137  -5.704  -8.268  0.00  0.00    +0.051 A 
ENDBRANCH   4  10
BRANCH   1  15
ATOM     15  C   UNL     1       1.943  -6.138  -3.321  0.00  0.00    +0.214 C 
BRANCH  15  20
ATOM     16  N   UNL     1       0.738  -1.962  -1.265  0.00  0.00    -0.299 N 
ATOM     17  C   UNL     1       1.321  -2.623  -2.285  0.00  0.00    +0.306 C 
ATOM     18  O   UNL     1       1.830  -2.003  -3.198  0.00  0.00    -0.252 OA
ATOM     19  N   UNL     1       1.339  -3.970  -2.292  0.00  0.00    -0.239 N 
ATOM     20  C   UNL     1       1.922  -4.631  -3.312  0.00  0.00    +0.238 C 
ATOM     21  O   UNL     1       2.430  -4.013  -4.223  0.00  0.00    -0.274 OA
ATOM     22  H   UNL     1       0.332  -2.457  -0.536  0.00  0.00    +0.150 HD
ATOM     23  H   UNL     1       0.933  -4.465  -1.563  0.00  0.00    +0.159 HD
BRANCH  16  24
ATOM     24  C   UNL     1       0.718  -0.497  -1.257  0.00  0.00    +0.105 C 
BRANCH  24  26
ATOM     25  C   UNL     1      -0.019   1.526   0.010  0.00  0.00    +0.005 C 
ATOM     26  C   UNL     1       0.002  -0.004   0.002  0.00  0.00    +0.015 C 
ENDBRANCH  24  26
ENDBRANCH  16  24
ENDBRANCH  15  20
ENDBRANCH   1  15
TORSDOF 5
