REMARK  Name = ZINC06369036
REMARK  9 active torsions:
REMARK  status: ('A' for Active; 'I' for Inactive)
REMARK    1  A    between atoms: C_1  and  C_2
REMARK    2  A    between atoms: N_11  and  C_15
REMARK    3  A    between atoms: C_15  and  C_16
REMARK    4  A    between atoms: C_16  and  O_18
REMARK    5  A    between atoms: O_18  and  C_19
REMARK    6  A    between atoms: C_19  and  C_21
REMARK    7  A    between atoms: C_19  and  C_22
REMARK    8  A    between atoms: N_24  and  C_25
REMARK    9  A    between atoms: C_25  and  C_31
REMARK                            x       y       z     vdW  Elec       q    Type
REMARK                         _______ _______ _______ _____ _____    ______ ____
ROOT
ATOM      1  C   UNL     1      -2.299  -0.109   1.871  0.00  0.00    +0.326 C 
ATOM      2  O   UNL     1      -1.373  -0.708   2.365  0.00  0.00    -0.249 OA
ENDROOT
BRANCH   1   3
ATOM      3  C   UNL     1      -3.687  -0.694   1.920  0.00  0.00    +0.238 C 
BRANCH   3  13
ATOM      4  C   UNL     1      -1.037  -3.926   3.471  0.00  0.00    +0.010 C 
ATOM      5  C   UNL     1      -2.155  -4.936   3.201  0.00  0.00    +0.018 C 
ATOM      6  C   UNL     1      -2.210  -5.953   4.344  0.00  0.00    +0.006 C 
ATOM      7  C   UNL     1      -3.341  -6.949   4.083  0.00  0.00    +0.000 C 
ATOM      8  C   UNL     1      -4.675  -6.203   4.011  0.00  0.00    +0.003 C 
ATOM      9  C   UNL     1      -4.629  -5.187   2.867  0.00  0.00    +0.035 C 
ATOM     10  C   UNL     1      -3.489  -4.203   3.105  0.00  0.00    +0.115 C 
ATOM     11  C   UNL     1      -3.450  -3.169   2.004  0.00  0.00    +0.247 C 
ATOM     12  O   UNL     1      -3.276  -3.364   0.820  0.00  0.00    -0.273 OA
ATOM     13  N   UNL     1      -3.648  -1.983   2.615  0.00  0.00    -0.213 N 
ATOM     14  C   UNL     1      -3.812  -2.131   3.936  0.00  0.00    +0.310 C 
ATOM     15  O   UNL     1      -4.009  -1.207   4.700  0.00  0.00    -0.252 OA
ATOM     16  N   UNL     1      -3.733  -3.419   4.322  0.00  0.00    -0.285 N 
ATOM     17  H   UNL     1      -3.820  -3.761   5.226  0.00  0.00    +0.151 HD
ENDBRANCH   3  13
ENDBRANCH   1   3
BRANCH   1  18
ATOM     18  O   UNL     1      -2.091   1.077   1.277  0.00  0.00    -0.451 OA
BRANCH  18  19
ATOM     19  C   UNL     1      -0.729   1.579   1.267  0.00  0.00    +0.259 C 
ATOM     20  C   UNL     1      -0.013   1.086   0.008  0.00  0.00    +0.062 C 
BRANCH  19  21
ATOM     21  C   UNL     1      -0.749   3.086   1.275  0.00  0.00    +0.255 C 
ATOM     22  O   UNL     1      -1.805   3.679   1.197  0.00  0.00    -0.272 OA
ATOM     23  N   UNL     1       0.405   3.775   1.369  0.00  0.00    -0.294 N 
ATOM     24  H   UNL     1       1.249   3.301   1.432  0.00  0.00    +0.150 HD
BRANCH  23  25
ATOM     25  C   UNL     1       0.385   5.240   1.378  0.00  0.00    +0.121 C 
ATOM     26  C   UNL     1      -0.244   5.749   0.079  0.00  0.00    +0.041 C 
ATOM     27  C   UNL     1      -0.264   7.279   0.087  0.00  0.00    +0.003 C 
ATOM     28  C   UNL     1       1.167   7.807   0.202  0.00  0.00    +0.000 C 
ATOM     29  C   UNL     1       1.796   7.299   1.501  0.00  0.00    +0.003 C 
ATOM     30  C   UNL     1       1.816   5.769   1.492  0.00  0.00    +0.041 C 
BRANCH  25  31
ATOM     31  C   UNL     1      -0.406   5.714   2.525  0.00  0.00    +0.088 C 
ATOM     32  N   UNL     1      -1.017   6.079   3.410  0.00  0.00    -0.194 NA
ENDBRANCH  25  31
ENDBRANCH  23  25
ENDBRANCH  19  21
ENDBRANCH  18  19
ENDBRANCH   1  18
TORSDOF 7
