REMARK  Name = ZINC47096445
REMARK  10 active torsions:
REMARK  status: ('A' for Active; 'I' for Inactive)
REMARK    1  A    between atoms: C_1  and  C_2
REMARK    2  A    between atoms: C_4  and  C_29
REMARK    3  A    between atoms: N_5  and  C_7
REMARK    4  A    between atoms: C_7  and  C_8
REMARK    5  A    between atoms: C_8  and  C_10
REMARK    6  A    between atoms: C_8  and  C_11
REMARK    7  A    between atoms: C_11  and  N_12
REMARK    8  A    between atoms: N_15  and  N_16
REMARK    9  A    between atoms: C_17  and  C_19
REMARK   10  A    between atoms: C_20  and  C_28
REMARK                            x       y       z     vdW  Elec       q    Type
REMARK                         _______ _______ _______ _____ _____    ______ ____
ROOT
ATOM      1  N   UNL     1       2.915  -5.434   2.748  0.00  0.00    -0.298 N 
ATOM      2  C   UNL     1       3.181  -6.571   3.422  0.00  0.00    +0.316 C 
ATOM      3  O   UNL     1       2.271  -7.232   3.882  0.00  0.00    -0.251 OA
ATOM      4  N   UNL     1       4.457  -6.974   3.585  0.00  0.00    -0.218 N 
ATOM      5  H   UNL     1       3.641  -4.907   2.381  0.00  0.00    +0.150 HD
ATOM      6  H   UNL     1       4.648  -7.792   4.069  0.00  0.00    +0.174 HD
ENDROOT
BRANCH   4   7
ATOM      7  N   UNL     1       5.506  -6.212   3.054  0.00  0.00    -0.227 N 
ATOM      8  C   UNL     1       6.781  -6.615   3.217  0.00  0.00    +0.296 C 
ATOM      9  O   UNL     1       7.022  -7.641   3.825  0.00  0.00    -0.265 OA
ATOM     10  H   UNL     1       5.314  -5.394   2.569  0.00  0.00    +0.173 HD
BRANCH   8  11
ATOM     11  C   UNL     1       7.882  -5.816   2.660  0.00  0.00    +0.195 A 
ATOM     12  C   UNL     1       9.200  -6.127   2.757  0.00  0.00    +0.008 A 
ATOM     13  C   UNL     1       9.920  -5.059   2.064  0.00  0.00    +0.024 A 
ATOM     14  C   UNL     1      11.269  -4.796   1.815  0.00  0.00    +0.012 A 
ATOM     15  C   UNL     1      11.624  -3.677   1.117  0.00  0.00    +0.001 A 
ATOM     16  C   UNL     1      10.652  -2.800   0.654  0.00  0.00    +0.004 A 
ATOM     17  C   UNL     1       9.316  -3.040   0.890  0.00  0.00    +0.047 A 
ATOM     18  C   UNL     1       8.931  -4.173   1.598  0.00  0.00    +0.136 A 
ATOM     19  O   UNL     1       7.734  -4.666   1.970  0.00  0.00    -0.450 OA
ATOM     20  C   UNL     1       9.800  -7.328   3.441  0.00  0.00    +0.048 C 
ENDBRANCH   8  11
ENDBRANCH   4   7
BRANCH   1  21
ATOM     21  C   UNL     1       1.528  -4.995   2.571  0.00  0.00    +0.110 C 
BRANCH  21  22
ATOM     22  C   UNL     1       1.504  -3.688   1.777  0.00  0.00    +0.024 C 
ATOM     23  C   UNL     1       2.177  -2.583   2.595  0.00  0.00    +0.011 C 
BRANCH  22  24
ATOM     24  C   UNL     1       0.055  -3.295   1.485  0.00  0.00    +0.148 C 
BRANCH  24  29
ATOM     25  C   UNL     1      -0.018   1.503   0.010  0.00  0.00    +0.067 C 
ATOM     26  C   UNL     1       0.002  -0.004   0.002  0.00  0.00    +0.060 A 
ATOM     27  C   UNL     1       0.008  -0.818  -1.135  0.00  0.00    +0.047 A 
ATOM     28  C   UNL     1       0.028  -2.107  -0.725  0.00  0.00    +0.036 A 
ATOM     29  N   UNL     1       0.034  -2.109   0.625  0.00  0.00    -0.268 N 
ATOM     30  N   UNL     1       0.023  -0.777   1.058  0.00  0.00    -0.176 NA
ATOM     31  C   UNL     1       0.040  -3.323  -1.615  0.00  0.00    +0.065 C 
ENDBRANCH  24  29
ENDBRANCH  22  24
ENDBRANCH  21  22
ENDBRANCH   1  21
TORSDOF 6
