REMARK  Name = ZINC01697908
REMARK  3 active torsions:
REMARK  status: ('A' for Active; 'I' for Inactive)
REMARK    1  A    between atoms: C_4  and  C_7
REMARK    2  A    between atoms: N_9  and  N_10
REMARK    3  A    between atoms: C_11  and  C_12
REMARK                            x       y       z     vdW  Elec       q    Type
REMARK                         _______ _______ _______ _____ _____    ______ ____
ROOT
ATOM      1  N   UNL     1      -2.394   1.152   0.020  0.00  0.00    -0.186 NA
ATOM      2  C   UNL     1      -3.530   1.788   0.029  0.00  0.00    +0.156 C 
ENDROOT
BRANCH   2   3
ATOM      3  C   UNL     1      -4.789   1.038   0.030  0.00  0.00    +0.068 A 
ATOM      4  C   UNL     1      -5.998   1.703   0.045  0.00  0.00    +0.097 A 
ATOM      5  C   UNL     1      -7.189   0.949   0.042  0.00  0.00    +0.255 A 
ATOM      6  O   UNL     1      -8.270   1.510   0.050  0.00  0.00    -0.268 OA
ATOM      7  N   UNL     1      -7.124  -0.397   0.034  0.00  0.00    -0.275 N 
ATOM      8  H   UNL     1      -7.969  -0.932   0.036  0.00  0.00    +0.173 HD
ATOM      9  C   UNL     1      -5.938  -1.030   0.025  0.00  0.00    +0.327 A 
ATOM     10  O   UNL     1      -5.910  -2.245   0.017  0.00  0.00    -0.247 OA
ATOM     11  N   UNL     1      -4.780  -0.343   0.023  0.00  0.00    -0.306 N 
ATOM     12  H   UNL     1      -3.910  -0.835   0.016  0.00  0.00    +0.170 HD
ENDBRANCH   2   3
BRANCH   1  15
ATOM     13  C   UNL     1      -0.014   1.211   0.009  0.00  0.00    +0.263 C 
ATOM     14  O   UNL     1       0.002  -0.004   0.002  0.00  0.00    -0.268 OA
ATOM     15  N   UNL     1      -1.191   1.869   0.018  0.00  0.00    -0.203 N 
ATOM     16  H   UNL     1      -1.204   2.839   0.023  0.00  0.00    +0.178 HD
BRANCH  13  20
ATOM     17  C   UNL     1       3.634   3.385  -0.014  0.00  0.00    +0.000 A 
ATOM     18  C   UNL     1       3.657   2.001  -0.022  0.00  0.00    +0.001 A 
ATOM     19  C   UNL     1       2.475   1.289  -0.015  0.00  0.00    +0.013 A 
ATOM     20  C   UNL     1       1.255   1.968   0.001  0.00  0.00    +0.038 A 
ATOM     21  C   UNL     1       1.240   3.364   0.003  0.00  0.00    +0.013 A 
ATOM     22  C   UNL     1       2.429   4.063   0.001  0.00  0.00    +0.001 A 
ENDBRANCH  13  20
ENDBRANCH   1  15
TORSDOF 3
