REMARK  Name = ZINC39919208
REMARK  4 active torsions:
REMARK  status: ('A' for Active; 'I' for Inactive)
REMARK    1  A    between atoms: N_7  and  C_11
REMARK    2  A    between atoms: C_11  and  C_12
REMARK    3  A    between atoms: N_14  and  C_15
REMARK    4  A    between atoms: C_17  and  N_22
REMARK                            x       y       z     vdW  Elec       q    Type
REMARK                         _______ _______ _______ _____ _____    ______ ____
ROOT
ATOM      1  C   UNL     1       0.299  -3.544  -1.440  0.00  0.00    +0.237 C 
ATOM      2  O   UNL     1       0.787  -2.928  -2.364  0.00  0.00    -0.274 OA
ATOM      3  N   UNL     1      -0.549  -4.563  -1.683  0.00  0.00    -0.283 N 
ATOM      4  H   UNL     1      -0.889  -5.097  -0.948  0.00  0.00    +0.155 HD
ENDROOT
BRANCH   3   5
ATOM      5  C   UNL     1      -0.941  -4.850  -2.995  0.00  0.00    +0.050 A 
ATOM      6  C   UNL     1      -0.046  -4.674  -4.043  0.00  0.00    +0.057 A 
ATOM      7  C   UNL     1      -0.436  -4.958  -5.337  0.00  0.00    +0.128 A 
ATOM      8  C   UNL     1      -1.716  -5.417  -5.591  0.00  0.00    +0.034 A 
ATOM      9  C   UNL     1      -2.610  -5.593  -4.551  0.00  0.00    +0.019 A 
ATOM     10  C   UNL     1      -2.224  -5.316  -3.253  0.00  0.00    +0.039 A 
ATOM     11 BR   UNL     1      -3.445  -5.565  -1.830  0.00  0.00    -0.048 Br
BRANCH   7  12
ATOM     12  N   UNL     1       0.517  -4.771  -6.454  0.00  0.00    +0.056 N 
ATOM     13  O   UNL     1       1.636  -4.370  -6.233  0.00  0.00    -0.126 OA
ATOM     14  O   UNL     1       0.177  -5.020  -7.587  0.00  0.00    -0.126 OA
ENDBRANCH   7  12
ENDBRANCH   3   5
BRANCH   1  15
ATOM     15  C   UNL     1       0.642  -3.171  -0.021  0.00  0.00    +0.224 C 
BRANCH  15  22
ATOM     16  C   UNL     1       0.012   1.368   0.031  0.00  0.00    +0.002 A 
ATOM     17  C   UNL     1       1.201   2.077   0.020  0.00  0.00    +0.004 A 
ATOM     18  C   UNL     1       2.410   1.409  -0.005  0.00  0.00    +0.048 A 
ATOM     19  C   UNL     1       2.434   0.023  -0.019  0.00  0.00    +0.157 A 
ATOM     20  C   UNL     1       1.236  -0.690  -0.007  0.00  0.00    +0.091 A 
ATOM     21  C   UNL     1       0.026  -0.013   0.018  0.00  0.00    +0.030 A 
ATOM     22  N   UNL     1       1.576  -2.042  -0.025  0.00  0.00    -0.265 N 
ATOM     23  C   UNL     1       2.921  -2.121  -0.046  0.00  0.00    +0.422 A 
ATOM     24  O   UNL     1       3.564  -3.153  -0.066  0.00  0.00    -0.223 OA
ATOM     25  O   UNL     1       3.442  -0.883  -0.043  0.00  0.00    -0.407 OA
ENDBRANCH  15  22
ENDBRANCH   1  15
TORSDOF 4
