REMARK  Name = ZINC65029905
REMARK  8 active torsions:
REMARK  status: ('A' for Active; 'I' for Inactive)
REMARK    1  A    between atoms: C_1  and  N_2
REMARK    2  A    between atoms: N_2  and  C_3
REMARK    3  A    between atoms: N_2  and  S_4
REMARK    4  A    between atoms: S_4  and  C_7
REMARK    5  A    between atoms: N_15  and  C_16
REMARK    6  A    between atoms: C_16  and  C_17
REMARK    7  A    between atoms: C_17  and  N_18
REMARK    8  A    between atoms: N_21  and  C_22
REMARK                            x       y       z     vdW  Elec       q    Type
REMARK                         _______ _______ _______ _____ _____    ______ ____
ROOT
ATOM      1  C   UNL     1       1.701  -1.112  -1.900  0.00  0.00    +0.108 A 
ATOM      2  C   UNL     1       2.332  -0.150  -2.679  0.00  0.00    +0.031 A 
ATOM      3  C   UNL     1       3.638  -0.306  -3.052  0.00  0.00    +0.031 A 
ATOM      4  C   UNL     1       4.342  -1.435  -2.650  0.00  0.00    +0.089 A 
ATOM      5  C   UNL     1       3.709  -2.412  -1.861  0.00  0.00    +0.115 A 
ATOM      6  C   UNL     1       2.372  -2.226  -1.488  0.00  0.00    +0.060 A 
ATOM      7  N   UNL     1       4.608  -3.386  -1.617  0.00  0.00    -0.129 NA
ATOM      8  N   UNL     1       5.732  -3.107  -2.177  0.00  0.00    -0.065 NA
ATOM      9  N   UNL     1       5.628  -1.880  -2.849  0.00  0.00    -0.242 N 
ENDROOT
BRANCH   1  10
ATOM     10  S   UNL     1       0.017  -0.887  -1.433  0.00  0.00    +0.060 S 
ATOM     11  O   UNL     1      -0.505  -2.180  -1.160  0.00  0.00    -0.153 OA
ATOM     12  O   UNL     1      -0.560  -0.021  -2.401  0.00  0.00    -0.153 OA
BRANCH  10  14
ATOM     13  C   UNL     1      -0.017   1.403   0.006  0.00  0.00    +0.131 C 
ATOM     14  N   UNL     1       0.013  -0.061   0.003  0.00  0.00    -0.183 NA
ATOM     15  C   UNL     1       0.039  -0.796   1.270  0.00  0.00    +0.131 C 
ENDBRANCH  10  14
ENDBRANCH   1  10
BRANCH   9  16
ATOM     16  C   UNL     1       6.680  -1.206  -3.613  0.00  0.00    +0.164 C 
BRANCH  16  17
ATOM     17  C   UNL     1       7.471  -0.281  -2.685  0.00  0.00    +0.129 C 
BRANCH  17  18
ATOM     18  N   UNL     1       8.524   0.393  -3.449  0.00  0.00    -0.297 N 
ATOM     19  C   UNL     1       9.351   1.262  -2.834  0.00  0.00    +0.304 C 
ATOM     20  O   UNL     1       9.223   1.486  -1.646  0.00  0.00    -0.253 OA
ATOM     21  N   UNL     1      10.319   1.882  -3.537  0.00  0.00    -0.268 N 
ATOM     22  H   UNL     1       8.625   0.214  -4.397  0.00  0.00    +0.150 HD
ATOM     23  H   UNL     1      10.463   1.655  -4.469  0.00  0.00    +0.156 HD
BRANCH  21  24
ATOM     24  C   UNL     1      11.118   2.853  -2.922  0.00  0.00    +0.049 A 
ATOM     25  C   UNL     1      11.466   2.723  -1.584  0.00  0.00    +0.024 A 
ATOM     26  C   UNL     1      12.254   3.683  -0.980  0.00  0.00    +0.002 A 
ATOM     27  C   UNL     1      12.697   4.773  -1.706  0.00  0.00    +0.001 A 
ATOM     28  C   UNL     1      12.352   4.907  -3.038  0.00  0.00    +0.017 A 
ATOM     29  C   UNL     1      11.568   3.947  -3.650  0.00  0.00    +0.039 A 
ATOM     30 BR   UNL     1      11.103   4.127  -5.474  0.00  0.00    -0.048 Br
ENDBRANCH  21  24
ENDBRANCH  17  18
ENDBRANCH  16  17
ENDBRANCH   9  16
TORSDOF 6
