REMARK  Name = ZINC39733467
REMARK  11 active torsions:
REMARK  status: ('A' for Active; 'I' for Inactive)
REMARK    1  A    between atoms: C_1  and  C_2
REMARK    2  A    between atoms: C_8  and  C_10
REMARK    3  A    between atoms: C_10  and  N_11
REMARK    4  A    between atoms: C_12  and  C_14
REMARK    5  A    between atoms: C_14  and  C_16
REMARK    6  A    between atoms: C_14  and  N_20
REMARK    7  A    between atoms: C_16  and  C_17
REMARK    8  A    between atoms: C_17  and  S_18
REMARK    9  A    between atoms: S_18  and  C_19
REMARK   10  A    between atoms: N_20  and  S_21
REMARK   11  A    between atoms: S_21  and  C_24
REMARK                            x       y       z     vdW  Elec       q    Type
REMARK                         _______ _______ _______ _____ _____    ______ ____
ROOT
ATOM      1  C   UNL     1      -2.336  -1.844   5.318  0.00  0.00    +0.163 C 
ENDROOT
BRANCH   1   3
ATOM      2  N   UNL     1      -1.319  -1.254   3.142  0.00  0.00    -0.313 N 
ATOM      3  C   UNL     1      -2.417  -1.279   3.924  0.00  0.00    +0.232 C 
ATOM      4  O   UNL     1      -3.470  -0.848   3.504  0.00  0.00    -0.274 OA
ATOM      5  H   UNL     1      -0.477  -1.599   3.477  0.00  0.00    +0.149 HD
BRANCH   2   6
ATOM      6  C   UNL     1      -1.398  -0.705   1.786  0.00  0.00    +0.121 C 
BRANCH   6  14
ATOM      7  C   UNL     1      -0.089   1.385  -0.275  0.00  0.00    +0.040 C 
ATOM      8  C   UNL     1      -0.087  -0.121  -0.218  0.00  0.00    -0.058 C 
ATOM      9  C   UNL     1      -0.136  -0.803  -1.351  0.00  0.00    +0.022 C 
ATOM     10  C   UNL     1      -0.125  -2.280  -1.317  0.00  0.00    +0.026 C 
ATOM     11  N   UNL     1       0.289  -2.921  -0.143  0.00  0.00    -0.285 N 
ATOM     12  C   UNL     1       0.364  -2.236   1.008  0.00  0.00    +0.226 C 
ATOM     13  O   UNL     1       0.767  -2.807   2.000  0.00  0.00    -0.275 OA
ATOM     14  C   UNL     1      -0.024  -0.795   1.119  0.00  0.00    +0.118 C 
ATOM     15  C   UNL     1      -0.504  -2.988  -2.384  0.00  0.00    +0.033 C 
ATOM     16  H   UNL     1       0.523  -3.862  -0.163  0.00  0.00    +0.155 HD
ENDBRANCH   6  14
ENDBRANCH   2   6
ENDBRANCH   1   3
BRANCH   1  17
ATOM     17  N   UNL     1      -3.652  -1.758   5.957  0.00  0.00    -0.178 NA
ATOM     18  H   UNL     1      -4.312  -2.452   5.803  0.00  0.00    +0.149 HD
BRANCH  17  19
ATOM     19  S   UNL     1      -4.012  -0.476   6.941  0.00  0.00    +0.062 S 
ATOM     20  O   UNL     1      -3.647   0.698   6.229  0.00  0.00    -0.153 OA
ATOM     21  O   UNL     1      -5.330  -0.694   7.426  0.00  0.00    -0.153 OA
BRANCH  19  22
ATOM     22  C   UNL     1      -2.940  -0.573   8.336  0.00  0.00    +0.140 A 
ATOM     23  C   UNL     1      -1.988   0.407   8.546  0.00  0.00    +0.031 A 
ATOM     24  C   UNL     1      -1.147   0.332   9.640  0.00  0.00    +0.002 A 
ATOM     25  C   UNL     1      -1.256  -0.724  10.526  0.00  0.00    +0.003 A 
ATOM     26  C   UNL     1      -2.207  -1.705  10.319  0.00  0.00    +0.040 A 
ATOM     27  C   UNL     1      -3.054  -1.627   9.226  0.00  0.00    +0.150 A 
ATOM     28  F   UNL     1      -3.988  -2.583   9.025  0.00  0.00    -0.203 F 
ENDBRANCH  19  22
ENDBRANCH  17  19
ENDBRANCH   1  17
BRANCH   1  29
ATOM     29  C   UNL     1      -1.897  -3.308   5.251  0.00  0.00    +0.040 C 
BRANCH  29  30
ATOM     30  C   UNL     1      -1.717  -3.852   6.670  0.00  0.00    +0.071 C 
BRANCH  30  31
ATOM     31  S   UNL     1      -1.051  -5.538   6.591  0.00  0.00    -0.164 S 
ATOM     32  C   UNL     1      -0.899  -6.032   8.330  0.00  0.00    +0.084 C 
ENDBRANCH  30  31
ENDBRANCH  29  30
ENDBRANCH   1  29
TORSDOF 9
