REMARK  Name = ZINC39313197
REMARK  10 active torsions:
REMARK  status: ('A' for Active; 'I' for Inactive)
REMARK    1  A    between atoms: C_1  and  C_2
REMARK    2  A    between atoms: C_2  and  O_3
REMARK    3  A    between atoms: O_3  and  C_4
REMARK    4  A    between atoms: C_4  and  C_6
REMARK    5  A    between atoms: C_8  and  C_26
REMARK    6  A    between atoms: C_10  and  C_12
REMARK    7  A    between atoms: N_14  and  N_15
REMARK    8  A    between atoms: C_16  and  C_17
REMARK    9  A    between atoms: N_28  and  C_29
REMARK   10  A    between atoms: C_33  and  C_35
REMARK                            x       y       z     vdW  Elec       q    Type
REMARK                         _______ _______ _______ _____ _____    ______ ____
ROOT
ATOM      1  C   UNL     1       1.446  -2.483  -3.017  0.00  0.00    +0.123 C 
ATOM      2  C   UNL     1       1.737  -3.954  -2.713  0.00  0.00    +0.102 C 
ATOM      3  C   UNL     1       2.772  -2.881  -2.365  0.00  0.00    +0.104 C 
ENDROOT
BRANCH   3   4
ATOM      4  C   UNL     1       2.961  -2.543  -0.909  0.00  0.00    +0.237 C 
ATOM      5  O   UNL     1       2.314  -1.651  -0.405  0.00  0.00    -0.274 OA
ATOM      6  N   UNL     1       3.850  -3.233  -0.167  0.00  0.00    -0.207 N 
ATOM      7  H   UNL     1       4.368  -3.947  -0.570  0.00  0.00    +0.177 HD
BRANCH   6   8
ATOM      8  N   UNL     1       4.026  -2.918   1.187  0.00  0.00    -0.188 NA
ATOM      9  C   UNL     1       4.954  -3.524   1.884  0.00  0.00    +0.136 C 
BRANCH   9  10
ATOM     10  C   UNL     1       5.649  -4.610   1.333  0.00  0.00    +0.000 C 
ATOM     11  C   UNL     1       6.574  -5.430   1.974  0.00  0.00    +0.004 A 
ATOM     12  C   UNL     1       7.085  -5.446   3.291  0.00  0.00    +0.010 A 
ATOM     13  C   UNL     1       8.000  -6.383   3.647  0.00  0.00    +0.001 A 
ATOM     14  C   UNL     1       8.456  -7.343   2.739  0.00  0.00    +0.002 A 
ATOM     15  C   UNL     1       8.010  -7.389   1.461  0.00  0.00    +0.026 A 
ATOM     16  C   UNL     1       7.051  -6.441   1.014  0.00  0.00    +0.043 A 
ATOM     17  N   UNL     1       6.471  -6.274  -0.156  0.00  0.00    -0.380 N 
ATOM     18  C   UNL     1       5.546  -5.139  -0.080  0.00  0.00    +0.150 C 
ATOM     19  H   UNL     1       6.627  -6.820  -0.943  0.00  0.00    +0.160 HD
ENDBRANCH   9  10
ENDBRANCH   6   8
ENDBRANCH   3   4
BRANCH   2  20
ATOM     20  C   UNL     1       0.985  -4.592  -1.574  0.00  0.00    +0.222 C 
ATOM     21  O   UNL     1       1.332  -4.390  -0.430  0.00  0.00    -0.275 OA
ATOM     22  N   UNL     1      -0.074  -5.387  -1.827  0.00  0.00    -0.285 N 
ATOM     23  H   UNL     1      -0.313  -5.600  -2.743  0.00  0.00    +0.155 HD
BRANCH  22  24
ATOM     24  C   UNL     1      -0.828  -5.906  -0.768  0.00  0.00    +0.034 A 
ATOM     25  C   UNL     1      -2.204  -6.039  -0.895  0.00  0.00    +0.023 A 
ATOM     26  C   UNL     1      -2.946  -6.551   0.152  0.00  0.00    +0.002 A 
ATOM     27  C   UNL     1      -2.319  -6.931   1.325  0.00  0.00    +0.012 A 
ATOM     28  C   UNL     1      -0.949  -6.799   1.454  0.00  0.00    +0.057 A 
ATOM     29  C   UNL     1      -0.201  -6.293   0.408  0.00  0.00    +0.035 A 
BRANCH  28  30
ATOM     30  C   UNL     1      -0.270  -7.213   2.734  0.00  0.00    +0.417 C 
ATOM     31  F   UNL     1      -1.226  -7.696   3.634  0.00  0.00    -0.166 F 
ATOM     32  F   UNL     1       0.664  -8.219   2.462  0.00  0.00    -0.166 F 
ATOM     33  F   UNL     1       0.383  -6.110   3.294  0.00  0.00    -0.166 F 
ENDBRANCH  28  30
ENDBRANCH  22  24
ENDBRANCH   2  20
BRANCH   1  34
ATOM     34  C   UNL     1       0.429  -1.783  -2.153  0.00  0.00    +0.312 C 
ATOM     35  O   UNL     1      -0.123  -2.383  -1.262  0.00  0.00    -0.250 OA
BRANCH  34  36
ATOM     36  O   UNL     1       0.137  -0.491  -2.374  0.00  0.00    -0.465 OA
BRANCH  36  38
ATOM     37  C   UNL     1      -1.036   1.572  -1.918  0.00  0.00    +0.048 C 
ATOM     38  C   UNL     1      -0.836   0.109  -1.517  0.00  0.00    +0.229 C 
ENDBRANCH  36  38
ENDBRANCH  34  36
ENDBRANCH   1  34
TORSDOF 9
