REMARK  Name = ZINC11787541
REMARK  11 active torsions:
REMARK  status: ('A' for Active; 'I' for Inactive)
REMARK    1  A    between atoms: C_1  and  C_2
REMARK    2  A    between atoms: C_2  and  N_73
REMARK    3  A    between atoms: C_6  and  C_9
REMARK    4  A    between atoms: C_15  and  C_33
REMARK    5  A    between atoms: C_16  and  O_23
REMARK    6  A    between atoms: O_23  and  C_24
REMARK    7  A    between atoms: C_24  and  C_25
REMARK    8  A    between atoms: C_25  and  C_26
REMARK    9  A    between atoms: C_26  and  C_27
REMARK   10  A    between atoms: C_33  and  O_35
REMARK   11  A    between atoms: O_35  and  C_36
REMARK                            x       y       z     vdW  Elec       q    Type
REMARK                         _______ _______ _______ _____ _____    ______ ____
ROOT
ATOM      1  C   UNL     1      -0.523   2.634   0.587  0.00  0.00    +0.217 C 
ATOM      2  O   UNL     1      -1.645   2.204   0.420  0.00  0.00    -0.275 OA
ATOM      3  N   UNL     1       0.524   1.787   0.623  0.00  0.00    -0.299 N 
ATOM      4  C   UNL     1       1.909   2.286   0.696  0.00  0.00    +0.114 C 
ATOM      5  C   UNL     1       2.666   1.724  -0.504  0.00  0.00    +0.073 C 
ATOM      6  C   UNL     1       3.207   0.339  -0.246  0.00  0.00    +0.041 A 
ATOM      7  C   UNL     1       4.372   0.018  -0.938  0.00  0.00    +0.120 A 
ATOM      8  C   UNL     1       4.943  -1.323  -0.820  0.00  0.00    +0.141 A 
ATOM      9  C   UNL     1       4.282  -2.234  -0.021  0.00  0.00    +0.116 A 
ATOM     10  C   UNL     1       3.127  -1.828   0.647  0.00  0.00    +0.255 A 
ATOM     11  O   UNL     1       2.534  -2.639   1.339  0.00  0.00    -0.268 OA
ATOM     12  N   UNL     1       2.638  -0.567   0.556  0.00  0.00    -0.310 N 
ATOM     13  C   UNL     1       1.473  -0.280   1.393  0.00  0.00    +0.144 C 
ATOM     14  C   UNL     1       0.330   0.335   0.586  0.00  0.00    +0.129 C 
ENDROOT
BRANCH   1  18
ATOM     15  C   UNL     1      -0.880   6.830  -0.073  0.00  0.00    -0.079 C 
ATOM     16  C   UNL     1       0.481   6.200  -0.375  0.00  0.00    -0.018 C 
ATOM     17  C   UNL     1       0.314   4.686  -0.529  0.00  0.00    +0.009 C 
ATOM     18  C   UNL     1      -0.301   4.115   0.752  0.00  0.00    +0.059 C 
ATOM     19  C   UNL     1      -1.640   4.806   1.021  0.00  0.00    -0.066 C 
ATOM     20  N   UNL     1      -1.407   6.257   1.183  0.00  0.00    +0.380 N 
ATOM     21  H   UNL     1      -0.718   6.402   1.930  0.00  0.00    -0.082 HD
BRANCH  20  23
ATOM     22  C   UNL     1      -2.357   8.380   1.940  0.00  0.00    -0.017 C 
ATOM     23  C   UNL     1      -2.668   6.931   1.556  0.00  0.00    -0.082 C 
ENDBRANCH  20  23
ENDBRANCH   1  18
BRANCH   7  24
ATOM     24  C   UNL     1       5.026   1.025  -1.788  0.00  0.00    +0.344 C 
ATOM     25  O   UNL     1       6.004   1.622  -1.380  0.00  0.00    -0.245 OA
BRANCH  24  26
ATOM     26  O   UNL     1       4.542   1.287  -3.018  0.00  0.00    -0.464 OA
ATOM     27  C   UNL     1       5.238   2.292  -3.801  0.00  0.00    +0.280 C 
ENDBRANCH  24  26
ENDBRANCH   7  24
BRANCH   8  28
ATOM     28  O   UNL     1       6.081  -1.658  -1.471  0.00  0.00    -0.491 OA
BRANCH  28  29
ATOM     29  C   UNL     1       6.561  -2.993  -1.292  0.00  0.00    +0.229 C 
BRANCH  29  30
ATOM     30  C   UNL     1       7.847  -3.184  -2.099  0.00  0.00    +0.046 C 
BRANCH  30  31
ATOM     31  C   UNL     1       8.361  -4.612  -1.908  0.00  0.00    +0.038 C 
BRANCH  31  32
ATOM     32  C   UNL     1       9.627  -4.801  -2.703  0.00  0.00    -0.047 A 
ATOM     33  C   UNL     1       9.563  -5.251  -4.008  0.00  0.00    +0.003 A 
ATOM     34  C   UNL     1      10.725  -5.420  -4.739  0.00  0.00    +0.000 A 
ATOM     35  C   UNL     1      11.951  -5.148  -4.160  0.00  0.00    +0.000 A 
ATOM     36  C   UNL     1      12.015  -4.703  -2.853  0.00  0.00    +0.000 A 
ATOM     37  C   UNL     1      10.853  -4.529  -2.124  0.00  0.00    +0.003 A 
ENDBRANCH  31  32
ENDBRANCH  30  31
ENDBRANCH  29  30
ENDBRANCH  28  29
ENDBRANCH   8  28
TORSDOF 9
