REMARK  Name = ZINC13078244
REMARK  8 active torsions:
REMARK  status: ('A' for Active; 'I' for Inactive)
REMARK    1  A    between atoms: C_3  and  C_15
REMARK    2  A    between atoms: C_5  and  S_7
REMARK    3  A    between atoms: S_7  and  N_10
REMARK    4  A    between atoms: N_10  and  C_11
REMARK    5  A    between atoms: C_11  and  C_12
REMARK    6  A    between atoms: C_12  and  C_13
REMARK    7  A    between atoms: C_15  and  C_17
REMARK    8  A    between atoms: C_18  and  C_19
REMARK                            x       y       z     vdW  Elec       q    Type
REMARK                         _______ _______ _______ _____ _____    ______ ____
ROOT
ATOM      1  C   UNL     1      -7.410   3.746   0.058  0.00  0.00    +0.003 A 
ATOM      2  C   UNL     1      -6.204   3.075   0.049  0.00  0.00    +0.012 A 
ATOM      3  C   UNL     1      -6.186   1.680   0.041  0.00  0.00    +0.024 A 
ATOM      4  C   UNL     1      -7.389   0.972   0.038  0.00  0.00    +0.040 A 
ATOM      5  C   UNL     1      -8.587   1.654   0.053  0.00  0.00    +0.106 A 
ATOM      6  C   UNL     1      -8.599   3.038   0.060  0.00  0.00    +0.028 A 
ENDROOT
BRANCH   5   7
ATOM      7  S   UNL     1     -10.107   0.763   0.056  0.00  0.00    +0.058 S 
ATOM      8  O   UNL     1      -9.824  -0.520   0.599  0.00  0.00    -0.153 OA
ATOM      9  O   UNL     1     -11.085   1.628   0.616  0.00  0.00    -0.153 OA
BRANCH   7  10
ATOM     10  N   UNL     1     -10.537   0.523  -1.525  0.00  0.00    -0.189 NA
ATOM     11  H   UNL     1     -11.341   0.937  -1.878  0.00  0.00    +0.148 HD
BRANCH  10  12
ATOM     12  C   UNL     1      -9.705  -0.315  -2.392  0.00  0.00    +0.117 C 
BRANCH  12  13
ATOM     13  C   UNL     1     -10.488  -0.680  -3.655  0.00  0.00    +0.142 C 
BRANCH  13  14
ATOM     14  C   UNL     1      -9.632  -1.541  -4.546  0.00  0.00    +0.357 C 
ATOM     15  O   UNL     1      -8.510  -1.834  -4.207  0.00  0.00    -0.246 OA
ATOM     16  O   UNL     1     -10.116  -1.984  -5.717  0.00  0.00    -0.246 OA
ENDBRANCH  13  14
ENDBRANCH  12  13
ENDBRANCH  10  12
ENDBRANCH   7  10
ENDBRANCH   5   7
BRANCH   3  17
ATOM     17  C   UNL     1      -4.897   0.954   0.031  0.00  0.00    +0.186 C 
ATOM     18  O   UNL     1      -4.883  -0.264   0.025  0.00  0.00    -0.287 OA
BRANCH  17  19
ATOM     19  C   UNL     1      -3.677   1.676   0.029  0.00  0.00    +0.052 C 
ATOM     20  C   UNL     1      -2.498   1.012   0.020  0.00  0.00    +0.012 C 
BRANCH  20  21
ATOM     21  C   UNL     1      -1.234   1.760   0.017  0.00  0.00    -0.020 A 
ATOM     22  C   UNL     1      -0.013   1.076   0.008  0.00  0.00    +0.057 A 
ATOM     23  C   UNL     1       1.173   1.783   0.000  0.00  0.00    +0.168 A 
ATOM     24  C   UNL     1       1.153   3.179   0.008  0.00  0.00    +0.184 A 
ATOM     25  C   UNL     1      -0.059   3.859   0.022  0.00  0.00    +0.087 A 
ATOM     26  C   UNL     1      -1.247   3.160   0.030  0.00  0.00    +0.031 A 
ATOM     27 CL   UNL     1      -0.077   5.595   0.032  0.00  0.00    -0.080 Cl
ATOM     28  O   UNL     1       2.440   3.632  -0.002  0.00  0.00    -0.451 OA
ATOM     29  C   UNL     1       3.239   2.513  -0.428  0.00  0.00    +0.466 C 
ATOM     30  O   UNL     1       2.473   1.366  -0.014  0.00  0.00    -0.453 OA
ENDBRANCH  20  21
ENDBRANCH  17  19
ENDBRANCH   3  17
TORSDOF 8
