REMARK  Name = ZINC09507284
REMARK  8 active torsions:
REMARK  status: ('A' for Active; 'I' for Inactive)
REMARK    1  A    between atoms: C_1  and  C_2
REMARK    2  A    between atoms: C_3  and  C_13
REMARK    3  A    between atoms: C_5  and  C_7
REMARK    4  A    between atoms: N_15  and  N_16
REMARK    5  A    between atoms: C_17  and  C_19
REMARK    6  A    between atoms: C_19  and  C_20
REMARK    7  A    between atoms: C_20  and  C_21
REMARK    8  A    between atoms: C_21  and  N_22
REMARK                            x       y       z     vdW  Elec       q    Type
REMARK                         _______ _______ _______ _____ _____    ______ ____
ROOT
ATOM      1  N   UNL     1       7.405   0.505  -3.173  0.00  0.00    -0.234 N 
ATOM      2  C   UNL     1       6.082   0.540  -2.915  0.00  0.00    +0.229 C 
ATOM      3  O   UNL     1       5.286   0.568  -3.829  0.00  0.00    -0.274 OA
ATOM      4  H   UNL     1       8.041   0.483  -2.442  0.00  0.00    +0.173 HD
ENDROOT
BRANCH   1   7
ATOM      5  C   UNL     1       9.182   0.464  -4.757  0.00  0.00    +0.269 C 
ATOM      6  O   UNL     1       9.981   0.437  -3.839  0.00  0.00    -0.268 OA
ATOM      7  N   UNL     1       7.859   0.499  -4.498  0.00  0.00    -0.230 N 
ATOM      8  H   UNL     1       7.223   0.521  -5.230  0.00  0.00    +0.173 HD
BRANCH   5  11
ATOM      9  C   UNL     1      12.141   0.387  -5.705  0.00  0.00    +0.067 C 
ATOM     10  C   UNL     1      10.956   0.424  -6.636  0.00  0.00    +0.058 A 
ATOM     11  C   UNL     1       9.658   0.458  -6.143  0.00  0.00    +0.098 A 
ATOM     12  S   UNL     1       8.728   0.483  -7.669  0.00  0.00    -0.062 S 
ATOM     13  C   UNL     1      10.081   0.458  -8.759  0.00  0.00    +0.109 A 
ATOM     14  N   UNL     1      11.116   0.425  -7.931  0.00  0.00    -0.243 NA
BRANCH  13  15
ATOM     15  C   UNL     1      10.078   0.465 -10.236  0.00  0.00    +0.007 A 
ATOM     16  C   UNL     1      11.283   0.440 -10.940  0.00  0.00    +0.010 A 
ATOM     17  C   UNL     1      11.274   0.442 -12.319  0.00  0.00    +0.001 A 
ATOM     18  C   UNL     1      10.073   0.479 -13.006  0.00  0.00    +0.000 A 
ATOM     19  C   UNL     1       8.874   0.508 -12.315  0.00  0.00    +0.001 A 
ATOM     20  C   UNL     1       8.870   0.501 -10.935  0.00  0.00    +0.010 A 
ENDBRANCH  13  15
ENDBRANCH   5  11
ENDBRANCH   1   7
BRANCH   2  21
ATOM     21  C   UNL     1       5.593   0.547  -1.489  0.00  0.00    +0.099 C 
BRANCH  21  22
ATOM     22  C   UNL     1       4.064   0.589  -1.475  0.00  0.00    +0.031 C 
BRANCH  22  23
ATOM     23  C   UNL     1       3.567   0.596  -0.028  0.00  0.00    +0.129 C 
BRANCH  23  24
ATOM     24  N   UNL     1       2.103   0.636  -0.015  0.00  0.00    -0.274 N 
ATOM     25  C   UNL     1       1.310   1.784  -0.001  0.00  0.00    +0.090 A 
ATOM     26  C   UNL     1       1.597   3.139   0.004  0.00  0.00    +0.030 A 
ATOM     27  C   UNL     1       0.568   4.060   0.018  0.00  0.00    +0.002 A 
ATOM     28  C   UNL     1      -0.749   3.632   0.029  0.00  0.00    +0.004 A 
ATOM     29  C   UNL     1      -1.043   2.283   0.029  0.00  0.00    +0.048 A 
ATOM     30  C   UNL     1      -0.016   1.351   0.009  0.00  0.00    +0.157 A 
ATOM     31  O   UNL     1       0.002  -0.004   0.002  0.00  0.00    -0.407 OA
ATOM     32  C   UNL     1       1.276  -0.428  -0.012  0.00  0.00    +0.421 A 
ATOM     33  O   UNL     1       1.629  -1.591  -0.021  0.00  0.00    -0.223 OA
ENDBRANCH  23  24
ENDBRANCH  22  23
ENDBRANCH  21  22
ENDBRANCH   2  21
TORSDOF 7
