REMARK  Name = ZINC49090041
REMARK  8 active torsions:
REMARK  status: ('A' for Active; 'I' for Inactive)
REMARK    1  A    between atoms: C_1  and  C_2
REMARK    2  A    between atoms: C_2  and  C_4
REMARK    3  A    between atoms: C_2  and  C_14
REMARK    4  A    between atoms: C_4  and  C_5
REMARK    5  A    between atoms: C_14  and  N_15
REMARK    6  A    between atoms: C_25  and  C_28
REMARK    7  A    between atoms: N_33  and  C_36
REMARK    8  A    between atoms: N_42  and  C_43
REMARK                            x       y       z     vdW  Elec       q    Type
REMARK                         _______ _______ _______ _____ _____    ______ ____
ROOT
ATOM      1  N   UNL     1      -2.110  -0.170  -1.226  0.00  0.00    +0.381 N 
ATOM      2  C   UNL     1      -3.538  -0.509  -1.178  0.00  0.00    -0.075 C 
ATOM      3  C   UNL     1      -4.228   0.002  -2.444  0.00  0.00    -0.024 C 
ATOM      4  C   UNL     1      -5.717  -0.338  -2.396  0.00  0.00    +0.002 C 
ATOM      5  C   UNL     1      -5.896  -1.855  -2.324  0.00  0.00    +0.000 C 
ATOM      6  C   UNL     1      -5.264  -2.499  -3.560  0.00  0.00    +0.000 C 
ATOM      7  C   UNL     1      -3.772  -2.167  -3.599  0.00  0.00    +0.004 C 
ATOM      8  C   UNL     1      -3.590  -0.657  -3.669  0.00  0.00    +0.000 C 
ATOM      9  C   UNL     1      -2.089  -0.346  -3.672  0.00  0.00    +0.062 C 
ATOM     10  C   UNL     1      -1.473  -0.845  -2.363  0.00  0.00    -0.066 C 
ATOM     11  H   UNL     1      -2.008   0.829  -1.329  0.00  0.00    -0.082 HD
ENDROOT
BRANCH   9  12
ATOM     12  C   UNL     1      -1.433  -1.041  -4.837  0.00  0.00    +0.217 C 
ATOM     13  O   UNL     1      -0.882  -2.109  -4.674  0.00  0.00    -0.275 OA
ATOM     14  N   UNL     1      -1.457  -0.475  -6.060  0.00  0.00    -0.298 N 
ATOM     15  C   UNL     1      -2.032   0.864  -6.253  0.00  0.00    +0.126 C 
ATOM     16  C   UNL     1      -0.980   1.757  -6.922  0.00  0.00    +0.125 C 
ATOM     17  N   UNL     1      -0.432   1.047  -8.086  0.00  0.00    -0.313 N 
ATOM     18  C   UNL     1       0.143  -0.292  -7.892  0.00  0.00    +0.125 C 
ATOM     19  C   UNL     1      -0.904  -1.183  -7.223  0.00  0.00    +0.126 C 
BRANCH  17  20
ATOM     20  C   UNL     1      -0.457   1.624  -9.334  0.00  0.00    +0.104 A 
ATOM     21  C   UNL     1      -1.583   1.506 -10.121  0.00  0.00    +0.042 A 
ATOM     22  C   UNL     1      -1.606   2.092 -11.385  0.00  0.00    +0.009 A 
ATOM     23  C   UNL     1      -0.498   2.782 -11.828  0.00  0.00    +0.070 A 
ATOM     24  C   UNL     1       0.628   2.882 -11.003  0.00  0.00    +0.252 A 
ATOM     25  O   UNL     1       1.613   3.492 -11.390  0.00  0.00    -0.268 OA
ATOM     26  N   UNL     1       0.629   2.314  -9.783  0.00  0.00    -0.300 N 
ATOM     27  C   UNL     1       1.813   2.433  -8.929  0.00  0.00    +0.154 C 
ENDBRANCH  17  20
ENDBRANCH   9  12
BRANCH   1  28
ATOM     28  C   UNL     1      -1.465  -0.599   0.021  0.00  0.00    -0.075 C 
BRANCH  28  30
ATOM     29  C   UNL     1       0.029   1.403   0.062  0.00  0.00    +0.006 C 
ATOM     30  C   UNL     1      -0.010  -0.126   0.032  0.00  0.00    -0.026 C 
BRANCH  30  31
ATOM     31  C   UNL     1       0.698  -0.679   1.271  0.00  0.00    +0.036 C 
BRANCH  31  32
ATOM     32  C   UNL     1       2.159  -0.315   1.219  0.00  0.00    -0.043 A 
ATOM     33  C   UNL     1       3.059  -1.165   0.603  0.00  0.00    +0.007 A 
ATOM     34  C   UNL     1       4.401  -0.836   0.553  0.00  0.00    +0.050 A 
ATOM     35  C   UNL     1       4.847   0.347   1.120  0.00  0.00    +0.166 A 
ATOM     36  C   UNL     1       3.940   1.203   1.740  0.00  0.00    +0.166 A 
ATOM     37  C   UNL     1       2.596   0.869   1.782  0.00  0.00    +0.053 A 
ATOM     38  O   UNL     1       4.618   2.288   2.215  0.00  0.00    -0.453 OA
ATOM     39  C   UNL     1       6.003   1.895   2.239  0.00  0.00    +0.466 C 
ATOM     40  O   UNL     1       6.094   0.896   1.206  0.00  0.00    -0.453 OA
ENDBRANCH  31  32
ENDBRANCH  30  31
ENDBRANCH  28  30
ENDBRANCH   1  28
TORSDOF 6
