REMARK  Name = ZINC36490863
REMARK  10 active torsions:
REMARK  status: ('A' for Active; 'I' for Inactive)
REMARK    1  A    between atoms: C_1  and  C_2
REMARK    2  A    between atoms: C_2  and  C_3
REMARK    3  A    between atoms: C_2  and  C_4
REMARK    4  A    between atoms: C_2  and  N_5
REMARK    5  A    between atoms: C_6  and  C_8
REMARK    6  A    between atoms: C_8  and  C_10
REMARK    7  A    between atoms: C_8  and  N_19
REMARK    8  A    between atoms: C_13  and  N_16
REMARK    9  A    between atoms: N_19  and  C_20
REMARK   10  A    between atoms: C_26  and  C_28
REMARK                            x       y       z     vdW  Elec       q    Type
REMARK                         _______ _______ _______ _____ _____    ______ ____
ROOT
ATOM      1  C   UNL     1       2.310  -0.733  -2.647  0.00  0.00    +0.192 C 
ENDROOT
BRANCH   1   2
ATOM      2  C   UNL     1       2.486  -2.225  -2.763  0.00  0.00    -0.018 A 
ATOM      3  C   UNL     1       2.431  -2.833  -4.004  0.00  0.00    +0.008 A 
ATOM      4  C   UNL     1       2.593  -4.201  -4.110  0.00  0.00    +0.033 A 
ATOM      5  C   UNL     1       2.811  -4.962  -2.977  0.00  0.00    +0.126 A 
ATOM      6  C   UNL     1       2.867  -4.354  -1.737  0.00  0.00    +0.033 A 
ATOM      7  C   UNL     1       2.709  -2.985  -1.630  0.00  0.00    +0.008 A 
BRANCH   5   8
ATOM      8  N   UNL     1       2.983  -6.428  -3.091  0.00  0.00    +0.056 N 
ATOM      9  O   UNL     1       2.934  -6.959  -4.176  0.00  0.00    -0.126 OA
ATOM     10  O   UNL     1       3.174  -7.093  -2.100  0.00  0.00    -0.126 OA
ENDBRANCH   5   8
ENDBRANCH   1   2
BRANCH   1  12
ATOM     11  N   UNL     1       0.080  -0.900  -1.588  0.00  0.00    -0.309 N 
ATOM     12  C   UNL     1       1.341  -0.427  -1.534  0.00  0.00    +0.238 C 
ATOM     13  O   UNL     1       1.696   0.246  -0.589  0.00  0.00    -0.273 OA
ATOM     14  H   UNL     1      -0.203  -1.438  -2.344  0.00  0.00    +0.149 HD
BRANCH  11  16
ATOM     15  C   UNL     1      -1.041   0.912  -0.388  0.00  0.00    +0.031 C 
ATOM     16  C   UNL     1      -0.861  -0.603  -0.506  0.00  0.00    +0.026 C 
ATOM     17  C   UNL     1      -0.315  -1.156   0.811  0.00  0.00    +0.031 C 
ATOM     18  C   UNL     1      -2.212  -1.254  -0.812  0.00  0.00    +0.031 C 
ENDBRANCH  11  16
ENDBRANCH   1  12
BRANCH   1  19
ATOM     19  N   UNL     1       3.603  -0.109  -2.354  0.00  0.00    -0.281 N 
ATOM     20  C   UNL     1       4.081   0.861  -3.159  0.00  0.00    +0.237 C 
ATOM     21  O   UNL     1       5.108   1.437  -2.870  0.00  0.00    -0.274 OA
BRANCH  20  22
ATOM     22  C   UNL     1       3.339   1.230  -4.417  0.00  0.00    +0.159 C 
ATOM     23  C   UNL     1       3.712   0.261  -5.561  0.00  0.00    +0.041 C 
ATOM     24  C   UNL     1       4.865   1.021  -6.255  0.00  0.00    +0.098 C 
ATOM     25  C   UNL     1       4.615   2.472  -5.908  0.00  0.00    +0.214 C 
ATOM     26  O   UNL     1       5.118   3.419  -6.475  0.00  0.00    -0.276 OA
ATOM     27  N   UNL     1       3.751   2.560  -4.879  0.00  0.00    -0.304 N 
ATOM     28  H   UNL     1       3.442   3.394  -4.492  0.00  0.00    +0.149 HD
ENDBRANCH  20  22
BRANCH  19  29
ATOM     29  C   UNL     1       4.376  -0.540  -1.187  0.00  0.00    +0.077 C 
ATOM     30  C   UNL     1       4.688   0.672  -0.306  0.00  0.00    +0.022 C 
ATOM     31  C   UNL     1       5.495   0.222   0.913  0.00  0.00    +0.002 C 
ATOM     32  C   UNL     1       6.804  -0.421   0.449  0.00  0.00    +0.000 C 
ATOM     33  C   UNL     1       6.492  -1.633  -0.432  0.00  0.00    +0.002 C 
ATOM     34  C   UNL     1       5.685  -1.183  -1.651  0.00  0.00    +0.022 C 
ENDBRANCH  19  29
ENDBRANCH   1  19
TORSDOF 7
