REMARK  Name = ZINC24893748
REMARK  6 active torsions:
REMARK  status: ('A' for Active; 'I' for Inactive)
REMARK    1  A    between atoms: C_1  and  C_2
REMARK    2  A    between atoms: C_2  and  C_4
REMARK    3  A    between atoms: C_2  and  N_10
REMARK    4  A    between atoms: N_6  and  C_7
REMARK    5  A    between atoms: N_13  and  S_16
REMARK    6  A    between atoms: S_16  and  C_19
REMARK                            x       y       z     vdW  Elec       q    Type
REMARK                         _______ _______ _______ _____ _____    ______ ____
ROOT
ATOM      1  N   UNL     1       2.895   4.251  -4.367  0.00  0.00    +0.389 N 
ATOM      2  C   UNL     1       1.960   5.097  -3.613  0.00  0.00    -0.060 C 
ATOM      3  C   UNL     1       2.614   5.530  -2.297  0.00  0.00    +0.091 C 
ATOM      4  N   UNL     1       3.076   4.328  -1.587  0.00  0.00    -0.180 NA
ATOM      5  C   UNL     1       3.911   3.365  -2.320  0.00  0.00    +0.091 C 
ATOM      6  C   UNL     1       3.201   3.014  -3.636  0.00  0.00    -0.060 C 
ATOM      7  H   UNL     1       3.834   4.812  -4.482  0.00  0.00    -0.081 HD
ENDROOT
BRANCH   4   8
ATOM      8  S   UNL     1       2.671   4.069  -0.002  0.00  0.00    +0.064 S 
ATOM      9  O   UNL     1       2.388   5.343   0.558  0.00  0.00    -0.153 OA
ATOM     10  O   UNL     1       3.663   3.204   0.534  0.00  0.00    -0.153 OA
BRANCH   8  11
ATOM     11  C   UNL     1       1.157   3.167   0.008  0.00  0.00    +0.142 A 
ATOM     12  C   UNL     1       1.176   1.784   0.000  0.00  0.00    +0.070 A 
ATOM     13  C   UNL     1      -0.013   1.076   0.008  0.00  0.00    +0.037 A 
ATOM     14  C   UNL     1      -1.220   1.751   0.017  0.00  0.00    +0.021 A 
ATOM     15  C   UNL     1      -1.239   3.134   0.031  0.00  0.00    +0.037 A 
ATOM     16  C   UNL     1      -0.050   3.842   0.023  0.00  0.00    +0.070 A 
ATOM     17 CL   UNL     1      -0.074   5.578   0.033  0.00  0.00    -0.081 Cl
ATOM     18 BR   UNL     1      -2.844   0.783   0.020  0.00  0.00    -0.050 Br
ATOM     19 CL   UNL     1       2.691   0.936  -0.018  0.00  0.00    -0.081 Cl
ENDBRANCH   8  11
ENDBRANCH   4   8
BRANCH   1  21
ATOM     20  C   UNL     1       1.102   3.114  -5.588  0.00  0.00    -0.004 C 
ATOM     21  C   UNL     1       2.374   3.956  -5.708  0.00  0.00    +0.016 C 
BRANCH  21  22
ATOM     22  C   UNL     1       3.410   3.193  -6.492  0.00  0.00    +0.199 C 
ATOM     23  O   UNL     1       4.477   2.921  -5.984  0.00  0.00    -0.278 OA
ATOM     24  N   UNL     1       3.150   2.812  -7.759  0.00  0.00    -0.314 N 
ATOM     25  H   UNL     1       2.183   3.058  -8.220  0.00  0.00    +0.149 HD
BRANCH  24  26
ATOM     26  C   UNL     1       4.157   2.070  -8.521  0.00  0.00    +0.073 C 
ATOM     27  C   UNL     1       4.393   2.487  -9.974  0.00  0.00    +0.024 C 
ATOM     28  C   UNL     1       3.664   1.177  -9.662  0.00  0.00    +0.024 C 
ENDBRANCH  24  26
ENDBRANCH  21  22
ENDBRANCH   1  21
TORSDOF 5
