REMARK  Name = ZINC38769560
REMARK  6 active torsions:
REMARK  status: ('A' for Active; 'I' for Inactive)
REMARK    1  A    between atoms: C_1  and  C_2
REMARK    2  A    between atoms: C_6  and  C_8
REMARK    3  A    between atoms: C_9  and  C_10
REMARK    4  A    between atoms: N_12  and  C_16
REMARK    5  A    between atoms: C_16  and  N_17
REMARK    6  A    between atoms: N_27  and  C_32
REMARK                            x       y       z     vdW  Elec       q    Type
REMARK                         _______ _______ _______ _____ _____    ______ ____
ROOT
ATOM      1  N   UNL     1       8.334  -0.119   4.453  0.00  0.00    +0.395 N 
ATOM      2  C   UNL     1       8.063   0.115   3.029  0.00  0.00    -0.057 C 
ATOM      3  C   UNL     1       8.600   1.493   2.627  0.00  0.00    +0.088 C 
ATOM      4  N   UNL     1      10.023   1.564   2.994  0.00  0.00    -0.318 N 
ATOM      5  C   UNL     1      10.405   1.187   4.364  0.00  0.00    +0.088 C 
ATOM      6  C   UNL     1       9.783  -0.176   4.683  0.00  0.00    -0.057 C 
ATOM      7  C   UNL     1      10.972   1.974   2.079  0.00  0.00    +0.135 A 
ATOM      8  C   UNL     1      11.320   3.333   1.959  0.00  0.00    +0.078 A 
ATOM      9  C   UNL     1      10.909   4.523   2.598  0.00  0.00    +0.148 A 
ATOM     10  N   UNL     1      11.573   5.519   2.084  0.00  0.00    -0.177 NA
ATOM     11  N   UNL     1      12.443   5.044   1.094  0.00  0.00    -0.249 N 
ATOM     12  C   UNL     1      12.295   3.692   1.008  0.00  0.00    +0.163 A 
ATOM     13  N   UNL     1      12.848   2.735   0.263  0.00  0.00    -0.216 NA
ATOM     14  C   UNL     1      12.490   1.478   0.412  0.00  0.00    +0.225 A 
ATOM     15  N   UNL     1      11.584   1.094   1.294  0.00  0.00    -0.220 NA
ATOM     16  C   UNL     1      13.355   5.860   0.289  0.00  0.00    +0.174 C 
ATOM     17  H   UNL     1       7.938   0.634   4.996  0.00  0.00    -0.079 HD
ENDROOT
BRANCH   1  18
ATOM     18  C   UNL     1       7.724  -1.390   4.863  0.00  0.00    +0.072 C 
BRANCH  18  21
ATOM     19  C   UNL     1       4.262  -1.210   3.863  0.00  0.00    +0.153 A 
ATOM     20  N   UNL     1       5.528  -1.323   3.556  0.00  0.00    -0.153 NA
ATOM     21  N   UNL     1       6.267  -1.293   4.747  0.00  0.00    -0.257 N 
ATOM     22  C   UNL     1       5.393  -1.158   5.765  0.00  0.00    +0.174 A 
ATOM     23  S   UNL     1       5.788  -1.069   7.428  0.00  0.00    -0.012 S 
ATOM     24  N   UNL     1       4.154  -1.100   5.239  0.00  0.00    -0.318 N 
ATOM     25  H   UNL     1       3.328  -1.000   5.738  0.00  0.00    +0.169 HD
BRANCH  19  27
ATOM     26  C   UNL     1       3.386  -1.311   1.590  0.00  0.00    +0.049 C 
ATOM     27  C   UNL     1       3.146  -1.195   2.911  0.00  0.00    +0.051 C 
BRANCH  26  32
ATOM     28  C   UNL     1       0.088   0.749  -0.226  0.00  0.00    +0.052 C 
ATOM     29  C   UNL     1       0.198  -0.775  -0.140  0.00  0.00    +0.174 C 
ATOM     30  C   UNL     1       1.043  -1.335  -1.309  0.00  0.00    +0.075 C 
ATOM     31  C   UNL     1       2.427  -1.406  -0.686  0.00  0.00    +0.022 C 
ATOM     32  C   UNL     1       2.269  -1.296   0.637  0.00  0.00    +0.117 C 
ATOM     33  O   UNL     1       0.971  -1.170   1.009  0.00  0.00    -0.489 OA
ENDBRANCH  26  32
ENDBRANCH  19  27
ENDBRANCH  18  21
ENDBRANCH   1  18
TORSDOF 4
