REMARK  Name = ZINC66952283
REMARK  5 active torsions:
REMARK  status: ('A' for Active; 'I' for Inactive)
REMARK    1  A    between atoms: C_10  and  C_11
REMARK    2  A    between atoms: C_10  and  O_27
REMARK    3  A    between atoms: C_11  and  N_12
REMARK    4  A    between atoms: N_15  and  C_16
REMARK    5  A    between atoms: C_19  and  N_22
REMARK                            x       y       z     vdW  Elec       q    Type
REMARK                         _______ _______ _______ _____ _____    ______ ____
ROOT
ATOM      1  N   UNL     1       4.733   1.486   0.592  0.00  0.00    -0.296 N 
ATOM      2  C   UNL     1       5.600   2.306   1.220  0.00  0.00    +0.304 C 
ATOM      3  O   UNL     1       6.161   1.937   2.233  0.00  0.00    -0.253 OA
ATOM      4  N   UNL     1       5.846   3.534   0.723  0.00  0.00    -0.269 N 
ATOM      5  H   UNL     1       4.286   1.781  -0.216  0.00  0.00    +0.150 HD
ATOM      6  H   UNL     1       5.344   3.858  -0.042  0.00  0.00    +0.156 HD
ENDROOT
BRANCH   4   7
ATOM      7  C   UNL     1       6.825   4.344   1.310  0.00  0.00    +0.035 A 
ATOM      8  C   UNL     1       7.960   3.768   1.867  0.00  0.00    +0.025 A 
ATOM      9  C   UNL     1       8.926   4.566   2.446  0.00  0.00    +0.031 A 
ATOM     10  C   UNL     1       8.763   5.945   2.472  0.00  0.00    +0.086 A 
ATOM     11  C   UNL     1       7.629   6.521   1.915  0.00  0.00    +0.031 A 
ATOM     12  C   UNL     1       6.666   5.723   1.331  0.00  0.00    +0.025 A 
BRANCH  10  13
ATOM     13  N   UNL     1       9.744   6.756   3.061  0.00  0.00    -0.150 N 
ATOM     14  N   UNL     1      10.829   6.319   3.596  0.00  0.00    -0.156 NA
ATOM     15  C   UNL     1      11.518   7.342   4.049  0.00  0.00    +0.156 A 
ATOM     16  C   UNL     1      10.762   8.477   3.747  0.00  0.00    +0.156 A 
ATOM     17  N   UNL     1       9.685   8.039   3.133  0.00  0.00    -0.156 NA
ENDBRANCH  10  13
ENDBRANCH   4   7
BRANCH   1  18
ATOM     18  C   UNL     1       4.466   0.151   1.132  0.00  0.00    +0.145 C 
BRANCH  18  28
ATOM     19  C   UNL     1       2.885  -4.513   1.799  0.00  0.00    +0.000 A 
ATOM     20  C   UNL     1       2.877  -3.394   2.611  0.00  0.00    +0.000 A 
ATOM     21  C   UNL     1       3.099  -2.148   2.063  0.00  0.00    +0.007 A 
ATOM     22  C   UNL     1       3.333  -2.008   0.701  0.00  0.00    -0.011 A 
ATOM     23  C   UNL     1       3.347  -3.122  -0.107  0.00  0.00    -0.041 A 
ATOM     24  C   UNL     1       3.119  -4.376   0.447  0.00  0.00    +0.004 A 
ATOM     25  C   UNL     1       3.610  -3.047  -1.588  0.00  0.00    +0.035 C 
ATOM     26  C   UNL     1       3.411  -1.621  -2.098  0.00  0.00    +0.008 C 
ATOM     27  C   UNL     1       4.222  -0.671  -1.208  0.00  0.00    +0.041 C 
ATOM     28  C   UNL     1       3.561  -0.617   0.167  0.00  0.00    +0.107 C 
BRANCH  28  29
ATOM     29  O   UNL     1       2.306   0.058   0.061  0.00  0.00    -0.382 OA
ATOM     30  H   UNL     1       1.834   0.146   0.901  0.00  0.00    +0.211 HD
ENDBRANCH  28  29
ENDBRANCH  18  28
ENDBRANCH   1  18
TORSDOF 5
