REMARK  Name = ZINC63694686
REMARK  8 active torsions:
REMARK  status: ('A' for Active; 'I' for Inactive)
REMARK    1  A    between atoms: C_1  and  C_2
REMARK    2  A    between atoms: C_2  and  O_3
REMARK    3  A    between atoms: O_3  and  C_4
REMARK    4  A    between atoms: C_9  and  C_10
REMARK    5  A    between atoms: C_10  and  N_11
REMARK    6  A    between atoms: C_12  and  C_14
REMARK    7  A    between atoms: N_17  and  C_20
REMARK    8  A    between atoms: C_26  and  C_30
REMARK                            x       y       z     vdW  Elec       q    Type
REMARK                         _______ _______ _______ _____ _____    ______ ____
ROOT
ATOM      1  C   UNL     1       0.215   0.353   6.284  0.00  0.00    +0.077 C 
ATOM      2  C   UNL     1      -0.427  -0.847   6.985  0.00  0.00    +0.028 C 
ATOM      3  C   UNL     1      -1.486  -0.349   7.971  0.00  0.00    +0.089 C 
ATOM      4  N   UNL     1      -0.859   0.540   8.958  0.00  0.00    -0.266 NA
ATOM      5  C   UNL     1      -0.276   1.723   8.312  0.00  0.00    +0.089 C 
ATOM      6  C   UNL     1       0.819   1.286   7.337  0.00  0.00    +0.028 C 
ENDROOT
BRANCH   4   7
ATOM      7  C   UNL     1      -1.817   0.927  10.001  0.00  0.00    +0.252 C 
ATOM      8  N   UNL     1      -3.034   1.478   9.389  0.00  0.00    -0.351 N 
ATOM      9  C   UNL     1      -4.029   0.719   9.748  0.00  0.00    +0.061 A 
ATOM     10  C   UNL     1      -5.469   0.758   9.459  0.00  0.00    +0.028 A 
ATOM     11  C   UNL     1      -6.278  -0.185   9.982  0.00  0.00    +0.005 A 
ATOM     12  C   UNL     1      -5.801  -1.221  10.805  0.00  0.00    -0.048 A 
ATOM     13  C   UNL     1      -4.500  -1.349  11.132  0.00  0.00    +0.030 A 
ATOM     14  C   UNL     1      -3.524  -0.378  10.618  0.00  0.00    +0.061 A 
ATOM     15  N   UNL     1      -2.236  -0.254  10.766  0.00  0.00    -0.351 N 
ATOM     16  C   UNL     1      -6.785  -2.229  11.342  0.00  0.00    +0.044 C 
ATOM     17  H   UNL     1      -3.086   2.263   8.822  0.00  0.00    +0.163 HD
ATOM     18  H   UNL     1      -1.658  -0.836  11.284  0.00  0.00    +0.163 HD
ENDBRANCH   4   7
BRANCH   1  20
ATOM     19  N   UNL     1       1.000  -0.967   4.344  0.00  0.00    -0.311 N 
ATOM     20  C   UNL     1       1.301  -0.128   5.356  0.00  0.00    +0.216 C 
ATOM     21  O   UNL     1       2.445   0.239   5.519  0.00  0.00    -0.276 OA
ATOM     22  H   UNL     1       0.085  -1.260   4.213  0.00  0.00    +0.149 HD
BRANCH  19  23
ATOM     23  C   UNL     1       2.055  -1.434   3.442  0.00  0.00    +0.143 C 
BRANCH  23  29
ATOM     24  C   UNL     1       0.802  -1.824   1.306  0.00  0.00    +0.125 A 
ATOM     25  C   UNL     1       0.260  -2.673   0.351  0.00  0.00    +0.046 A 
ATOM     26  C   UNL     1       0.372  -4.041   0.501  0.00  0.00    +0.004 A 
ATOM     27  C   UNL     1       1.024  -4.566   1.602  0.00  0.00    +0.001 A 
ATOM     28  C   UNL     1       1.565  -3.723   2.555  0.00  0.00    +0.009 A 
ATOM     29  C   UNL     1       1.460  -2.353   2.406  0.00  0.00    +0.011 A 
BRANCH  24  30
ATOM     30  O   UNL     1       0.693  -0.477   1.160  0.00  0.00    -0.492 OA
BRANCH  30  32
ATOM     31  C   UNL     1      -0.019   1.526   0.010  0.00  0.00    +0.048 C 
ATOM     32  C   UNL     1       0.002  -0.004   0.002  0.00  0.00    +0.225 C 
ENDBRANCH  30  32
ENDBRANCH  24  30
ENDBRANCH  23  29
ENDBRANCH  19  23
ENDBRANCH   1  20
TORSDOF 6
