REMARK  Name = ZINC05566082
REMARK  5 active torsions:
REMARK  status: ('A' for Active; 'I' for Inactive)
REMARK    1  A    between atoms: C_1  and  C_2
REMARK    2  A    between atoms: C_2  and  C_14
REMARK    3  A    between atoms: N_3  and  N_4
REMARK    4  A    between atoms: N_4  and  S_5
REMARK    5  A    between atoms: S_5  and  C_8
REMARK                            x       y       z     vdW  Elec       q    Type
REMARK                         _______ _______ _______ _____ _____    ______ ____
ROOT
ATOM      1  N   UNL     1       1.533   2.320  -0.033  0.00  0.00    -0.136 N 
ATOM      2  H   UNL     1       1.864   2.887   0.681  0.00  0.00    +0.197 HD
ENDROOT
BRANCH   1   5
ATOM      3  C   UNL     1       4.476   2.086  -2.309  0.00  0.00    +0.069 C 
ATOM      4  C   UNL     1       3.602   2.393  -1.121  0.00  0.00    +0.085 C 
ATOM      5  N   UNL     1       2.391   1.927  -1.069  0.00  0.00    -0.169 NA
BRANCH   4   6
ATOM      6  C   UNL     1       4.120   3.222  -0.019  0.00  0.00    +0.110 A 
ATOM      7  C   UNL     1       4.902   4.351  -0.293  0.00  0.00    +0.033 A 
ATOM      8  C   UNL     1       5.365   5.096   0.780  0.00  0.00    +0.025 A 
ATOM      9  C   UNL     1       5.027   4.679   2.059  0.00  0.00    +0.156 A 
ATOM     10  N   UNL     1       4.283   3.600   2.231  0.00  0.00    -0.054 N 
ATOM     11  N   UNL     1       3.844   2.905   1.244  0.00  0.00    -0.131 NA
ATOM     12  O   UNL     1       3.954   3.199   3.548  0.00  0.00    -0.145 OA
ENDBRANCH   4   6
ENDBRANCH   1   5
BRANCH   1  13
ATOM     13  S   UNL     1      -0.044   1.817  -0.029  0.00  0.00    +0.086 S 
ATOM     14  O   UNL     1      -0.591   2.186  -1.288  0.00  0.00    -0.149 OA
ATOM     15  O   UNL     1      -0.606   2.252   1.202  0.00  0.00    -0.149 OA
BRANCH  13  16
ATOM     16  C   UNL     1      -0.030   0.056   0.018  0.00  0.00    +0.110 A 
ATOM     17  C   UNL     1      -0.023  -0.667  -1.161  0.00  0.00    +0.029 A 
ATOM     18  C   UNL     1      -0.006  -2.048  -1.124  0.00  0.00    +0.002 A 
ATOM     19  C   UNL     1      -0.007  -2.708   0.091  0.00  0.00    +0.000 A 
ATOM     20  C   UNL     1      -0.020  -1.985   1.270  0.00  0.00    +0.002 A 
ATOM     21  C   UNL     1      -0.031  -0.603   1.233  0.00  0.00    +0.029 A 
ENDBRANCH  13  16
ENDBRANCH   1  13
TORSDOF 4
