REMARK  Name = ZINC32095451
REMARK  8 active torsions:
REMARK  status: ('A' for Active; 'I' for Inactive)
REMARK    1  A    between atoms: C_1  and  C_2
REMARK    2  A    between atoms: C_10  and  O_13
REMARK    3  A    between atoms: O_13  and  C_14
REMARK    4  A    between atoms: C_19  and  C_21
REMARK    5  A    between atoms: C_25  and  O_27
REMARK    6  A    between atoms: O_27  and  C_28
REMARK    7  A    between atoms: C_28  and  C_29
REMARK    8  A    between atoms: C_28  and  C_30
REMARK                            x       y       z     vdW  Elec       q    Type
REMARK                         _______ _______ _______ _____ _____    ______ ____
ROOT
ATOM      1  C   UNL     1       0.571   1.173  -0.276  0.00  0.00    +0.068 C 
ATOM      2  C   UNL     1       0.568  -0.328  -0.414  0.00  0.00    +0.066 A 
ATOM      3  C   UNL     1       0.383  -1.035  -1.593  0.00  0.00    +0.023 A 
ATOM      4  C   UNL     1       0.453  -2.372  -1.301  0.00  0.00    +0.134 A 
ATOM      5  N   UNL     1       0.666  -2.487   0.027  0.00  0.00    -0.198 N 
ATOM      6  N   UNL     1       0.744  -1.190   0.560  0.00  0.00    -0.168 NA
ATOM      7  C   UNL     1       0.791  -3.683   0.742  0.00  0.00    +0.178 A 
ATOM      8  C   UNL     1       1.494  -3.708   1.946  0.00  0.00    +0.055 A 
ATOM      9  C   UNL     1       1.591  -4.915   2.618  0.00  0.00    +0.072 A 
ATOM     10  C   UNL     1       0.979  -6.030   2.049  0.00  0.00    +0.234 A 
ATOM     11  N   UNL     1       0.332  -5.912   0.901  0.00  0.00    -0.110 NA
ATOM     12  N   UNL     1       0.238  -4.793   0.281  0.00  0.00    -0.126 NA
ATOM     13  N   UNL     1       0.326  -3.350  -2.285  0.00  0.00    -0.270 N 
ATOM     14  C   UNL     1       0.332  -2.956  -3.577  0.00  0.00    +0.219 C 
ATOM     15  O   UNL     1       0.035  -3.758  -4.437  0.00  0.00    -0.275 OA
ATOM     16  C   UNL     1       0.695  -1.556  -3.982  0.00  0.00    +0.109 C 
ATOM     17  C   UNL     1       0.138  -0.528  -2.992  0.00  0.00    +0.063 C 
ATOM     18  H   UNL     1       0.235  -4.286  -2.050  0.00  0.00    +0.156 HD
ENDROOT
BRANCH  17  19
ATOM     19  C   UNL     1       0.839   0.793  -3.183  0.00  0.00    -0.036 A 
ATOM     20  C   UNL     1       2.212   0.873  -3.042  0.00  0.00    +0.004 A 
ATOM     21  C   UNL     1       2.857   2.083  -3.217  0.00  0.00    +0.004 A 
ATOM     22  C   UNL     1       2.131   3.216  -3.532  0.00  0.00    +0.045 A 
ATOM     23  C   UNL     1       0.753   3.138  -3.673  0.00  0.00    +0.121 A 
ATOM     24  C   UNL     1       0.109   1.921  -3.503  0.00  0.00    +0.050 A 
BRANCH  23  25
ATOM     25  O   UNL     1       0.037   4.250  -3.983  0.00  0.00    -0.489 OA
BRANCH  25  26
ATOM     26  C   UNL     1       0.750   5.488  -4.033  0.00  0.00    +0.167 C 
ATOM     27  C   UNL     1       1.386   5.655  -5.414  0.00  0.00    +0.051 C 
ATOM     28  C   UNL     1      -0.218   6.644  -3.774  0.00  0.00    +0.051 C 
ENDBRANCH  25  26
ENDBRANCH  23  25
ENDBRANCH  17  19
BRANCH  10  29
ATOM     29  O   UNL     1       1.048  -7.235   2.670  0.00  0.00    -0.479 OA
ATOM     30  C   UNL     1       0.398  -8.334   2.029  0.00  0.00    +0.279 C 
ENDBRANCH  10  29
TORSDOF 4
