REMARK  Name = ZINC13270840
REMARK  10 active torsions:
REMARK  status: ('A' for Active; 'I' for Inactive)
REMARK    1  A    between atoms: C_1  and  C_2
REMARK    2  A    between atoms: C_3  and  C_28
REMARK    3  A    between atoms: C_4  and  C_27
REMARK    4  A    between atoms: C_9  and  S_11
REMARK    5  A    between atoms: S_11  and  C_12
REMARK    6  A    between atoms: C_12  and  C_14
REMARK    7  A    between atoms: C_12  and  C_15
REMARK    8  A    between atoms: N_17  and  C_18
REMARK    9  A    between atoms: C_28  and  C_29
REMARK   10  A    between atoms: C_29  and  C_30
REMARK                            x       y       z     vdW  Elec       q    Type
REMARK                         _______ _______ _______ _____ _____    ______ ____
ROOT
ATOM      1  C   UNL     1      12.232   6.940   1.095  0.00  0.00    +0.066 C 
ATOM      2  C   UNL     1      11.686   5.543   1.248  0.00  0.00    +0.047 A 
ATOM      3  C   UNL     1      12.503   4.528   1.758  0.00  0.00    -0.005 A 
ATOM      4  C   UNL     1      11.998   3.273   1.889  0.00  0.00    +0.048 A 
ATOM      5  N   UNL     1      10.711   3.038   1.521  0.00  0.00    -0.200 N 
ATOM      6  C   UNL     1       9.940   4.052   1.026  0.00  0.00    +0.254 A 
ATOM      7  N   UNL     1      10.445   5.285   0.900  0.00  0.00    -0.216 NA
ATOM      8  N   UNL     1       8.744   3.543   0.753  0.00  0.00    -0.183 NA
ATOM      9  C   UNL     1       8.728   2.246   1.055  0.00  0.00    +0.212 A 
ATOM     10  N   UNL     1       9.904   1.893   1.532  0.00  0.00    -0.137 NA
ATOM     11  C   UNL     1      12.852   2.159   2.436  0.00  0.00    +0.066 C 
ENDROOT
BRANCH   9  12
ATOM     12  S   UNL     1       7.346   1.172   0.856  0.00  0.00    -0.072 S 
BRANCH  12  13
ATOM     13  C   UNL     1       6.051   2.244   0.175  0.00  0.00    +0.137 C 
ATOM     14  C   UNL     1       6.469   2.730  -1.214  0.00  0.00    +0.029 C 
BRANCH  13  15
ATOM     15  C   UNL     1       4.762   1.470   0.069  0.00  0.00    +0.230 C 
ATOM     16  O   UNL     1       4.782   0.257   0.062  0.00  0.00    -0.274 OA
ATOM     17  N   UNL     1       3.587   2.125  -0.019  0.00  0.00    -0.285 N 
ATOM     18  H   UNL     1       3.576   3.092  -0.091  0.00  0.00    +0.155 HD
BRANCH  17  19
ATOM     19  C   UNL     1       2.385   1.410  -0.006  0.00  0.00    +0.034 A 
ATOM     20  C   UNL     1       2.276   0.242   0.737  0.00  0.00    +0.023 A 
ATOM     21  C   UNL     1       1.088  -0.459   0.746  0.00  0.00    +0.006 A 
ATOM     22  C   UNL     1       0.002  -0.003   0.017  0.00  0.00    -0.044 A 
ATOM     23  C   UNL     1       0.106   1.159  -0.725  0.00  0.00    -0.042 A 
ATOM     24  C   UNL     1       1.297   1.865  -0.737  0.00  0.00    +0.027 A 
ATOM     25  C   UNL     1      -1.204   1.437  -1.429  0.00  0.00    +0.036 C 
ATOM     26  C   UNL     1      -1.979   0.105  -1.384  0.00  0.00    +0.009 C 
ATOM     27  C   UNL     1      -1.389  -0.582  -0.134  0.00  0.00    +0.036 C 
ENDBRANCH  17  19
ENDBRANCH  13  15
ENDBRANCH  12  13
ENDBRANCH   9  12
BRANCH   3  28
ATOM     28  C   UNL     1      13.926   4.822   2.156  0.00  0.00    +0.050 C 
BRANCH  28  29
ATOM     29  C   UNL     1      13.968   5.239   3.628  0.00  0.00    +0.130 C 
BRANCH  29  30
ATOM     30  C   UNL     1      15.391   5.534   4.026  0.00  0.00    +0.356 C 
ATOM     31  O   UNL     1      16.281   5.421   3.216  0.00  0.00    -0.246 OA
ATOM     32  O   UNL     1      15.670   5.921   5.281  0.00  0.00    -0.246 OA
ENDBRANCH  29  30
ENDBRANCH  28  29
ENDBRANCH   3  28
TORSDOF 7
