REMARK  Name = ZINC12832864
REMARK  11 active torsions:
REMARK  status: ('A' for Active; 'I' for Inactive)
REMARK    1  A    between atoms: C_1  and  C_2
REMARK    2  A    between atoms: C_12  and  C_14
REMARK    3  A    between atoms: C_14  and  N_62
REMARK    4  A    between atoms: C_15  and  C_16
REMARK    5  A    between atoms: C_15  and  N_62
REMARK    6  A    between atoms: C_25  and  C_26
REMARK    7  A    between atoms: C_25  and  N_62
REMARK    8  A    between atoms: N_30  and  C_31
REMARK    9  A    between atoms: C_31  and  C_32
REMARK   10  A    between atoms: C_31  and  C_33
REMARK   11  A    between atoms: C_31  and  C_34
REMARK                            x       y       z     vdW  Elec       q    Type
REMARK                         _______ _______ _______ _____ _____    ______ ____
ROOT
ATOM      1  N   UNL     1      -2.793   4.344  -1.517  0.00  0.00    +0.390 N 
ATOM      2  H   UNL     1      -2.090   4.775  -2.129  0.00  0.00    -0.080 HD
ENDROOT
BRANCH   1   3
ATOM      3  C   UNL     1      -2.280   4.335  -0.130  0.00  0.00    -0.036 C 
BRANCH   3  15
ATOM      4  C   UNL     1       2.963   0.373   0.002  0.00  0.00    +0.046 C 
ATOM      5  C   UNL     1       2.851   1.873  -0.096  0.00  0.00    -0.026 A 
ATOM      6  C   UNL     1       3.988   2.648  -0.178  0.00  0.00    +0.005 A 
ATOM      7  C   UNL     1       3.898   4.030  -0.270  0.00  0.00    +0.001 A 
ATOM      8  C   UNL     1       2.680   4.648  -0.281  0.00  0.00    +0.010 A 
ATOM      9  C   UNL     1       1.513   3.882  -0.198  0.00  0.00    -0.001 A 
ATOM     10  C   UNL     1       1.600   2.480  -0.105  0.00  0.00    +0.052 A 
ATOM     11  N   UNL     1       0.446   1.729  -0.025  0.00  0.00    -0.322 N 
ATOM     12  H   UNL     1       0.508   0.763   0.039  0.00  0.00    +0.169 HD
ATOM     13  C   UNL     1      -0.763   2.317  -0.039  0.00  0.00    +0.251 A 
ATOM     14  O   UNL     1      -1.762   1.621   0.029  0.00  0.00    -0.268 OA
ATOM     15  C   UNL     1      -0.905   3.718  -0.125  0.00  0.00    +0.001 A 
ATOM     16  C   UNL     1       0.191   4.512  -0.207  0.00  0.00    +0.017 A 
ENDBRANCH   3  15
ENDBRANCH   1   3
BRANCH   1  17
ATOM     17  C   UNL     1      -4.041   5.132  -1.589  0.00  0.00    -0.042 C 
BRANCH  17  18
ATOM     18  C   UNL     1      -3.688   6.597  -1.578  0.00  0.00    -0.060 A 
ATOM     19  C   UNL     1      -3.544   7.263  -0.375  0.00  0.00    +0.005 A 
ATOM     20  C   UNL     1      -3.215   8.605  -0.359  0.00  0.00    +0.050 A 
ATOM     21  C   UNL     1      -3.041   9.290  -1.551  0.00  0.00    +0.166 A 
ATOM     22  C   UNL     1      -3.191   8.621  -2.763  0.00  0.00    +0.166 A 
ATOM     23  C   UNL     1      -3.515   7.274  -2.771  0.00  0.00    +0.051 A 
ATOM     24  O   UNL     1      -2.971   9.504  -3.780  0.00  0.00    -0.453 OA
ATOM     25  C   UNL     1      -3.086  10.811  -3.185  0.00  0.00    +0.466 C 
ATOM     26  O   UNL     1      -2.725  10.593  -1.808  0.00  0.00    -0.453 OA
ENDBRANCH  17  18
ENDBRANCH   1  17
BRANCH   1  27
ATOM     27  C   UNL     1      -3.042   2.960  -1.972  0.00  0.00    +0.001 C 
BRANCH  27  28
ATOM     28  C   UNL     1      -3.498   2.993  -3.409  0.00  0.00    +0.136 A 
ATOM     29  N   UNL     1      -4.725   3.162  -3.837  0.00  0.00    -0.115 NA
ATOM     30  N   UNL     1      -4.705   3.131  -5.124  0.00  0.00    -0.023 NA
ATOM     31  N   UNL     1      -3.498   2.941  -5.529  0.00  0.00    -0.043 NA
ATOM     32  N   UNL     1      -2.724   2.850  -4.501  0.00  0.00    -0.226 N 
BRANCH  32  33
ATOM     33  C   UNL     1      -1.276   2.632  -4.518  0.00  0.00    +0.059 C 
ATOM     34  C   UNL     1      -0.958   1.266  -3.909  0.00  0.00    +0.036 C 
ATOM     35  C   UNL     1      -0.771   2.677  -5.962  0.00  0.00    +0.036 C 
ATOM     36  C   UNL     1      -0.585   3.728  -3.703  0.00  0.00    +0.036 C 
ENDBRANCH  32  33
ENDBRANCH  27  28
ENDBRANCH   1  27
TORSDOF 7
