REMARK  Name = ZINC39843303
REMARK  6 active torsions:
REMARK  status: ('A' for Active; 'I' for Inactive)
REMARK    1  A    between atoms: C_6  and  C_7
REMARK    2  A    between atoms: C_7  and  C_9
REMARK    3  A    between atoms: C_9  and  C_10
REMARK    4  A    between atoms: N_16  and  C_17
REMARK    5  A    between atoms: C_20  and  S_23
REMARK    6  A    between atoms: S_23  and  N_26
REMARK                            x       y       z     vdW  Elec       q    Type
REMARK                         _______ _______ _______ _____ _____    ______ ____
ROOT
ATOM      1  C   UNL     1      -2.669  -2.801   0.013  0.00  0.00    +0.147 C 
ATOM      2  C   UNL     1      -2.692  -4.321  -0.023  0.00  0.00    +0.232 C 
ATOM      3  O   UNL     1      -2.238  -4.949  -0.956  0.00  0.00    -0.274 OA
ATOM      4  N   UNL     1      -3.236  -4.914   1.025  0.00  0.00    -0.264 N 
ATOM      5  C   UNL     1      -3.754  -4.206   2.090  0.00  0.00    +0.161 C 
ATOM      6  N   UNL     1      -4.316  -4.676   3.179  0.00  0.00    -0.226 NA
ATOM      7  S   UNL     1      -3.480  -2.498   1.638  0.00  0.00    -0.077 S 
ATOM      8  H   UNL     1      -3.274  -5.883   1.046  0.00  0.00    +0.157 HD
ENDROOT
BRANCH   6   9
ATOM      9  C   UNL     1      -4.442  -6.029   3.355  0.00  0.00    +0.067 A 
ATOM     10  C   UNL     1      -4.887  -6.834   2.305  0.00  0.00    +0.030 A 
ATOM     11  C   UNL     1      -5.011  -8.196   2.489  0.00  0.00    +0.030 A 
ATOM     12  C   UNL     1      -4.697  -8.763   3.711  0.00  0.00    +0.105 A 
ATOM     13  C   UNL     1      -4.255  -7.971   4.756  0.00  0.00    +0.030 A 
ATOM     14  C   UNL     1      -4.121  -6.609   4.584  0.00  0.00    +0.030 A 
BRANCH  12  15
ATOM     15  S   UNL     1      -4.860 -10.503   3.938  0.00  0.00    +0.056 S 
ATOM     16  O   UNL     1      -5.025 -10.717   5.333  0.00  0.00    -0.153 OA
ATOM     17  O   UNL     1      -5.810 -10.950   2.981  0.00  0.00    -0.153 OA
BRANCH  15  18
ATOM     18  N   UNL     1      -3.411 -11.189   3.523  0.00  0.00    -0.204 NA
ATOM     19  H   UNL     1      -2.677 -10.629   3.223  0.00  0.00    +0.144 HD
ATOM     20  H   UNL     1      -3.295 -12.150   3.580  0.00  0.00    +0.144 HD
ENDBRANCH  15  18
ENDBRANCH  12  15
ENDBRANCH   6   9
BRANCH   1  21
ATOM     21  C   UNL     1      -1.235  -2.267   0.002  0.00  0.00    +0.103 C 
BRANCH  21  22
ATOM     22  C   UNL     1      -1.260  -0.760   0.011  0.00  0.00    +0.165 C 
ATOM     23  O   UNL     1      -2.320  -0.171   0.024  0.00  0.00    -0.292 OA
BRANCH  22  29
ATOM     24  C   UNL     1      -0.017   1.395   0.010  0.00  0.00    +0.012 A 
ATOM     25  C   UNL     1       1.169   2.097   0.002  0.00  0.00    +0.016 A 
ATOM     26  C   UNL     1       2.378   1.420  -0.013  0.00  0.00    +0.018 A 
ATOM     27  C   UNL     1       2.405   0.035  -0.021  0.00  0.00    +0.016 A 
ATOM     28  C   UNL     1       1.227  -0.680  -0.014  0.00  0.00    +0.012 A 
ATOM     29  C   UNL     1       0.002  -0.004   0.002  0.00  0.00    +0.018 A 
ATOM     30 BR   UNL     1       4.000   2.393  -0.025  0.00  0.00    -0.050 Br
ENDBRANCH  22  29
ENDBRANCH  21  22
ENDBRANCH   1  21
TORSDOF 6
