REMARK  Name = ZINC39237775
REMARK  5 active torsions:
REMARK  status: ('A' for Active; 'I' for Inactive)
REMARK    1  A    between atoms: C_6  and  C_7
REMARK    2  A    between atoms: C_11  and  C_13
REMARK    3  A    between atoms: N_14  and  N_15
REMARK    4  A    between atoms: C_16  and  C_23
REMARK    5  A    between atoms: C_20  and  S_22
REMARK                            x       y       z     vdW  Elec       q    Type
REMARK                         _______ _______ _______ _____ _____    ______ ____
ROOT
ATOM      1  C   UNL     1      -0.799  -2.875   1.234  0.00  0.00    +0.118 C 
ATOM      2  N   UNL     1       0.150  -3.725   1.117  0.00  0.00    -0.192 NA
ENDROOT
BRANCH   2   3
ATOM      3  N   UNL     1       0.730  -4.290   2.261  0.00  0.00    -0.203 N 
ATOM      4  C   UNL     1       1.828  -5.272   2.300  0.00  0.00    +0.261 C 
ATOM      5  N   UNL     1       2.086  -5.560   3.730  0.00  0.00    -0.227 NA
ATOM      6  N   UNL     1       1.579  -4.375   4.439  0.00  0.00    -0.225 NA
ATOM      7  C   UNL     1       0.366  -4.012   3.666  0.00  0.00    +0.231 C 
ATOM      8  H   UNL     1       1.598  -6.393   4.024  0.00  0.00    +0.143 HD
ATOM      9  H   UNL     1       2.254  -3.625   4.418  0.00  0.00    +0.143 HD
BRANCH   4  10
ATOM     10  C   UNL     1       1.412  -6.552   1.573  0.00  0.00    +0.356 C 
ATOM     11  F   UNL     1       2.462  -7.475   1.617  0.00  0.00    -0.184 F 
ATOM     12  F   UNL     1       0.285  -7.097   2.196  0.00  0.00    -0.184 F 
ATOM     13 CL   UNL     1       1.023  -6.167  -0.145  0.00  0.00    -0.044 Cl
ENDBRANCH   4  10
BRANCH   7  14
ATOM     14  S   UNL     1      -1.036  -5.045   4.173  0.00  0.00    -0.138 S 
ATOM     15  H   UNL     1      -1.255  -4.691   5.452  0.00  0.00    +0.105 HD
ENDBRANCH   7  14
ENDBRANCH   2   3
BRANCH   1  20
ATOM     16  C   UNL     1      -1.260  -0.760   0.011  0.00  0.00    +0.084 C 
ATOM     17  N   UNL     1      -2.470  -0.273   0.019  0.00  0.00    -0.153 NA
ATOM     18  N   UNL     1      -3.439  -1.271   0.026  0.00  0.00    -0.161 NA
ATOM     19  C   UNL     1      -2.926  -2.458   0.021  0.00  0.00    +0.123 C 
ATOM     20  C   UNL     1      -1.423  -2.268   0.004  0.00  0.00    +0.125 C 
BRANCH  16  26
ATOM     21  C   UNL     1      -0.017   1.395   0.010  0.00  0.00    +0.011 A 
ATOM     22  C   UNL     1       1.169   2.096   0.002  0.00  0.00    +0.016 A 
ATOM     23  C   UNL     1       2.378   1.420  -0.013  0.00  0.00    +0.018 A 
ATOM     24  C   UNL     1       2.405   0.035  -0.021  0.00  0.00    +0.016 A 
ATOM     25  C   UNL     1       1.226  -0.680  -0.013  0.00  0.00    +0.011 A 
ATOM     26  C   UNL     1       0.002  -0.004   0.002  0.00  0.00    -0.001 A 
ATOM     27 BR   UNL     1       4.000   2.393  -0.024  0.00  0.00    -0.050 Br
ENDBRANCH  16  26
ENDBRANCH   1  20
TORSDOF 5
