REMARK  Name = ZINC03275288
REMARK  6 active torsions:
REMARK  status: ('A' for Active; 'I' for Inactive)
REMARK    1  A    between atoms: C_1  and  C_2
REMARK    2  A    between atoms: C_3  and  N_9
REMARK    3  A    between atoms: C_10  and  C_12
REMARK    4  A    between atoms: C_12  and  S_13
REMARK    5  A    between atoms: S_13  and  C_14
REMARK    6  A    between atoms: N_18  and  C_19
REMARK                            x       y       z     vdW  Elec       q    Type
REMARK                         _______ _______ _______ _____ _____    ______ ____
ROOT
ATOM      1  N   UNL     1       3.325  -2.232  -0.040  0.00  0.00    -0.285 N 
ATOM      2  C   UNL     1       2.057  -1.777  -0.023  0.00  0.00    +0.227 C 
ATOM      3  O   UNL     1       1.131  -2.560  -0.025  0.00  0.00    -0.275 OA
ATOM      4  H   UNL     1       4.064  -1.608  -0.119  0.00  0.00    +0.155 HD
ENDROOT
BRANCH   1   7
ATOM      5  C   UNL     1       5.755  -3.233  -1.132  0.00  0.00    +0.047 C 
ATOM      6  C   UNL     1       4.750  -4.136  -0.464  0.00  0.00    -0.011 A 
ATOM      7  C   UNL     1       3.577  -3.606   0.056  0.00  0.00    +0.038 A 
ATOM      8  C   UNL     1       2.651  -4.441   0.666  0.00  0.00    +0.023 A 
ATOM      9  C   UNL     1       2.901  -5.797   0.759  0.00  0.00    +0.003 A 
ATOM     10  C   UNL     1       4.072  -6.322   0.246  0.00  0.00    +0.020 A 
ATOM     11  C   UNL     1       4.998  -5.492  -0.362  0.00  0.00    +0.046 A 
ATOM     12 CL   UNL     1       6.468  -6.155  -1.005  0.00  0.00    -0.083 Cl
ENDBRANCH   1   7
BRANCH   2  13
ATOM     13  C   UNL     1       1.789  -0.294  -0.001  0.00  0.00    +0.173 C 
BRANCH  13  14
ATOM     14  S   UNL     1       0.003  -0.004   0.019  0.00  0.00    -0.075 S 
BRANCH  14  15
ATOM     15  C   UNL     1      -0.021   1.758   0.043  0.00  0.00    +0.210 A 
ATOM     16  N   UNL     1       1.027   2.554   0.044  0.00  0.00    -0.102 NA
ATOM     17  N   UNL     1       0.658   3.784   0.064  0.00  0.00    -0.022 NA
ATOM     18  N   UNL     1      -0.629   3.865   0.076  0.00  0.00    -0.043 NA
ATOM     19  N   UNL     1      -1.120   2.548   0.057  0.00  0.00    -0.223 N 
ATOM     20  C   UNL     1      -2.522   2.122   0.056  0.00  0.00    +0.177 C 
ENDBRANCH  14  15
ENDBRANCH  13  14
ENDBRANCH   2  13
TORSDOF 4
