REMARK  Name = ZINC14458303
REMARK  3 active torsions:
REMARK  status: ('A' for Active; 'I' for Inactive)
REMARK    1  A    between atoms: C_1  and  C_2
REMARK    2  A    between atoms: C_5  and  C_8
REMARK    3  A    between atoms: C_19  and  C_24
REMARK                            x       y       z     vdW  Elec       q    Type
REMARK                         _______ _______ _______ _____ _____    ______ ____
ROOT
ATOM      1  C   UNL     1      -0.696   2.072   1.261  0.00  0.00    +0.105 C 
ATOM      2  C   UNL     1      -0.019   1.543   0.011  0.00  0.00    +0.029 C 
ATOM      3  C   UNL     1       0.002  -0.004   0.002  0.00  0.00    +0.033 C 
ATOM      4  C   UNL     1       1.235  -0.322  -0.825  0.00  0.00    -0.030 C 
ATOM      5  C   UNL     1       2.058   0.697  -0.831  0.00  0.00    -0.023 C 
ATOM      6  C   UNL     1       1.491   1.843  -0.002  0.00  0.00    +0.049 C 
ATOM      7  C   UNL     1       2.104   1.754   1.370  0.00  0.00    -0.019 A 
ATOM      8  C   UNL     1       3.482   1.836   1.470  0.00  0.00    +0.019 A 
ATOM      9  C   UNL     1       4.104   1.757   2.717  0.00  0.00    +0.037 A 
ATOM     10  C   UNL     1       3.334   1.593   3.872  0.00  0.00    +0.015 A 
ATOM     11  C   UNL     1       1.965   1.512   3.770  0.00  0.00    +0.024 A 
ATOM     12  C   UNL     1       1.349   1.593   2.522  0.00  0.00    +0.031 A 
ATOM     13  N   UNL     1      -0.040   1.513   2.448  0.00  0.00    -0.336 N 
ATOM     14  H   UNL     1      -0.556   1.100   3.158  0.00  0.00    +0.147 HD
ENDROOT
BRANCH   1  19
ATOM     15  C   UNL     1      -0.297   7.835   1.374  0.00  0.00    +0.044 C 
ATOM     16  C   UNL     1      -0.402   6.332   1.345  0.00  0.00    -0.050 A 
ATOM     17  C   UNL     1      -1.572   5.729   0.925  0.00  0.00    +0.004 A 
ATOM     18  C   UNL     1      -1.667   4.350   0.898  0.00  0.00    +0.006 A 
ATOM     19  C   UNL     1      -0.592   3.575   1.291  0.00  0.00    -0.027 A 
ATOM     20  C   UNL     1       0.577   4.179   1.716  0.00  0.00    +0.006 A 
ATOM     21  C   UNL     1       0.673   5.557   1.739  0.00  0.00    +0.004 A 
ENDBRANCH   1  19
BRANCH   9  22
ATOM     22  C   UNL     1       5.573   1.847   2.815  0.00  0.00    +0.242 C 
ATOM     23  O   UNL     1       6.242   1.990   1.810  0.00  0.00    -0.270 OA
ATOM     24  N   UNL     1       6.173   1.772   4.019  0.00  0.00    -0.325 N 
ATOM     25  H   UNL     1       5.640   1.658   4.821  0.00  0.00    +0.145 HD
ATOM     26  H   UNL     1       7.139   1.831   4.084  0.00  0.00    +0.145 HD
ENDBRANCH   9  22
TORSDOF 2
