REMARK  Name = ZINC40902792
REMARK  6 active torsions:
REMARK  status: ('A' for Active; 'I' for Inactive)
REMARK    1  A    between atoms: C_3  and  C_10
REMARK    2  A    between atoms: C_5  and  N_7
REMARK    3  A    between atoms: N_11  and  N_12
REMARK    4  A    between atoms: C_13  and  C_15
REMARK    5  A    between atoms: C_15  and  O_16
REMARK    6  A    between atoms: O_16  and  C_17
REMARK                            x       y       z     vdW  Elec       q    Type
REMARK                         _______ _______ _______ _____ _____    ______ ____
ROOT
ATOM      1  N   UNL     1       4.846   4.169  -0.023  0.00  0.00    -0.204 N 
ATOM      2  C   UNL     1       4.832   5.517  -0.016  0.00  0.00    +0.270 C 
ATOM      3  O   UNL     1       3.775   6.112  -0.003  0.00  0.00    -0.270 OA
ATOM      4  H   UNL     1       5.691   3.693  -0.034  0.00  0.00    +0.177 HD
ENDROOT
BRANCH   1   6
ATOM      5  C   UNL     1       3.655   2.158  -0.022  0.00  0.00    +0.138 C 
ATOM      6  N   UNL     1       3.641   3.455  -0.015  0.00  0.00    -0.188 NA
BRANCH   5   9
ATOM      7  C   UNL     1      -0.017   1.379   0.010  0.00  0.00    +0.003 A 
ATOM      8  C   UNL     1       1.167   2.088   0.002  0.00  0.00    +0.009 A 
ATOM      9  C   UNL     1       2.385   1.407  -0.013  0.00  0.00    -0.003 A 
ATOM     10  C   UNL     1       2.397   0.010  -0.021  0.00  0.00    +0.042 A 
ATOM     11  C   UNL     1       1.206  -0.686  -0.013  0.00  0.00    +0.127 A 
ATOM     12  C   UNL     1       0.002  -0.004   0.002  0.00  0.00    +0.033 A 
BRANCH  11  13
ATOM     13  N   UNL     1       1.216  -2.166  -0.021  0.00  0.00    +0.056 N 
ATOM     14  O   UNL     1       2.267  -2.764  -0.035  0.00  0.00    -0.126 OA
ATOM     15  O   UNL     1       0.173  -2.778  -0.015  0.00  0.00    -0.126 OA
ENDBRANCH  11  13
ENDBRANCH   5   9
ENDBRANCH   1   6
BRANCH   2  16
ATOM     16  C   UNL     1       6.128   6.284  -0.025  0.00  0.00    +0.326 C 
BRANCH  16  17
ATOM     17  O   UNL     1       5.852   7.686  -0.015  0.00  0.00    -0.481 OA
BRANCH  17  18
ATOM     18  C   UNL     1       6.921   8.526  -0.021  0.00  0.00    +0.141 A 
ATOM     19  C   UNL     1       8.209   8.011  -0.042  0.00  0.00    +0.067 A 
ATOM     20  C   UNL     1       9.294   8.867  -0.049  0.00  0.00    +0.045 A 
ATOM     21  C   UNL     1       9.097  10.237  -0.035  0.00  0.00    +0.021 A 
ATOM     22  C   UNL     1       7.814  10.752  -0.014  0.00  0.00    +0.025 A 
ATOM     23  C   UNL     1       6.726   9.900  -0.013  0.00  0.00    +0.083 A 
ATOM     24 CL   UNL     1       5.115  10.548   0.007  0.00  0.00    -0.080 Cl
ATOM     25 CL   UNL     1      10.906   8.223  -0.075  0.00  0.00    -0.083 Cl
ENDBRANCH  17  18
ENDBRANCH  16  17
ENDBRANCH   2  16
TORSDOF 6
