REMARK  Name = ZINC44865514
REMARK  11 active torsions:
REMARK  status: ('A' for Active; 'I' for Inactive)
REMARK    1  A    between atoms: C_1  and  C_2
REMARK    2  A    between atoms: C_15  and  O_37
REMARK    3  A    between atoms: C_18  and  C_36
REMARK    4  A    between atoms: C_23  and  C_24
REMARK    5  A    between atoms: C_23  and  O_35
REMARK    6  A    between atoms: C_24  and  C_26
REMARK    7  A    between atoms: C_26  and  O_27
REMARK    8  A    between atoms: O_27  and  C_28
REMARK    9  A    between atoms: C_28  and  C_30
REMARK   10  A    between atoms: C_30  and  C_31
REMARK   11  A    between atoms: C_31  and  C_32
REMARK                            x       y       z     vdW  Elec       q    Type
REMARK                         _______ _______ _______ _____ _____    ______ ____
ROOT
ATOM      1  C   UNL     1       0.281   1.400  -0.124  0.00  0.00    +0.016 C 
ATOM      2  C   UNL     1       0.197  -0.127  -0.068  0.00  0.00    -0.005 C 
ATOM      3  C   UNL     1       0.906  -0.722  -1.287  0.00  0.00    +0.019 C 
ATOM      4  C   UNL     1       2.379  -0.298  -1.261  0.00  0.00    +0.080 C 
ATOM      5  C   UNL     1       2.993  -0.746   0.042  0.00  0.00    +0.156 C 
ATOM      6  O   UNL     1       4.182  -0.981   0.103  0.00  0.00    -0.293 OA
ATOM      7  C   UNL     1       2.156  -0.898   1.230  0.00  0.00    +0.046 C 
ATOM      8  C   UNL     1       0.857  -0.620   1.192  0.00  0.00    -0.060 C 
ATOM      9  C   UNL     1      -0.004  -0.800   2.417  0.00  0.00    +0.032 C 
ATOM     10  C   UNL     1      -1.098  -1.814   2.122  0.00  0.00    +0.008 C 
ATOM     11  C   UNL     1      -1.450  -1.889   0.639  0.00  0.00    -0.001 C 
ATOM     12  C   UNL     1      -1.275  -0.559  -0.072  0.00  0.00    +0.031 C 
ATOM     13  C   UNL     1      -1.695  -0.699  -1.543  0.00  0.00    +0.119 C 
ATOM     14  C   UNL     1      -3.172  -1.079  -1.604  0.00  0.00    +0.041 C 
ATOM     15  C   UNL     1      -3.408  -2.398  -0.906  0.00  0.00    +0.009 C 
ATOM     16  C   UNL     1      -2.889  -2.412   0.539  0.00  0.00    +0.002 C 
ATOM     17  C   UNL     1      -2.825  -3.928   0.871  0.00  0.00    +0.008 C 
ATOM     18  C   UNL     1      -2.644  -4.655  -0.475  0.00  0.00    +0.043 C 
ATOM     19  C   UNL     1      -2.654  -3.564  -1.571  0.00  0.00    +0.133 C 
ATOM     20  C   UNL     1      -4.907  -2.704  -0.895  0.00  0.00    +0.015 C 
ENDROOT
BRANCH  19  21
ATOM     21  C   UNL     1      -3.393  -4.046  -2.793  0.00  0.00    +0.202 C 
ATOM     22  O   UNL     1      -4.224  -4.917  -2.692  0.00  0.00    -0.291 OA
BRANCH  21  23
ATOM     23  C   UNL     1      -3.096  -3.441  -4.141  0.00  0.00    +0.309 C 
BRANCH  23  24
ATOM     24  O   UNL     1      -3.918  -4.059  -5.132  0.00  0.00    -0.457 OA
BRANCH  24  25
ATOM     25  C   UNL     1      -3.775  -3.630  -6.396  0.00  0.00    +0.308 C 
ATOM     26  O   UNL     1      -2.978  -2.759  -6.652  0.00  0.00    -0.251 OA
BRANCH  25  27
ATOM     27  C   UNL     1      -4.608  -4.236  -7.496  0.00  0.00    +0.132 C 
BRANCH  27  28
ATOM     28  C   UNL     1      -4.252  -3.574  -8.829  0.00  0.00    +0.136 C 
BRANCH  28  29
ATOM     29  C   UNL     1      -5.086  -4.180  -9.929  0.00  0.00    +0.357 C 
ATOM     30  O   UNL     1      -5.890  -5.059  -9.671  0.00  0.00    -0.246 OA
ATOM     31  O   UNL     1      -4.956  -3.790 -11.077  0.00  0.00    -0.246 OA
ENDBRANCH  28  29
ENDBRANCH  27  28
ENDBRANCH  25  27
ENDBRANCH  24  25
ENDBRANCH  23  24
ENDBRANCH  21  23
ENDBRANCH  19  21
BRANCH  19  32
ATOM     32  O   UNL     1      -1.321  -3.176  -1.907  0.00  0.00    -0.380 OA
ATOM     33  H   UNL     1      -0.802  -3.875  -2.330  0.00  0.00    +0.211 HD
ENDBRANCH  19  32
BRANCH  13  34
ATOM     34  O   UNL     1      -1.490   0.543  -2.219  0.00  0.00    -0.391 OA
ATOM     35  H   UNL     1      -1.735   0.526  -3.155  0.00  0.00    +0.210 HD
ENDBRANCH  13  34
TORSDOF 9
