REMARK  Name = ZINC04631574
REMARK  7 active torsions:
REMARK  status: ('A' for Active; 'I' for Inactive)
REMARK    1  A    between atoms: C_1  and  C_2
REMARK    2  A    between atoms: C_2  and  C_3
REMARK    3  A    between atoms: C_11  and  C_23
REMARK    4  A    between atoms: C_13  and  C_19
REMARK    5  A    between atoms: C_13  and  C_21
REMARK    6  A    between atoms: C_14  and  N_18
REMARK    7  A    between atoms: C_15  and  C_16
REMARK                            x       y       z     vdW  Elec       q    Type
REMARK                         _______ _______ _______ _____ _____    ______ ____
ROOT
ATOM      1  C   UNL     1       2.301   1.308  -0.805  0.00  0.00    -0.007 C 
ATOM      2  C   UNL     1       1.267   2.106   0.001  0.00  0.00    +0.031 C 
ATOM      3  C   UNL     1      -0.016   1.314   0.009  0.00  0.00    -0.021 C 
ATOM      4  C   UNL     1       0.002  -0.004   0.002  0.00  0.00    -0.029 C 
ATOM      5  C   UNL     1       1.259  -0.822   0.039  0.00  0.00    +0.031 C 
ATOM      6  C   UNL     1       2.534  -0.027  -0.101  0.00  0.00    +0.012 C 
ATOM      7  C   UNL     1       1.146  -1.924  -1.016  0.00  0.00    +0.073 C 
ATOM      8  C   UNL     1      -0.018  -2.844  -0.648  0.00  0.00    +0.189 C 
ATOM      9  C   UNL     1      -1.270  -2.070  -0.365  0.00  0.00    +0.054 C 
ATOM     10  C   UNL     1      -1.282  -0.750  -0.049  0.00  0.00    +0.074 C 
ENDROOT
BRANCH   7  11
ATOM     11  C   UNL     1       2.425  -2.719  -1.058  0.00  0.00    -0.004 A 
ATOM     12  C   UNL     1       3.274  -2.917  -2.096  0.00  0.00    +0.011 A 
ATOM     13  C   UNL     1       4.403  -3.690  -1.901  0.00  0.00    +0.008 A 
ATOM     14  C   UNL     1       4.622  -4.237  -0.680  0.00  0.00    +0.045 A 
ATOM     15  S   UNL     1       3.211  -3.653   0.245  0.00  0.00    -0.101 S 
ENDBRANCH   7  11
BRANCH   9  16
ATOM     16  N   UNL     1      -2.465  -2.730  -0.429  0.00  0.00    -0.358 N 
ATOM     17  H   UNL     1      -3.403  -2.191  -0.227  0.00  0.00    +0.142 HD
ATOM     18  H   UNL     1      -2.490  -3.800  -0.682  0.00  0.00    +0.142 HD
ENDBRANCH   9  16
BRANCH   1  20
ATOM     19  C   UNL     1       1.659   2.392  -2.963  0.00  0.00    +0.004 C 
ATOM     20  C   UNL     1       1.772   1.060  -2.219  0.00  0.00    +0.000 C 
ENDBRANCH   1  20
BRANCH  10  21
ATOM     21  C   UNL     1      -2.519  -0.085   0.233  0.00  0.00    +0.101 C 
ATOM     22  N   UNL     1      -3.499   0.444   0.456  0.00  0.00    -0.191 NA
ENDBRANCH  10  21
BRANCH   8  23
ATOM     23  C   UNL     1       0.345  -3.622   0.548  0.00  0.00    +0.091 C 
ATOM     24  N   UNL     1       0.625  -4.223   1.470  0.00  0.00    -0.194 NA
ENDBRANCH   8  23
BRANCH   8  25
ATOM     25  C   UNL     1      -0.268  -3.770  -1.765  0.00  0.00    +0.091 C 
ATOM     26  N   UNL     1      -0.461  -4.484  -2.627  0.00  0.00    -0.194 NA
ENDBRANCH   8  25
TORSDOF 6
