REMARK  Name = ZINC08318817
REMARK  6 active torsions:
REMARK  status: ('A' for Active; 'I' for Inactive)
REMARK    1  A    between atoms: C_6  and  C_7
REMARK    2  A    between atoms: C_12  and  C_13
REMARK    3  A    between atoms: C_12  and  N_61
REMARK    4  A    between atoms: N_18  and  C_19
REMARK    5  A    between atoms: C_19  and  C_20
REMARK    6  A    between atoms: C_20  and  C_21
REMARK                            x       y       z     vdW  Elec       q    Type
REMARK                         _______ _______ _______ _____ _____    ______ ____
ROOT
ATOM      1  C   UNL     1      -4.816   0.821   0.029  0.00  0.00    +0.020 C 
ENDROOT
BRANCH   1   2
ATOM      2  C   UNL     1      -3.550   1.594  -0.236  0.00  0.00    +0.204 C 
ATOM      3  O   UNL     1      -3.599   2.791  -0.421  0.00  0.00    -0.277 OA
ATOM      4  N   UNL     1      -2.364   0.955  -0.269  0.00  0.00    -0.242 N 
ATOM      5  C   UNL     1      -1.232   1.647  -0.506  0.00  0.00    +0.306 C 
ATOM      6  O   UNL     1      -1.281   2.847  -0.692  0.00  0.00    -0.252 OA
ATOM      7  N   UNL     1      -0.046   1.007  -0.539  0.00  0.00    -0.299 N 
ATOM      8  H   UNL     1      -2.325  -0.003  -0.121  0.00  0.00    +0.159 HD
ATOM      9  H   UNL     1      -0.007   0.049  -0.391  0.00  0.00    +0.150 HD
BRANCH   7  10
ATOM     10  C   UNL     1       1.184   1.758  -0.803  0.00  0.00    +0.110 C 
BRANCH  10  11
ATOM     11  C   UNL     1       2.378   0.801  -0.791  0.00  0.00    +0.049 C 
BRANCH  11  12
ATOM     12  C   UNL     1       3.643   1.574  -1.063  0.00  0.00    -0.072 C 
ATOM     13  C   UNL     1       4.334   1.983  -0.049  0.00  0.00    -0.028 C 
ATOM     14  C   UNL     1       5.609   2.766  -0.161  0.00  0.00    +0.027 C 
ATOM     15  C   UNL     1       6.178   2.651  -1.577  0.00  0.00    +0.004 C 
ATOM     16  C   UNL     1       5.054   2.951  -2.576  0.00  0.00    +0.005 C 
ATOM     17  C   UNL     1       4.020   1.826  -2.494  0.00  0.00    +0.030 C 
ENDBRANCH  11  12
ENDBRANCH  10  11
ENDBRANCH   7  10
ENDBRANCH   1   2
BRANCH   1  22
ATOM     18  C   UNL     1      -7.221   1.024   0.349  0.00  0.00    -0.037 C 
ATOM     19  C   UNL     1      -8.151   2.092   0.978  0.00  0.00    -0.013 C 
ATOM     20  C   UNL     1      -7.198   2.872   1.913  0.00  0.00    -0.020 C 
ATOM     21  C   UNL     1      -5.786   2.609   1.358  0.00  0.00    -0.077 C 
ATOM     22  N   UNL     1      -5.966   1.764   0.172  0.00  0.00    +0.390 N 
ATOM     23  H   UNL     1      -6.026   2.351  -0.668  0.00  0.00    -0.080 HD
BRANCH  18  29
ATOM     24  C   UNL     1      -7.692   1.382  -2.082  0.00  0.00    +0.006 A 
ATOM     25  C   UNL     1      -8.188   0.956  -3.300  0.00  0.00    +0.049 A 
ATOM     26  C   UNL     1      -8.774  -0.296  -3.412  0.00  0.00    +0.162 A 
ATOM     27  C   UNL     1      -8.852  -1.125  -2.298  0.00  0.00    +0.162 A 
ATOM     28  C   UNL     1      -8.348  -0.693  -1.081  0.00  0.00    +0.051 A 
ATOM     29  C   UNL     1      -7.768   0.557  -0.976  0.00  0.00    -0.057 A 
ATOM     30  O   UNL     1      -9.414  -2.361  -2.388  0.00  0.00    -0.485 OA
ATOM     31  C   UNL     1     -10.241  -2.610  -3.530  0.00  0.00    +0.270 C 
ATOM     32  C   UNL     1      -9.505  -2.100  -4.777  0.00  0.00    +0.270 C 
ATOM     33  O   UNL     1      -9.268  -0.697  -4.615  0.00  0.00    -0.485 OA
ENDBRANCH  18  29
ENDBRANCH   1  22
TORSDOF 6
