REMARK  Name = ZINC17879358
REMARK  9 active torsions:
REMARK  status: ('A' for Active; 'I' for Inactive)
REMARK    1  A    between atoms: C_1  and  C_2
REMARK    2  A    between atoms: C_3  and  C_36
REMARK    3  A    between atoms: C_11  and  C_13
REMARK    4  A    between atoms: C_13  and  C_15
REMARK    5  A    between atoms: C_13  and  S_16
REMARK    6  A    between atoms: S_16  and  C_17
REMARK    7  A    between atoms: N_21  and  C_22
REMARK    8  A    between atoms: C_27  and  O_28
REMARK    9  A    between atoms: O_28  and  C_29
REMARK                            x       y       z     vdW  Elec       q    Type
REMARK                         _______ _______ _______ _____ _____    ______ ____
ROOT
ATOM      1  C   UNL     1      -5.251   3.855   0.857  0.00  0.00    +0.198 A 
ATOM      2  N   UNL     1      -5.346   5.103   0.466  0.00  0.00    -0.120 NA
ATOM      3  N   UNL     1      -6.659   5.532   0.702  0.00  0.00    -0.112 NA
ATOM      4  C   UNL     1      -7.324   4.534   1.230  0.00  0.00    +0.225 A 
ATOM      5  N   UNL     1      -6.473   3.467   1.335  0.00  0.00    -0.255 N 
ATOM      6  N   UNL     1      -8.660   4.553   1.610  0.00  0.00    -0.299 N 
ATOM      7  C   UNL     1      -9.411   3.480   0.947  0.00  0.00    +0.108 C 
ATOM      8  C   UNL     1     -10.839   3.440   1.497  0.00  0.00    +0.019 C 
ATOM      9  C   UNL     1     -11.515   4.791   1.248  0.00  0.00    +0.003 C 
ATOM     10  C   UNL     1     -10.687   5.897   1.907  0.00  0.00    +0.019 C 
ATOM     11  C   UNL     1      -9.264   5.865   1.345  0.00  0.00    +0.108 C 
ENDROOT
BRANCH   5  12
ATOM     12  C   UNL     1      -6.797   2.200   1.846  0.00  0.00    +0.093 A 
ATOM     13  C   UNL     1      -6.642   1.936   3.199  0.00  0.00    +0.030 A 
ATOM     14  C   UNL     1      -6.961   0.688   3.700  0.00  0.00    +0.002 A 
ATOM     15  C   UNL     1      -7.435  -0.299   2.855  0.00  0.00    +0.004 A 
ATOM     16  C   UNL     1      -7.591  -0.043   1.506  0.00  0.00    +0.048 A 
ATOM     17  C   UNL     1      -7.279   1.207   0.997  0.00  0.00    +0.144 A 
BRANCH  17  18
ATOM     18  O   UNL     1      -7.438   1.462  -0.329  0.00  0.00    -0.493 OA
ATOM     19  C   UNL     1      -7.936   0.396  -1.140  0.00  0.00    +0.277 C 
ENDBRANCH  17  18
ENDBRANCH   5  12
BRANCH   1  20
ATOM     20  S   UNL     1      -3.805   2.851   0.773  0.00  0.00    -0.075 S 
BRANCH  20  21
ATOM     21  C   UNL     1      -2.554   3.943   0.045  0.00  0.00    +0.117 C 
ATOM     22  C   UNL     1      -2.959   4.300  -1.387  0.00  0.00    +0.027 C 
BRANCH  21  33
ATOM     23  C   UNL     1       2.869   0.001  -0.023  0.00  0.00    +0.045 C 
ATOM     24  C   UNL     1       2.579   1.479  -0.014  0.00  0.00    -0.026 A 
ATOM     25  C   UNL     1       3.585   2.369  -0.018  0.00  0.00    -0.008 A 
ATOM     26  S   UNL     1       2.746   3.942  -0.003  0.00  0.00    -0.073 S 
ATOM     27  C   UNL     1       1.070   3.359   0.009  0.00  0.00    +0.116 A 
ATOM     28  C   UNL     1       1.210   1.959   0.001  0.00  0.00    +0.075 A 
ATOM     29  C   UNL     1      -0.015   1.215   0.009  0.00  0.00    +0.260 A 
ATOM     30  O   UNL     1       0.002  -0.004   0.002  0.00  0.00    -0.267 OA
ATOM     31  N   UNL     1      -1.183   1.883   0.018  0.00  0.00    -0.309 N 
ATOM     32  H   UNL     1      -2.015   1.384   0.019  0.00  0.00    +0.170 HD
ATOM     33  C   UNL     1      -1.221   3.240   0.029  0.00  0.00    +0.124 A 
ATOM     34  N   UNL     1      -0.122   3.947   0.023  0.00  0.00    -0.225 NA
ATOM     35  C   UNL     1       5.068   2.101  -0.033  0.00  0.00    +0.052 C 
ENDBRANCH  21  33
ENDBRANCH  20  21
ENDBRANCH   1  20
TORSDOF 5
