REMARK  Name = ZINC38745489
REMARK  3 active torsions:
REMARK  status: ('A' for Active; 'I' for Inactive)
REMARK    1  A    between atoms: C_4  and  C_7
REMARK    2  A    between atoms: C_9  and  C_13
REMARK    3  A    between atoms: C_17  and  C_22
REMARK                            x       y       z     vdW  Elec       q    Type
REMARK                         _______ _______ _______ _____ _____    ______ ____
ROOT
ATOM      1  C   UNL     1       5.763  -2.987  -1.332  0.00  0.00    +0.182 C 
ATOM      2  N   UNL     1       7.215  -3.310  -1.314  0.00  0.00    -0.265 N 
ATOM      3  N   UNL     1       7.528  -4.525  -0.782  0.00  0.00    -0.220 N 
ATOM      4  C   UNL     1       8.648  -5.141  -0.229  0.00  0.00    +0.182 A 
ATOM      5  N   UNL     1       8.319  -6.374   0.067  0.00  0.00    -0.127 NA
ATOM      6  N   UNL     1       7.087  -6.585  -0.236  0.00  0.00    -0.120 NA
ATOM      7  C   UNL     1       6.567  -5.501  -0.729  0.00  0.00    +0.211 A 
ATOM      8  S   UNL     1       5.101  -4.710  -1.366  0.00  0.00    -0.058 S 
ATOM      9  H   UNL     1       7.621  -3.201  -2.231  0.00  0.00    +0.168 HD
ENDROOT
BRANCH   4  10
ATOM     10  C   UNL     1       9.970  -4.516  -0.016  0.00  0.00    +0.024 A 
ATOM     11  C   UNL     1      10.303  -3.307  -0.638  0.00  0.00    +0.031 A 
ATOM     12  C   UNL     1      11.548  -2.759  -0.411  0.00  0.00    +0.111 A 
ATOM     13  N   UNL     1      12.418  -3.358   0.380  0.00  0.00    -0.263 NA
ATOM     14  C   UNL     1      12.144  -4.499   0.986  0.00  0.00    +0.111 A 
ATOM     15  C   UNL     1      10.922  -5.114   0.819  0.00  0.00    +0.031 A 
ENDBRANCH   4  10
BRANCH   1  18
ATOM     16  C   UNL     1       3.699  -0.689  -0.037  0.00  0.00    +0.091 C 
ATOM     17  C   UNL     1       3.832  -2.029  -0.051  0.00  0.00    +0.034 C 
ATOM     18  C   UNL     1       5.335  -2.245  -0.065  0.00  0.00    +0.185 C 
ATOM     19  N   UNL     1       5.871  -0.874  -0.056  0.00  0.00    -0.177 NA
ATOM     20  N   UNL     1       4.919  -0.090  -0.047  0.00  0.00    -0.154 NA
BRANCH  16  24
ATOM     21  C   UNL     1      -0.017   1.379   0.010  0.00  0.00    +0.000 A 
ATOM     22  C   UNL     1       1.169   2.092   0.002  0.00  0.00    +0.001 A 
ATOM     23  C   UNL     1       2.377   1.426  -0.013  0.00  0.00    +0.010 A 
ATOM     24  C   UNL     1       2.402   0.033  -0.021  0.00  0.00    +0.002 A 
ATOM     25  C   UNL     1       1.205  -0.680  -0.013  0.00  0.00    +0.010 A 
ATOM     26  C   UNL     1       0.002  -0.004   0.002  0.00  0.00    +0.001 A 
ENDBRANCH  16  24
ENDBRANCH   1  18
TORSDOF 3
