REMARK  Name = ZINC48978452
REMARK  7 active torsions:
REMARK  status: ('A' for Active; 'I' for Inactive)
REMARK    1  A    between atoms: C_1  and  C_2
REMARK    2  A    between atoms: C_3  and  C_12
REMARK    3  A    between atoms: C_4  and  S_8
REMARK    4  A    between atoms: C_5  and  C_7
REMARK    5  A    between atoms: S_8  and  N_11
REMARK    6  A    between atoms: N_14  and  C_15
REMARK    7  A    between atoms: C_15  and  C_16
REMARK                            x       y       z     vdW  Elec       q    Type
REMARK                         _______ _______ _______ _____ _____    ______ ____
ROOT
ATOM      1  C   UNL     1      -0.018   1.503   0.010  0.00  0.00    +0.087 C 
ATOM      2  C   UNL     1       0.002  -0.004   0.002  0.00  0.00    +0.116 A 
ATOM      3  C   UNL     1      -1.093  -0.817   0.003  0.00  0.00    +0.104 A 
ATOM      4  C   UNL     1      -0.567  -2.190  -0.008  0.00  0.00    +0.158 A 
ATOM      5  C   UNL     1       0.769  -2.073  -0.014  0.00  0.00    +0.129 A 
ATOM      6  O   UNL     1       1.097  -0.771  -0.013  0.00  0.00    -0.462 OA
ATOM      7  C   UNL     1       1.747  -3.220  -0.024  0.00  0.00    +0.088 C 
ENDROOT
BRANCH   3   8
ATOM      8  C   UNL     1      -2.508  -0.405   0.012  0.00  0.00    +0.249 C 
ATOM      9  O   UNL     1      -3.098  -0.229  -1.037  0.00  0.00    -0.270 OA
ATOM     10  N   UNL     1      -3.149  -0.223   1.184  0.00  0.00    -0.311 N 
ATOM     11  H   UNL     1      -2.679  -0.364   2.021  0.00  0.00    +0.149 HD
BRANCH  10  12
ATOM     12  C   UNL     1      -4.556   0.186   1.193  0.00  0.00    +0.110 C 
BRANCH  12  13
ATOM     13  C   UNL     1      -5.038   0.320   2.639  0.00  0.00    +0.034 C 
ATOM     14  C   UNL     1      -6.545   0.676   2.677  0.00  0.00    +0.035 C 
ATOM     15  C   UNL     1      -6.604   1.716   3.824  0.00  0.00    +0.160 C 
ATOM     16  O   UNL     1      -5.378   2.462   3.666  0.00  0.00    -0.379 OA
ATOM     17  C   UNL     1      -4.348   1.513   3.329  0.00  0.00    +0.165 C 
ENDBRANCH  12  13
ENDBRANCH  10  12
ENDBRANCH   3   8
BRANCH   4  18
ATOM     18  S   UNL     1      -1.502  -3.684  -0.012  0.00  0.00    +0.060 S 
ATOM     19  O   UNL     1      -0.658  -4.692   0.529  0.00  0.00    -0.153 OA
ATOM     20  O   UNL     1      -2.770  -3.371   0.547  0.00  0.00    -0.153 OA
BRANCH  18  21
ATOM     21  N   UNL     1      -1.769  -4.090  -1.595  0.00  0.00    -0.203 NA
ATOM     22  H   UNL     1      -1.423  -3.527  -2.305  0.00  0.00    +0.144 HD
ATOM     23  H   UNL     1      -2.271  -4.891  -1.812  0.00  0.00    +0.144 HD
ENDBRANCH  18  21
ENDBRANCH   4  18
TORSDOF 5
