REMARK  Name = ZINC36206576
REMARK  13 active torsions:
REMARK  status: ('A' for Active; 'I' for Inactive)
REMARK    1  A    between atoms: C_1  and  C_2
REMARK    2  A    between atoms: C_2  and  O_3
REMARK    3  A    between atoms: O_3  and  C_4
REMARK    4  A    between atoms: C_4  and  C_5
REMARK    5  A    between atoms: C_5  and  C_7
REMARK    6  A    between atoms: C_5  and  O_35
REMARK    7  A    between atoms: C_7  and  N_8
REMARK    8  A    between atoms: N_8  and  C_9
REMARK    9  A    between atoms: N_8  and  C_29
REMARK   10  A    between atoms: C_9  and  C_10
REMARK   11  A    between atoms: C_16  and  C_21
REMARK   12  A    between atoms: C_26  and  O_27
REMARK   13  A    between atoms: O_27  and  C_28
REMARK                            x       y       z     vdW  Elec       q    Type
REMARK                         _______ _______ _______ _____ _____    ______ ____
ROOT
ATOM      1  C   UNL     1       3.099  -5.961  -5.348  0.00  0.00    +0.094 A 
ATOM      2  N   UNL     1       3.166  -7.259  -5.742  0.00  0.00    -0.312 N 
ATOM      3  H   UNL     1       2.793  -7.949  -5.172  0.00  0.00    +0.170 HD
ATOM      4  C   UNL     1       3.740  -7.606  -6.909  0.00  0.00    +0.260 A 
ATOM      5  O   UNL     1       3.792  -8.776  -7.249  0.00  0.00    -0.267 OA
ATOM      6  C   UNL     1       4.287  -6.581  -7.745  0.00  0.00    +0.080 A 
ATOM      7  C   UNL     1       4.951  -6.702  -9.037  0.00  0.00    +0.007 A 
ATOM      8  C   UNL     1       5.392  -5.577  -9.651  0.00  0.00    +0.056 A 
ATOM      9  S   UNL     1       4.936  -4.282  -8.514  0.00  0.00    -0.076 S 
ATOM     10  C   UNL     1       4.171  -5.270  -7.255  0.00  0.00    +0.116 A 
ATOM     11  N   UNL     1       3.585  -5.004  -6.091  0.00  0.00    -0.229 NA
ENDROOT
BRANCH   7  12
ATOM     12  C   UNL     1       5.139  -8.030  -9.669  0.00  0.00    +0.025 A 
ATOM     13  C   UNL     1       6.422  -8.541  -9.854  0.00  0.00    +0.012 A 
ATOM     14  C   UNL     1       6.592  -9.778 -10.442  0.00  0.00    +0.001 A 
ATOM     15  C   UNL     1       5.493 -10.513 -10.849  0.00  0.00    +0.004 A 
ATOM     16  C   UNL     1       4.215 -10.015 -10.670  0.00  0.00    +0.046 A 
ATOM     17  C   UNL     1       4.030  -8.778 -10.076  0.00  0.00    +0.128 A 
BRANCH  17  18
ATOM     18  O   UNL     1       2.775  -8.290  -9.895  0.00  0.00    -0.495 OA
ATOM     19  C   UNL     1       1.690  -9.109 -10.335  0.00  0.00    +0.277 C 
ENDBRANCH  17  18
ENDBRANCH   7  12
BRANCH   1  20
ATOM     20  C   UNL     1       2.446  -5.620  -4.033  0.00  0.00    -0.003 C 
BRANCH  20  21
ATOM     21  N   UNL     1       2.638  -4.191  -3.748  0.00  0.00    +0.388 N 
ATOM     22  H   UNL     1       2.615  -3.670  -4.611  0.00  0.00    -0.081 HD
BRANCH  21  23
ATOM     23  C   UNL     1       3.937  -3.994  -3.090  0.00  0.00    -0.068 C 
ATOM     24  C   UNL     1       3.941  -4.716  -1.742  0.00  0.00    -0.015 C 
ATOM     25  C   UNL     1       5.294  -4.510  -1.057  0.00  0.00    -0.002 C 
ATOM     26  C   UNL     1       6.405  -5.077  -1.943  0.00  0.00    -0.000 C 
ATOM     27  C   UNL     1       6.401  -4.354  -3.291  0.00  0.00    -0.002 C 
ATOM     28  C   UNL     1       5.048  -4.560  -3.976  0.00  0.00    -0.015 C 
ENDBRANCH  21  23
BRANCH  21  29
ATOM     29  C   UNL     1       1.565  -3.720  -2.862  0.00  0.00    -0.044 C 
BRANCH  29  30
ATOM     30  C   UNL     1       1.691  -2.208  -2.667  0.00  0.00    +0.124 C 
BRANCH  30  31
ATOM     31  O   UNL     1       1.580  -1.554  -3.933  0.00  0.00    -0.391 OA
ATOM     32  H   UNL     1       0.741  -1.714  -4.386  0.00  0.00    +0.210 HD
ENDBRANCH  30  31
BRANCH  30  33
ATOM     33  C   UNL     1       0.576  -1.718  -1.741  0.00  0.00    +0.189 C 
BRANCH  33  34
ATOM     34  O   UNL     1       0.762  -0.329  -1.465  0.00  0.00    -0.378 OA
BRANCH  34  36
ATOM     35  C   UNL     1       0.066   1.715  -0.379  0.00  0.00    +0.034 C 
ATOM     36  C   UNL     1      -0.231   0.231  -0.603  0.00  0.00    +0.156 C 
ENDBRANCH  34  36
ENDBRANCH  33  34
ENDBRANCH  30  33
ENDBRANCH  29  30
ENDBRANCH  21  29
ENDBRANCH  20  21
ENDBRANCH   1  20
TORSDOF 11
