REMARK  Name = ZINC04503792
REMARK  4 active torsions:
REMARK  status: ('A' for Active; 'I' for Inactive)
REMARK    1  A    between atoms: C_1  and  C_2
REMARK    2  A    between atoms: C_7  and  C_8
REMARK    3  A    between atoms: C_10  and  C_27
REMARK    4  A    between atoms: C_11  and  N_26
REMARK                            x       y       z     vdW  Elec       q    Type
REMARK                         _______ _______ _______ _____ _____    ______ ____
ROOT
ATOM      1  C   UNL     1       0.243   0.051   2.491  0.00  0.00    +0.098 C 
ATOM      2  C   UNL     1      -0.838  -0.411   3.422  0.00  0.00    +0.077 C 
ATOM      3  C   UNL     1      -0.569  -1.272   4.438  0.00  0.00    +0.109 C 
ATOM      4  N   UNL     1       0.714  -1.731   4.632  0.00  0.00    -0.228 N 
ATOM      5  C   UNL     1       1.783  -1.058   4.099  0.00  0.00    +0.027 C 
ATOM      6  C   UNL     1       1.609  -0.191   3.081  0.00  0.00    +0.025 C 
ATOM      7  C   UNL     1       2.698   0.515   2.539  0.00  0.00    +0.162 C 
ATOM      8  O   UNL     1       2.510   1.285   1.618  0.00  0.00    -0.292 OA
ATOM      9  C   UNL     1       4.090   0.336   3.079  0.00  0.00    +0.080 C 
ATOM     10  C   UNL     1       4.006  -0.055   4.558  0.00  0.00    +0.014 C 
ATOM     11  C   UNL     1       3.153  -1.316   4.677  0.00  0.00    +0.052 C 
ATOM     12  C   UNL     1       0.930  -2.894   5.380  0.00  0.00    +0.246 A 
ATOM     13  N   UNL     1       2.121  -3.439   5.646  0.00  0.00    -0.202 NA
ATOM     14  C   UNL     1       1.963  -4.518   6.367  0.00  0.00    +0.217 A 
ATOM     15  N   UNL     1       0.648  -4.691   6.583  0.00  0.00    -0.264 N 
ATOM     16  H   UNL     1       0.231  -5.407   7.087  0.00  0.00    +0.190 HD
ATOM     17  N   UNL     1      -0.004  -3.625   5.940  0.00  0.00    -0.136 NA
ENDROOT
BRANCH   1  24
ATOM     18  C   UNL     1      -0.521   1.450   0.081  0.00  0.00    +0.044 C 
ATOM     19  C   UNL     1      -0.239  -0.029   0.036  0.00  0.00    -0.046 A 
ATOM     20  C   UNL     1      -0.339  -0.716  -1.160  0.00  0.00    +0.003 A 
ATOM     21  C   UNL     1      -0.080  -2.073  -1.201  0.00  0.00    +0.000 A 
ATOM     22  C   UNL     1       0.281  -2.743  -0.047  0.00  0.00    +0.000 A 
ATOM     23  C   UNL     1       0.382  -2.057   1.148  0.00  0.00    +0.005 A 
ATOM     24  C   UNL     1       0.127  -0.698   1.189  0.00  0.00    -0.032 A 
ENDBRANCH   1  24
BRANCH   3  25
ATOM     25  N   UNL     1      -1.579  -1.685   5.273  0.00  0.00    -0.345 N 
ATOM     26  H   UNL     1      -2.484  -1.362   5.137  0.00  0.00    +0.144 HD
ATOM     27  H   UNL     1      -1.388  -2.300   5.998  0.00  0.00    +0.144 HD
ENDBRANCH   3  25
BRANCH   2  28
ATOM     28  C   UNL     1      -2.177   0.064   3.239  0.00  0.00    +0.099 C 
ATOM     29  N   UNL     1      -3.238   0.441   3.093  0.00  0.00    -0.191 NA
ENDBRANCH   2  28
TORSDOF 3
