REMARK  Name = ZINC63315636
REMARK  10 active torsions:
REMARK  status: ('A' for Active; 'I' for Inactive)
REMARK    1  A    between atoms: C_1  and  O_2
REMARK    2  A    between atoms: O_2  and  C_3
REMARK    3  A    between atoms: C_7  and  C_9
REMARK    4  A    between atoms: C_11  and  C_33
REMARK    5  A    between atoms: N_13  and  C_20
REMARK    6  A    between atoms: C_20  and  C_21
REMARK    7  A    between atoms: C_21  and  C_22
REMARK    8  A    between atoms: C_25  and  O_31
REMARK    9  A    between atoms: O_31  and  C_32
REMARK   10  A    between atoms: C_37  and  O_39
REMARK                            x       y       z     vdW  Elec       q    Type
REMARK                         _______ _______ _______ _____ _____    ______ ____
ROOT
ATOM      1  C   UNL     1       1.476  -4.486  -2.088  0.00  0.00    +0.097 C 
ATOM      2  C   UNL     1       1.895  -4.981  -3.236  0.00  0.00    +0.017 C 
ATOM      3  C   UNL     1       2.602  -4.984  -4.571  0.00  0.00    +0.137 C 
ATOM      4  N   UNL     1       3.522  -6.143  -4.456  0.00  0.00    -0.288 N 
ATOM      5  C   UNL     1       3.039  -7.020  -3.533  0.00  0.00    +0.247 C 
ATOM      6  O   UNL     1       3.582  -8.039  -3.161  0.00  0.00    -0.273 OA
ATOM      7  C   UNL     1       1.716  -6.497  -3.062  0.00  0.00    +0.244 C 
ATOM      8  N   UNL     1       1.391  -6.629  -1.657  0.00  0.00    -0.170 NA
ATOM      9  N   UNL     1       1.222  -5.488  -1.197  0.00  0.00    -0.153 NA
ENDROOT
BRANCH   1  14
ATOM     10  C   UNL     1       1.637  -1.151  -0.352  0.00  0.00    +0.121 A 
ATOM     11  C   UNL     1       0.992  -0.337  -1.274  0.00  0.00    +0.045 A 
ATOM     12  C   UNL     1       0.508  -0.870  -2.453  0.00  0.00    +0.004 A 
ATOM     13  C   UNL     1       0.663  -2.215  -2.722  0.00  0.00    +0.010 A 
ATOM     14  C   UNL     1       1.309  -3.039  -1.802  0.00  0.00    +0.006 A 
ATOM     15  C   UNL     1       1.802  -2.500  -0.616  0.00  0.00    +0.055 A 
BRANCH  10  17
ATOM     16  C   UNL     1       1.906   0.777   1.013  0.00  0.00    +0.277 C 
ATOM     17  O   UNL     1       2.111  -0.622   0.806  0.00  0.00    -0.495 OA
ENDBRANCH  10  17
ENDBRANCH   1  14
BRANCH   3  18
ATOM     18  C   UNL     1       3.373  -3.704  -4.769  0.00  0.00    -0.019 A 
ATOM     19  C   UNL     1       4.327  -3.322  -3.845  0.00  0.00    +0.006 A 
ATOM     20  C   UNL     1       5.036  -2.148  -4.024  0.00  0.00    +0.004 A 
ATOM     21  C   UNL     1       4.791  -1.354  -5.127  0.00  0.00    +0.045 A 
ATOM     22  C   UNL     1       3.834  -1.735  -6.056  0.00  0.00    +0.117 A 
ATOM     23  C   UNL     1       3.129  -2.917  -5.878  0.00  0.00    +0.051 A 
BRANCH  22  24
ATOM     24  O   UNL     1       3.592  -0.956  -7.143  0.00  0.00    -0.507 OA
ATOM     25  H   UNL     1       4.138  -1.171  -7.911  0.00  0.00    +0.292 HD
ENDBRANCH  22  24
ENDBRANCH   3  18
BRANCH   4  26
ATOM     26  C   UNL     1       4.761  -6.316  -5.219  0.00  0.00    +0.113 C 
BRANCH  26  27
ATOM     27  C   UNL     1       5.945  -5.817  -4.389  0.00  0.00    +0.052 C 
BRANCH  27  28
ATOM     28  C   UNL     1       7.230  -6.111  -5.119  0.00  0.00    -0.040 C 
ATOM     29  C   UNL     1       7.915  -5.272  -5.928  0.00  0.00    +0.002 A 
ATOM     30  C   UNL     1       7.680  -3.888  -6.356  0.00  0.00    +0.055 A 
ATOM     31  C   UNL     1       8.560  -3.290  -7.194  0.00  0.00    +0.121 A 
ATOM     32  C   UNL     1       9.704  -3.950  -7.676  0.00  0.00    +0.047 A 
ATOM     33  C   UNL     1      10.006  -5.223  -7.340  0.00  0.00    +0.029 A 
ATOM     34  C   UNL     1       9.121  -5.966  -6.437  0.00  0.00    +0.043 A 
ATOM     35  N   UNL     1       9.178  -7.185  -5.962  0.00  0.00    -0.380 N 
ATOM     36  C   UNL     1       8.018  -7.402  -5.090  0.00  0.00    +0.144 C 
ATOM     37  H   UNL     1       9.874  -7.834  -6.151  0.00  0.00    +0.160 HD
BRANCH  31  38
ATOM     38  O   UNL     1       8.330  -2.008  -7.582  0.00  0.00    -0.495 OA
ATOM     39  C   UNL     1       9.284  -1.417  -8.467  0.00  0.00    +0.277 C 
ENDBRANCH  31  38
ENDBRANCH  27  28
ENDBRANCH  26  27
ENDBRANCH   4  26
TORSDOF 8
