REMARK  Name = ZINC61864809
REMARK  7 active torsions:
REMARK  status: ('A' for Active; 'I' for Inactive)
REMARK    1  A    between atoms: C_1  and  C_2
REMARK    2  A    between atoms: C_2  and  C_3
REMARK    3  A    between atoms: C_2  and  C_4
REMARK    4  A    between atoms: C_2  and  O_5
REMARK    5  A    between atoms: O_5  and  C_6
REMARK    6  A    between atoms: C_11  and  N_14
REMARK    7  A    between atoms: N_21  and  C_24
REMARK                            x       y       z     vdW  Elec       q    Type
REMARK                         _______ _______ _______ _____ _____    ______ ____
ROOT
ATOM      1  N   UNL     1       5.129  -3.320  -4.253  0.00  0.00    -0.296 N 
ATOM      2  C   UNL     1       6.220  -3.230  -5.038  0.00  0.00    +0.302 C 
ATOM      3  O   UNL     1       6.470  -2.189  -5.615  0.00  0.00    -0.253 OA
ATOM      4  N   UNL     1       7.036  -4.293  -5.183  0.00  0.00    -0.287 N 
ATOM      5  C   UNL     1       8.288  -4.130  -5.949  0.00  0.00    +0.107 C 
ATOM      6  C   UNL     1       9.456  -4.862  -5.262  0.00  0.00    +0.000 C 
ATOM      7  C   UNL     1       9.356  -4.676  -3.764  0.00  0.00    -0.077 C 
ATOM      8  N   UNL     1       8.626  -5.803  -3.187  0.00  0.00    +0.383 N 
ATOM      9  C   UNL     1       7.222  -5.645  -3.147  0.00  0.00    -0.059 C 
ATOM     10  C   UNL     1       6.656  -5.553  -4.577  0.00  0.00    +0.091 C 
ATOM     11  H   UNL     1       4.890  -4.170  -3.850  0.00  0.00    +0.151 HD
ATOM     12  H   UNL     1       8.838  -6.629  -3.725  0.00  0.00    -0.081 HD
ENDROOT
BRANCH   1  18
ATOM     13  C   UNL     1       1.961  -0.078  -1.332  0.00  0.00    +0.403 C 
ATOM     14  O   UNL     1       2.499   0.629  -0.503  0.00  0.00    -0.226 OA
ATOM     15  N   UNL     1       2.647  -0.480  -2.421  0.00  0.00    -0.267 N 
ATOM     16  C   UNL     1       2.008  -1.329  -3.436  0.00  0.00    +0.113 C 
ATOM     17  C   UNL     1       2.878  -2.571  -3.657  0.00  0.00    +0.041 C 
ATOM     18  C   UNL     1       4.302  -2.136  -4.008  0.00  0.00    +0.077 C 
ATOM     19  C   UNL     1       4.893  -1.334  -2.846  0.00  0.00    +0.041 C 
ATOM     20  C   UNL     1       4.045  -0.073  -2.618  0.00  0.00    +0.113 C 
BRANCH  13  21
ATOM     21  O   UNL     1       0.681  -0.458  -1.165  0.00  0.00    -0.445 OA
BRANCH  21  23
ATOM     22  C   UNL     1      -0.007   1.535   0.016  0.00  0.00    +0.055 C 
ATOM     23  C   UNL     1       0.015   0.005   0.012  0.00  0.00    +0.107 C 
ATOM     24  C   UNL     1       0.759  -0.498   1.251  0.00  0.00    +0.055 C 
ATOM     25  C   UNL     1      -1.420  -0.525   0.029  0.00  0.00    +0.055 C 
ENDBRANCH  21  23
ENDBRANCH  13  21
ENDBRANCH   1  18
BRANCH   8  26
ATOM     26  C   UNL     1       9.107  -6.013  -1.815  0.00  0.00    -0.069 C 
ATOM     27  C   UNL     1       9.542  -7.428  -1.428  0.00  0.00    -0.017 C 
ATOM     28  C   UNL     1      10.592  -6.333  -1.629  0.00  0.00    -0.017 C 
ENDBRANCH   8  26
TORSDOF 4
