REMARK  Name = ZINC13388365
REMARK  9 active torsions:
REMARK  status: ('A' for Active; 'I' for Inactive)
REMARK    1  A    between atoms: C_1  and  C_2
REMARK    2  A    between atoms: N_5  and  S_11
REMARK    3  A    between atoms: C_7  and  C_10
REMARK    4  A    between atoms: S_11  and  C_14
REMARK    5  A    between atoms: C_16  and  C_21
REMARK    6  A    between atoms: N_23  and  C_24
REMARK    7  A    between atoms: C_24  and  C_26
REMARK    8  A    between atoms: C_24  and  C_29
REMARK    9  A    between atoms: C_26  and  C_27
REMARK                            x       y       z     vdW  Elec       q    Type
REMARK                         _______ _______ _______ _____ _____    ______ ____
ROOT
ATOM      1  C   UNL     1      -0.915   2.247   5.158  0.00  0.00    +0.124 A 
ATOM      2  C   UNL     1      -2.275   2.277   5.383  0.00  0.00    +0.043 A 
ATOM      3  C   UNL     1      -2.811   3.205   6.278  0.00  0.00    +0.039 A 
ATOM      4  C   UNL     1      -1.967   4.104   6.932  0.00  0.00    +0.014 A 
ATOM      5  C   UNL     1      -0.609   4.067   6.696  0.00  0.00    +0.023 A 
ATOM      6  C   UNL     1      -0.082   3.142   5.810  0.00  0.00    +0.067 A 
ATOM      7 CL   UNL     1       1.628   3.102   5.517  0.00  0.00    -0.082 Cl
ENDROOT
BRANCH   3   8
ATOM      8  C   UNL     1      -4.268   3.239   6.526  0.00  0.00    +0.245 C 
ATOM      9  O   UNL     1      -5.000   2.455   5.955  0.00  0.00    -0.270 OA
ATOM     10  N   UNL     1      -4.783   4.140   7.386  0.00  0.00    -0.303 N 
ATOM     11  H   UNL     1      -4.193   4.718   7.895  0.00  0.00    +0.150 HD
BRANCH  10  12
ATOM     12  C   UNL     1      -6.235   4.245   7.554  0.00  0.00    +0.121 C 
BRANCH  12  13
ATOM     13  C   UNL     1      -6.578   5.596   8.126  0.00  0.00    +0.011 A 
ATOM     14  C   UNL     1      -7.606   6.421   7.810  0.00  0.00    +0.013 A 
ATOM     15  C   UNL     1      -7.728   7.626   8.476  0.00  0.00    +0.008 A 
ATOM     16  C   UNL     1      -6.809   7.952   9.418  0.00  0.00    +0.045 A 
ATOM     17  S   UNL     1      -5.731   6.529   9.391  0.00  0.00    -0.100 S 
ENDBRANCH  12  13
BRANCH  12  18
ATOM     18  C   UNL     1      -6.719   3.150   8.506  0.00  0.00    +0.152 C 
BRANCH  18  19
ATOM     19  C   UNL     1      -8.225   3.159   8.559  0.00  0.00    +0.358 C 
ATOM     20  O   UNL     1      -8.851   3.881   7.819  0.00  0.00    -0.246 OA
ATOM     21  O   UNL     1      -8.871   2.366   9.427  0.00  0.00    -0.246 OA
ENDBRANCH  18  19
ENDBRANCH  12  18
ENDBRANCH  10  12
ENDBRANCH   3   8
BRANCH   1  22
ATOM     22  S   UNL     1      -0.235   1.073   4.034  0.00  0.00    +0.062 S 
ATOM     23  O   UNL     1      -1.328   0.328   3.515  0.00  0.00    -0.153 OA
ATOM     24  O   UNL     1       0.858   0.457   4.701  0.00  0.00    -0.153 OA
BRANCH  22  28
ATOM     25  C   UNL     1      -0.369   2.318  -0.918  0.00  0.00    +0.039 C 
ATOM     26  C   UNL     1       0.363   1.822   0.330  0.00  0.00    +0.131 C 
ATOM     27  C   UNL     1      -0.412   2.246   1.583  0.00  0.00    +0.140 C 
ATOM     28  N   UNL     1       0.404   1.923   2.764  0.00  0.00    -0.172 NA
ATOM     29  C   UNL     1       1.803   2.378   2.784  0.00  0.00    +0.140 C 
ATOM     30  C   UNL     1       2.470   1.947   1.473  0.00  0.00    +0.131 C 
ATOM     31  O   UNL     1       1.674   2.392   0.372  0.00  0.00    -0.371 OA
ATOM     32  C   UNL     1       2.589   0.422   1.436  0.00  0.00    +0.039 C 
ENDBRANCH  22  28
ENDBRANCH   1  22
TORSDOF 7
