REMARK  Name = ZINC04587915
REMARK  8 active torsions:
REMARK  status: ('A' for Active; 'I' for Inactive)
REMARK    1  A    between atoms: C_1  and  C_2
REMARK    2  A    between atoms: C_2  and  C_33
REMARK    3  A    between atoms: C_9  and  C_21
REMARK    4  A    between atoms: C_17  and  C_19
REMARK    5  A    between atoms: C_17  and  C_20
REMARK    6  A    between atoms: N_23  and  C_24
REMARK    7  A    between atoms: C_27  and  O_31
REMARK    8  A    between atoms: O_31  and  C_32
REMARK                            x       y       z     vdW  Elec       q    Type
REMARK                         _______ _______ _______ _____ _____    ______ ____
ROOT
ATOM      1  C   UNL     1       0.899   3.982   4.090  0.00  0.00    +0.074 C 
ATOM      2  C   UNL     1       1.264   4.474   2.688  0.00  0.00    +0.166 C 
ATOM      3  O   UNL     1       2.682   4.292   2.461  0.00  0.00    -0.341 OA
ATOM      4  C   UNL     1       2.781   3.519   1.278  0.00  0.00    +0.187 C 
ATOM      5  C   UNL     1       1.464   2.686   1.335  0.00  0.00    +0.191 C 
ATOM      6  O   UNL     1       0.536   3.704   1.695  0.00  0.00    -0.340 OA
ATOM      7  C   UNL     1       1.280   1.980   0.008  0.00  0.00    +0.238 C 
ATOM      8  O   UNL     1       2.406   1.067  -0.131  0.00  0.00    -0.333 OA
ATOM      9  C   UNL     1       3.246   1.133   1.001  0.00  0.00    +0.286 C 
ATOM     10  C   UNL     1       3.895   2.547   1.086  0.00  0.00    +0.209 C 
ATOM     11  O   UNL     1       4.857   2.361   2.113  0.00  0.00    -0.338 OA
ATOM     12  C   UNL     1       5.231   0.965   2.053  0.00  0.00    +0.168 C 
ATOM     13  O   UNL     1       4.405   0.309   1.056  0.00  0.00    -0.318 OA
ATOM     14  C   UNL     1       5.006   0.312   3.418  0.00  0.00    +0.074 C 
ATOM     15  C   UNL     1       6.705   0.845   1.661  0.00  0.00    +0.074 C 
ATOM     16  C   UNL     1       0.906   5.955   2.553  0.00  0.00    +0.074 C 
ENDROOT
BRANCH   7  17
ATOM     17  C   UNL     1      -0.014   1.209   0.007  0.00  0.00    +0.249 C 
ATOM     18  O   UNL     1       0.002  -0.004  -0.009  0.00  0.00    -0.273 OA
ATOM     19  N   UNL     1      -1.191   1.867   0.018  0.00  0.00    -0.283 N 
ATOM     20  H   UNL     1      -1.205   2.833   0.098  0.00  0.00    +0.155 HD
BRANCH  19  21
ATOM     21  C   UNL     1      -2.393   1.154  -0.086  0.00  0.00    +0.035 A 
ATOM     22  C   UNL     1      -3.469   1.704  -0.770  0.00  0.00    +0.027 A 
ATOM     23  C   UNL     1      -4.652   1.000  -0.876  0.00  0.00    +0.049 A 
ATOM     24  C   UNL     1      -4.769  -0.252  -0.291  0.00  0.00    +0.138 A 
ATOM     25  C   UNL     1      -3.696  -0.801   0.397  0.00  0.00    +0.084 A 
ATOM     26  C   UNL     1      -2.510  -0.099   0.499  0.00  0.00    +0.047 A 
ATOM     27 CL   UNL     1      -3.843  -2.368   1.129  0.00  0.00    -0.080 Cl
BRANCH  24  28
ATOM     28  O   UNL     1      -5.936  -0.943  -0.392  0.00  0.00    -0.494 OA
ATOM     29  C   UNL     1      -7.000  -0.318  -1.115  0.00  0.00    +0.277 C 
ENDBRANCH  24  28
ENDBRANCH  19  21
ENDBRANCH   7  17
TORSDOF 3
