REMARK  Name = ZINC39732943
REMARK  4 active torsions:
REMARK  status: ('A' for Active; 'I' for Inactive)
REMARK    1  A    between atoms: C_1  and  C_2
REMARK    2  A    between atoms: N_6  and  C_14
REMARK    3  A    between atoms: C_14  and  C_15
REMARK    4  A    between atoms: C_20  and  C_23
REMARK                            x       y       z     vdW  Elec       q    Type
REMARK                         _______ _______ _______ _____ _____    ______ ____
ROOT
ATOM      1  C   UNL     1       3.181   0.102  -3.224  0.00  0.00    +0.236 C 
ATOM      2  O   UNL     1       2.922   1.216  -2.821  0.00  0.00    -0.274 OA
ATOM      3  N   UNL     1       3.853  -0.057  -4.382  0.00  0.00    -0.263 N 
ATOM      4  C   UNL     1       4.248   1.055  -5.114  0.00  0.00    +0.165 A 
ATOM      5  N   UNL     1       4.900   1.108  -6.257  0.00  0.00    -0.223 NA
ATOM      6  C   UNL     1       5.202   2.276  -6.827  0.00  0.00    +0.095 A 
ATOM      7  C   UNL     1       4.820   3.440  -6.202  0.00  0.00    +0.078 A 
ATOM      8  S   UNL     1       3.999   2.787  -4.755  0.00  0.00    -0.060 S 
ATOM      9  H   UNL     1       4.060  -0.949  -4.704  0.00  0.00    +0.157 HD
ENDROOT
BRANCH   6  10
ATOM     10  C   UNL     1       5.928   2.317  -8.101  0.00  0.00    +0.071 C 
ATOM     11  N   UNL     1       6.292   3.382  -8.763  0.00  0.00    -0.258 NA
ATOM     12  C   UNL     1       6.949   3.099  -9.906  0.00  0.00    +0.107 C 
ATOM     13  C   UNL     1       7.082   1.790 -10.106  0.00  0.00    -0.001 C 
ATOM     14  C   UNL     1       6.417   1.132  -8.911  0.00  0.00    +0.086 C 
ENDBRANCH   6  10
BRANCH   1  15
ATOM     15  C   UNL     1       2.752  -1.105  -2.430  0.00  0.00    +0.210 C 
BRANCH  15  20
ATOM     16  C   UNL     1      -0.019   1.526   0.010  0.00  0.00    +0.062 C 
ATOM     17  C   UNL     1       0.002  -0.004   0.002  0.00  0.00    +0.256 C 
ATOM     18  C   UNL     1       0.706  -0.490  -1.239  0.00  0.00    +0.261 C 
ATOM     19  O   UNL     1       0.074  -0.718  -2.249  0.00  0.00    -0.271 OA
ATOM     20  N   UNL     1       2.045  -0.669  -1.223  0.00  0.00    -0.256 N 
ATOM     21  C   UNL     1       2.748  -0.433  -0.033  0.00  0.00    +0.079 A 
ATOM     22  C   UNL     1       4.126  -0.291  -0.041  0.00  0.00    +0.027 A 
ATOM     23  C   UNL     1       4.800  -0.060   1.144  0.00  0.00    +0.002 A 
ATOM     24  C   UNL     1       4.102   0.031   2.335  0.00  0.00    +0.004 A 
ATOM     25  C   UNL     1       2.726  -0.109   2.349  0.00  0.00    +0.047 A 
ATOM     26  C   UNL     1       2.045  -0.340   1.167  0.00  0.00    +0.143 A 
ATOM     27  O   UNL     1       0.692  -0.477   1.161  0.00  0.00    -0.478 OA
ENDBRANCH  15  20
ENDBRANCH   1  15
TORSDOF 3
