REMARK  Name = ZINC38627208
REMARK  12 active torsions:
REMARK  status: ('A' for Active; 'I' for Inactive)
REMARK    1  A    between atoms: C_1  and  C_2
REMARK    2  A    between atoms: C_2  and  C_4
REMARK    3  A    between atoms: C_2  and  N_23
REMARK    4  A    between atoms: N_6  and  C_7
REMARK    5  A    between atoms: C_11  and  O_21
REMARK    6  A    between atoms: C_15  and  C_17
REMARK    7  A    between atoms: C_17  and  O_19
REMARK    8  A    between atoms: O_19  and  C_20
REMARK    9  A    between atoms: O_21  and  C_22
REMARK   10  A    between atoms: N_26  and  C_29
REMARK   11  A    between atoms: C_34  and  O_35
REMARK   12  A    between atoms: O_35  and  C_36
REMARK                            x       y       z     vdW  Elec       q    Type
REMARK                         _______ _______ _______ _____ _____    ______ ____
ROOT
ATOM      1  C   UNL     1      -1.560  -0.333   0.010  0.00  0.00    +0.203 C 
ATOM      2  O   UNL     1      -2.018  -0.665  -1.062  0.00  0.00    -0.277 OA
ATOM      3  N   UNL     1      -2.349  -0.310   1.102  0.00  0.00    -0.288 N 
ATOM      4  H   UNL     1      -2.007   0.036   1.941  0.00  0.00    +0.155 HD
ENDROOT
BRANCH   3   5
ATOM      5  C   UNL     1      -3.629  -0.775   1.028  0.00  0.00    +0.053 C 
ATOM      6  C   UNL     1      -4.611  -0.673   1.996  0.00  0.00    +0.018 A 
ATOM      7  C   UNL     1      -4.618  -0.095   3.289  0.00  0.00    +0.015 A 
ATOM      8  C   UNL     1      -5.745  -0.139   4.039  0.00  0.00    +0.046 A 
ATOM      9  C   UNL     1      -6.918  -0.747   3.566  0.00  0.00    +0.122 A 
ATOM     10  C   UNL     1      -6.980  -1.321   2.332  0.00  0.00    +0.071 A 
ATOM     11  C   UNL     1      -5.840  -1.312   1.494  0.00  0.00    +0.048 A 
ATOM     12  N   UNL     1      -5.646  -1.791   0.280  0.00  0.00    -0.367 N 
ATOM     13  C   UNL     1      -4.269  -1.504  -0.133  0.00  0.00    +0.234 C 
ATOM     14  H   UNL     1      -6.309  -2.255  -0.255  0.00  0.00    +0.161 HD
BRANCH  13  15
ATOM     15  C   UNL     1      -3.533  -2.791  -0.406  0.00  0.00    +0.335 C 
ATOM     16  O   UNL     1      -3.994  -3.842  -0.027  0.00  0.00    -0.248 OA
BRANCH  15  17
ATOM     17  O   UNL     1      -2.367  -2.770  -1.070  0.00  0.00    -0.466 OA
ATOM     18  C   UNL     1      -1.725  -4.027  -1.294  0.00  0.00    +0.280 C 
ENDBRANCH  15  17
ENDBRANCH  13  15
BRANCH   9  19
ATOM     19  O   UNL     1      -8.019  -0.764   4.358  0.00  0.00    -0.495 OA
ATOM     20  C   UNL     1      -7.903  -0.149   5.643  0.00  0.00    +0.277 C 
ENDBRANCH   9  19
ENDBRANCH   3   5
BRANCH   1  22
ATOM     21  C   UNL     1      -0.004   1.535   0.498  0.00  0.00    -0.004 C 
ATOM     22  C   UNL     1      -0.108   0.056   0.121  0.00  0.00    +0.017 C 
BRANCH  22  23
ATOM     23  N   UNL     1       0.559  -0.170  -1.167  0.00  0.00    +0.389 N 
ATOM     24  C   UNL     1       2.004   0.043  -1.012  0.00  0.00    -0.059 C 
ATOM     25  C   UNL     1       2.714  -0.303  -2.325  0.00  0.00    +0.086 C 
ATOM     26  N   UNL     1       2.098   0.479  -3.408  0.00  0.00    -0.331 N 
ATOM     27  C   UNL     1       0.633   0.453  -3.535  0.00  0.00    +0.086 C 
ATOM     28  C   UNL     1       0.021   0.763  -2.165  0.00  0.00    -0.059 C 
ATOM     29  H   UNL     1       0.392  -1.118  -1.470  0.00  0.00    -0.081 HD
BRANCH  26  30
ATOM     30  C   UNL     1       2.885   1.226  -4.293  0.00  0.00    +0.072 A 
ATOM     31  C   UNL     1       3.350   0.649  -5.466  0.00  0.00    +0.027 A 
ATOM     32  C   UNL     1       4.126   1.389  -6.339  0.00  0.00    +0.002 A 
ATOM     33  C   UNL     1       4.439   2.704  -6.046  0.00  0.00    +0.004 A 
ATOM     34  C   UNL     1       3.979   3.285  -4.878  0.00  0.00    +0.047 A 
ATOM     35  C   UNL     1       3.197   2.552  -4.001  0.00  0.00    +0.141 A 
BRANCH  35  36
ATOM     36  O   UNL     1       2.739   3.123  -2.855  0.00  0.00    -0.493 OA
ATOM     37  C   UNL     1       3.098   4.487  -2.622  0.00  0.00    +0.277 C 
ENDBRANCH  35  36
ENDBRANCH  26  30
ENDBRANCH  22  23
ENDBRANCH   1  22
TORSDOF 8
