REMARK  Name = ZINC08617351
REMARK  6 active torsions:
REMARK  status: ('A' for Active; 'I' for Inactive)
REMARK    1  A    between atoms: C_9  and  O_31
REMARK    2  A    between atoms: C_10  and  C_11
REMARK    3  A    between atoms: C_11  and  C_13
REMARK    4  A    between atoms: C_11  and  N_61
REMARK    5  A    between atoms: N_17  and  C_18
REMARK    6  A    between atoms: C_18  and  C_19
REMARK                            x       y       z     vdW  Elec       q    Type
REMARK                         _______ _______ _______ _____ _____    ______ ____
ROOT
ATOM      1  C   UNL     1      -0.069   0.217   0.187  0.00  0.00    +0.039 C 
ENDROOT
BRANCH   1  11
ATOM      2  C   UNL     1       1.165   0.674   2.298  0.00  0.00    +0.017 A 
ATOM      3  C   UNL     1       1.729   0.214   3.504  0.00  0.00    +0.005 A 
ATOM      4  C   UNL     1       2.377   1.094   4.386  0.00  0.00    +0.059 A 
ATOM      5  C   UNL     1       2.914   0.617   5.546  0.00  0.00    +0.167 A 
ATOM      6  C   UNL     1       2.826  -0.748   5.868  0.00  0.00    +0.168 A 
ATOM      7  C   UNL     1       2.201  -1.623   5.027  0.00  0.00    +0.078 A 
ATOM      8  C   UNL     1       1.637  -1.162   3.826  0.00  0.00    +0.079 A 
ATOM      9  N   UNL     1       1.018  -2.003   2.989  0.00  0.00    -0.213 NA
ATOM     10  C   UNL     1       0.484  -1.577   1.865  0.00  0.00    +0.215 A 
ATOM     11  C   UNL     1       0.548  -0.231   1.486  0.00  0.00    +0.008 A 
ATOM     12  O   UNL     1       3.442  -0.948   7.070  0.00  0.00    -0.453 OA
ATOM     13  C   UNL     1       3.539   0.354   7.675  0.00  0.00    +0.466 C 
ATOM     14  O   UNL     1       3.582   1.255   6.553  0.00  0.00    -0.453 OA
BRANCH  10  15
ATOM     15  O   UNL     1      -0.139  -2.465   1.050  0.00  0.00    -0.492 OA
ATOM     16  H   UNL     1       0.427  -2.820   0.350  0.00  0.00    +0.294 HD
ENDBRANCH  10  15
ENDBRANCH   1  11
BRANCH   1  23
ATOM     17  C   UNL     1       2.162   0.342  -0.768  0.00  0.00    -0.077 C 
ATOM     18  C   UNL     1       3.001   0.183  -2.007  0.00  0.00    -0.019 C 
ATOM     19  C   UNL     1       2.895   1.478  -2.839  0.00  0.00    -0.002 C 
ATOM     20  C   UNL     1       1.650   1.547  -3.595  0.00  0.00    -0.002 C 
ATOM     21  C   UNL     1       0.410   1.536  -2.677  0.00  0.00    -0.019 C 
ATOM     22  C   UNL     1       0.158   0.122  -2.231  0.00  0.00    -0.077 C 
ATOM     23  N   UNL     1       0.787  -0.245  -0.917  0.00  0.00    +0.389 N 
ATOM     24  H   UNL     1       0.865  -1.268  -0.870  0.00  0.00    -0.080 HD
ENDBRANCH   1  23
BRANCH   1  25
ATOM     25  C   UNL     1      -0.210   1.718   0.189  0.00  0.00    +0.143 A 
ATOM     26  N   UNL     1       0.763   2.595   0.222  0.00  0.00    -0.115 NA
ATOM     27  N   UNL     1       0.239   3.772   0.211  0.00  0.00    -0.023 NA
ATOM     28  N   UNL     1      -1.044   3.668   0.172  0.00  0.00    -0.044 NA
ATOM     29  N   UNL     1      -1.359   2.417   0.152  0.00  0.00    -0.228 N 
BRANCH  29  30
ATOM     30  C   UNL     1      -2.714   1.862   0.101  0.00  0.00    +0.178 C 
BRANCH  30  31
ATOM     31  C   UNL     1      -3.292   1.799   1.516  0.00  0.00    +0.140 C 
ATOM     32  C   UNL     1      -4.731   1.223   1.485  0.00  0.00    +0.035 C 
ATOM     33  C   UNL     1      -4.853   0.656   2.925  0.00  0.00    +0.031 C 
ATOM     34  C   UNL     1      -3.414   0.177   3.212  0.00  0.00    +0.160 C 
ATOM     35  O   UNL     1      -2.538   0.880   2.323  0.00  0.00    -0.375 OA
ENDBRANCH  30  31
ENDBRANCH  29  30
ENDBRANCH   1  25
TORSDOF 6
