REMARK  Name = ZINC64093432
REMARK  7 active torsions:
REMARK  status: ('A' for Active; 'I' for Inactive)
REMARK    1  A    between atoms: C_1  and  C_2
REMARK    2  A    between atoms: C_2  and  O_3
REMARK    3  A    between atoms: O_3  and  C_4
REMARK    4  A    between atoms: C_9  and  C_10
REMARK    5  A    between atoms: C_10  and  N_11
REMARK    6  A    between atoms: C_17  and  C_19
REMARK    7  A    between atoms: C_19  and  C_20
REMARK                            x       y       z     vdW  Elec       q    Type
REMARK                         _______ _______ _______ _____ _____    ______ ____
ROOT
ATOM      1  N   UNL     1      -4.165  -0.908  -1.118  0.00  0.00    +0.391 N 
ATOM      2  C   UNL     1      -2.959  -0.142  -1.470  0.00  0.00    -0.058 C 
ATOM      3  C   UNL     1      -2.953   0.101  -2.981  0.00  0.00    +0.085 C 
ATOM      4  N   UNL     1      -4.236   0.661  -3.400  0.00  0.00    -0.318 N 
ATOM      5  C   UNL     1      -5.335   0.591  -2.640  0.00  0.00    +0.200 C 
ATOM      6  O   UNL     1      -6.369   1.058  -3.069  0.00  0.00    -0.278 OA
ATOM      7  C   UNL     1      -5.341  -0.044  -1.278  0.00  0.00    +0.028 C 
ATOM      8  H   UNL     1      -4.293   1.100  -4.262  0.00  0.00    +0.149 HD
ATOM      9  H   UNL     1      -4.248  -1.708  -1.727  0.00  0.00    -0.080 HD
ENDROOT
BRANCH   1  10
ATOM     10  C   UNL     1      -4.072  -1.359   0.277  0.00  0.00    -0.038 C 
BRANCH  10  16
ATOM     11  C   UNL     1      -1.651  -1.896   0.648  0.00  0.00    +0.122 A 
ATOM     12  C   UNL     1      -0.614  -2.808   0.776  0.00  0.00    +0.046 A 
ATOM     13  C   UNL     1      -0.867  -4.161   0.663  0.00  0.00    +0.004 A 
ATOM     14  C   UNL     1      -2.154  -4.607   0.422  0.00  0.00    +0.000 A 
ATOM     15  C   UNL     1      -3.189  -3.700   0.293  0.00  0.00    +0.005 A 
ATOM     16  C   UNL     1      -2.942  -2.346   0.411  0.00  0.00    -0.022 A 
BRANCH  11  17
ATOM     17  O   UNL     1      -1.404  -0.564   0.759  0.00  0.00    -0.492 OA
BRANCH  17  19
ATOM     18  C   UNL     1       0.029   1.351   1.097  0.00  0.00    +0.048 C 
ATOM     19  C   UNL     1      -0.051  -0.173   1.003  0.00  0.00    +0.225 C 
ENDBRANCH  17  19
ENDBRANCH  11  17
ENDBRANCH  10  16
ENDBRANCH   1  10
BRANCH   7  20
ATOM     20  C   UNL     1      -6.612  -0.881  -1.115  0.00  0.00    +0.090 C 
BRANCH  20  21
ATOM     21  C   UNL     1      -6.659  -1.937  -2.188  0.00  0.00    +0.215 C 
ATOM     22  O   UNL     1      -5.821  -1.949  -3.065  0.00  0.00    -0.276 OA
ATOM     23  N   UNL     1      -7.634  -2.868  -2.175  0.00  0.00    -0.299 N 
ATOM     24  C   UNL     1      -8.647  -2.842  -1.115  0.00  0.00    +0.112 C 
ATOM     25  C   UNL     1     -10.047  -2.731  -1.747  0.00  0.00    +0.052 C 
ATOM     26  C   UNL     1     -10.088  -3.721  -2.884  0.00  0.00    -0.036 C 
ATOM     27  C   UNL     1     -10.955  -4.682  -3.180  0.00  0.00    -0.001 A 
ATOM     28  C   UNL     1     -12.242  -5.061  -2.575  0.00  0.00    +0.010 A 
ATOM     29  C   UNL     1     -12.873  -6.131  -3.127  0.00  0.00    +0.001 A 
ATOM     30  C   UNL     1     -12.357  -6.853  -4.208  0.00  0.00    +0.002 A 
ATOM     31  C   UNL     1     -11.185  -6.571  -4.831  0.00  0.00    +0.026 A 
ATOM     32  C   UNL     1     -10.435  -5.461  -4.345  0.00  0.00    +0.043 A 
ATOM     33  N   UNL     1      -9.310  -4.959  -4.761  0.00  0.00    -0.376 N 
ATOM     34  C   UNL     1      -9.008  -3.773  -3.958  0.00  0.00    +0.124 C 
ATOM     35  C   UNL     1      -7.673  -3.896  -3.227  0.00  0.00    +0.136 C 
ATOM     36  H   UNL     1      -8.763  -5.312  -5.480  0.00  0.00    +0.160 HD
ENDBRANCH  20  21
ENDBRANCH   7  20
TORSDOF 6
