REMARK  Name = ZINC63294810
REMARK  5 active torsions:
REMARK  status: ('A' for Active; 'I' for Inactive)
REMARK    1  A    between atoms: C_6  and  C_10
REMARK    2  A    between atoms: C_10  and  S_11
REMARK    3  A    between atoms: S_11  and  C_12
REMARK    4  A    between atoms: C_12  and  C_13
REMARK    5  A    between atoms: C_18  and  C_21
REMARK                            x       y       z     vdW  Elec       q    Type
REMARK                         _______ _______ _______ _____ _____    ______ ____
ROOT
ATOM      1  C   UNL     1       2.982  -2.138  -5.560  0.00  0.00    +0.225 C 
ATOM      2  O   UNL     1       2.240  -1.181  -5.624  0.00  0.00    -0.275 OA
ATOM      3  N   UNL     1       3.384  -2.757  -6.688  0.00  0.00    -0.301 N 
ATOM      4  C   UNL     1       4.277  -3.922  -6.625  0.00  0.00    +0.108 C 
ATOM      5  C   UNL     1       5.492  -3.660  -7.520  0.00  0.00    +0.026 C 
ATOM      6  C   UNL     1       5.015  -3.309  -8.931  0.00  0.00    +0.032 C 
ATOM      7  C   UNL     1       4.168  -2.036  -8.883  0.00  0.00    +0.026 C 
ATOM      8  C   UNL     1       2.933  -2.282  -8.003  0.00  0.00    +0.108 C 
ENDROOT
BRANCH   6   9
ATOM      9  C   UNL     1       6.227  -3.081  -9.837  0.00  0.00    +0.184 C 
ATOM     10  N   UNL     1       7.121  -2.065  -9.256  0.00  0.00    -0.246 N 
ATOM     11  N   UNL     1       8.345  -2.704  -9.030  0.00  0.00    -0.170 NA
ATOM     12  C   UNL     1       8.307  -3.957  -9.394  0.00  0.00    +0.144 C 
ATOM     13  N   UNL     1       7.055  -4.293  -9.904  0.00  0.00    -0.270 N 
ATOM     14  C   UNL     1       6.799  -5.563 -10.347  0.00  0.00    +0.078 C 
ATOM     15  C   UNL     1       7.742  -6.519 -10.304  0.00  0.00    +0.015 C 
ATOM     16  C   UNL     1       9.031  -6.246  -9.799  0.00  0.00    +0.005 C 
ATOM     17  C   UNL     1       9.340  -5.001  -9.344  0.00  0.00    +0.045 C 
ATOM     18  H   UNL     1       6.905  -1.139  -9.069  0.00  0.00    +0.170 HD
ENDBRANCH   6   9
BRANCH   1  19
ATOM     19  C   UNL     1       3.453  -2.637  -4.218  0.00  0.00    +0.165 C 
BRANCH  19  20
ATOM     20  S   UNL     1       2.744  -1.604  -2.906  0.00  0.00    -0.148 S 
BRANCH  20  21
ATOM     21  C   UNL     1       3.399  -2.326  -1.376  0.00  0.00    +0.116 C 
BRANCH  21  27
ATOM     22  C   UNL     1      -0.392   1.689  -0.406  0.00  0.00    +0.002 A 
ATOM     23  C   UNL     1       0.740   2.523  -0.455  0.00  0.00    +0.002 A 
ATOM     24  C   UNL     1       1.999   2.043  -0.416  0.00  0.00    +0.027 A 
ATOM     25  C   UNL     1       2.219   0.593  -0.319  0.00  0.00    +0.060 A 
ATOM     26  N   UNL     1       3.296  -0.137  -0.265  0.00  0.00    -0.363 N 
ATOM     27  C   UNL     1       2.872  -1.540  -0.174  0.00  0.00    +0.184 C 
ATOM     28  N   UNL     1       1.404  -1.531  -0.182  0.00  0.00    -0.363 N 
ATOM     29  C   UNL     1       1.022  -0.289  -0.267  0.00  0.00    +0.060 A 
ATOM     30  C   UNL     1      -0.302   0.347  -0.316  0.00  0.00    +0.027 A 
ATOM     31  H   UNL     1       4.210   0.187  -0.282  0.00  0.00    +0.162 HD
ATOM     32  H   UNL     1       0.825  -2.308  -0.134  0.00  0.00    +0.162 HD
ENDBRANCH  21  27
ENDBRANCH  20  21
ENDBRANCH  19  20
ENDBRANCH   1  19
TORSDOF 5
