REMARK  Name = ZINC63351227
REMARK  2 active torsions:
REMARK  status: ('A' for Active; 'I' for Inactive)
REMARK    1  A    between atoms: C_4  and  N_7
REMARK    2  A    between atoms: C_10  and  C_17
REMARK                            x       y       z     vdW  Elec       q    Type
REMARK                         _______ _______ _______ _____ _____    ______ ____
ROOT
ATOM      1  N   UNL     1       3.623  -0.652  -0.037  0.00  0.00    -0.229 N 
ATOM      2  C   UNL     1       3.640  -1.996   0.051  0.00  0.00    +0.270 A 
ATOM      3  O   UNL     1       2.596  -2.619   0.146  0.00  0.00    -0.267 OA
ATOM      4  C   UNL     1       4.870  -2.677   0.034  0.00  0.00    +0.101 A 
ATOM      5  C   UNL     1       6.024  -1.958  -0.073  0.00  0.00    +0.263 A 
ATOM      6  N   UNL     1       5.961  -0.590  -0.161  0.00  0.00    -0.274 N 
ATOM      7  H   UNL     1       6.779  -0.074  -0.237  0.00  0.00    +0.173 HD
ATOM      8  C   UNL     1       4.772   0.040  -0.147  0.00  0.00    +0.337 A 
ATOM      9  O   UNL     1       4.736   1.252  -0.232  0.00  0.00    -0.246 OA
ATOM     10  O   UNL     1       7.218  -2.587  -0.091  0.00  0.00    -0.267 OA
ENDROOT
BRANCH   4  11
ATOM     11  C   UNL     1       4.913  -4.180   0.133  0.00  0.00    +0.121 C 
ATOM     12  C   UNL     1       4.374  -4.623   1.495  0.00  0.00    +0.128 C 
ATOM     13  C   UNL     1       4.292  -6.145   1.446  0.00  0.00    -0.035 C 
ATOM     14  C   UNL     1       4.971  -6.591   2.494  0.00  0.00    -0.001 A 
ATOM     15  C   UNL     1       5.177  -7.948   3.025  0.00  0.00    +0.010 A 
ATOM     16  C   UNL     1       5.959  -8.046   4.133  0.00  0.00    +0.001 A 
ATOM     17  C   UNL     1       6.548  -6.943   4.758  0.00  0.00    +0.002 A 
ATOM     18  C   UNL     1       6.408  -5.660   4.342  0.00  0.00    +0.026 A 
ATOM     19  C   UNL     1       5.604  -5.428   3.189  0.00  0.00    +0.043 A 
ATOM     20  N   UNL     1       5.282  -4.295   2.593  0.00  0.00    -0.376 N 
ATOM     21  C   UNL     1       3.618  -6.865   0.304  0.00  0.00    +0.048 C 
ATOM     22  C   UNL     1       4.167  -6.231  -0.987  0.00  0.00    +0.086 C 
ATOM     23  N   UNL     1       4.066  -4.770  -0.915  0.00  0.00    -0.307 NA
ATOM     24  H   UNL     1       3.105  -4.480  -0.810  0.00  0.00    +0.123 HD
ATOM     25  H   UNL     1       5.589  -3.406   2.830  0.00  0.00    +0.160 HD
ENDBRANCH   4  11
BRANCH   1  29
ATOM     26  C   UNL     1      -0.017   1.377   0.011  0.00  0.00    +0.000 A 
ATOM     27  C   UNL     1       0.524   0.960  -1.191  0.00  0.00    +0.002 A 
ATOM     28  C   UNL     1       1.730   0.287  -1.210  0.00  0.00    +0.026 A 
ATOM     29  C   UNL     1       2.399   0.031  -0.021  0.00  0.00    +0.054 A 
ATOM     30  C   UNL     1       1.854   0.452   1.184  0.00  0.00    +0.026 A 
ATOM     31  C   UNL     1       0.647   1.124   1.197  0.00  0.00    +0.002 A 
ENDBRANCH   1  29
TORSDOF 2
