REMARK  Name = ZINC02181066
REMARK  5 active torsions:
REMARK  status: ('A' for Active; 'I' for Inactive)
REMARK    1  A    between atoms: C_1  and  N_2
REMARK    2  A    between atoms: C_6  and  C_8
REMARK    3  A    between atoms: C_8  and  S_9
REMARK    4  A    between atoms: S_9  and  C_10
REMARK    5  A    between atoms: N_23  and  N_24
REMARK                            x       y       z     vdW  Elec       q    Type
REMARK                         _______ _______ _______ _____ _____    ______ ____
ROOT
ATOM      1  C   UNL     1       3.898  -1.488  -0.043  0.00  0.00    +0.190 A 
ATOM      2  N   UNL     1       3.686  -0.179  -0.034  0.00  0.00    -0.215 NA
ATOM      3  C   UNL     1       2.424   0.232  -0.020  0.00  0.00    +0.117 A 
ATOM      4  C   UNL     1       1.310  -0.639  -0.014  0.00  0.00    +0.077 A 
ATOM      5  C   UNL     1       0.002  -0.004   0.002  0.00  0.00    -0.023 A 
ATOM      6  C   UNL     1      -0.016   1.348   0.009  0.00  0.00    -0.004 A 
ATOM      7  S   UNL     1       1.690   1.837  -0.004  0.00  0.00    -0.073 S 
ATOM      8  C   UNL     1      -1.220   2.239   0.020  0.00  0.00    +0.043 C 
ATOM      9  C   UNL     1      -2.452   1.399  -0.341  0.00  0.00    +0.005 C 
ATOM     10  C   UNL     1      -2.433   0.113   0.491  0.00  0.00    +0.005 C 
ATOM     11  C   UNL     1      -1.302  -0.797   0.011  0.00  0.00    +0.037 C 
ATOM     12  C   UNL     1       1.578  -2.046  -0.024  0.00  0.00    +0.280 A 
ATOM     13  O   UNL     1       0.685  -2.876  -0.020  0.00  0.00    -0.265 OA
ATOM     14  N   UNL     1       2.885  -2.398  -0.038  0.00  0.00    -0.209 N 
ENDROOT
BRANCH  14  15
ATOM     15  N   UNL     1       3.203  -3.727  -0.048  0.00  0.00    -0.293 N 
ATOM     16  H   UNL     1       4.203  -3.860  -0.058  0.00  0.00    +0.163 HD
ATOM     17  H   UNL     1       2.782  -4.205   0.735  0.00  0.00    +0.163 HD
ENDBRANCH  14  15
BRANCH   1  18
ATOM     18  S   UNL     1       5.560  -2.074  -0.063  0.00  0.00    -0.077 S 
BRANCH  18  19
ATOM     19  C   UNL     1       6.449  -0.497  -0.063  0.00  0.00    +0.173 C 
BRANCH  19  25
ATOM     20  C   UNL     1      12.434   0.825  -0.115  0.00  0.00    +0.129 C 
ATOM     21  N   UNL     1      10.991   1.077  -0.100  0.00  0.00    -0.302 N 
ATOM     22  C   UNL     1      10.126   0.044  -0.097  0.00  0.00    +0.306 C 
ATOM     23  O   UNL     1      10.543  -1.098  -0.106  0.00  0.00    -0.252 OA
ATOM     24  N   UNL     1       8.799   0.276  -0.082  0.00  0.00    -0.240 N 
ATOM     25  C   UNL     1       7.933  -0.757  -0.079  0.00  0.00    +0.231 C 
ATOM     26  O   UNL     1       8.349  -1.896  -0.089  0.00  0.00    -0.274 OA
ATOM     27  H   UNL     1      10.658   1.988  -0.092  0.00  0.00    +0.150 HD
ATOM     28  H   UNL     1       8.466   1.188  -0.074  0.00  0.00    +0.159 HD
ENDBRANCH  19  25
ENDBRANCH  18  19
ENDBRANCH   1  18
TORSDOF 4
