REMARK  Name = ZINC36726132
REMARK  9 active torsions:
REMARK  status: ('A' for Active; 'I' for Inactive)
REMARK    1  A    between atoms: C_1  and  C_2
REMARK    2  A    between atoms: C_7  and  C_9
REMARK    3  A    between atoms: C_7  and  C_10
REMARK    4  A    between atoms: N_13  and  C_17
REMARK    5  A    between atoms: C_17  and  C_18
REMARK    6  A    between atoms: N_20  and  C_21
REMARK    7  A    between atoms: C_26  and  C_27
REMARK    8  A    between atoms: C_27  and  C_28
REMARK    9  A    between atoms: C_27  and  C_29
REMARK                            x       y       z     vdW  Elec       q    Type
REMARK                         _______ _______ _______ _____ _____    ______ ____
ROOT
ATOM      1  C   UNL     1       0.026   1.521   0.009  0.00  0.00    +0.007 C 
ATOM      2  C   UNL     1       0.036  -0.011   0.002  0.00  0.00    -0.011 C 
ATOM      3  C   UNL     1      -1.406  -0.524   0.015  0.00  0.00    +0.038 C 
ATOM      4  C   UNL     1      -1.409  -2.046  -0.042  0.00  0.00    +0.113 C 
ATOM      5  C   UNL     1      -0.566  -2.678   1.048  0.00  0.00    +0.041 C 
ATOM      6  C   UNL     1       0.795  -2.042   1.275  0.00  0.00    -0.032 C 
ATOM      7  C   UNL     1       0.743  -0.519   1.256  0.00  0.00    +0.009 C 
ATOM      8  C   UNL     1       1.300  -2.478   2.668  0.00  0.00    +0.011 C 
ATOM      9  C   UNL     1       1.808  -2.546   0.243  0.00  0.00    +0.011 C 
ATOM     10  C   UNL     1      -1.024  -2.534  -1.416  0.00  0.00    +0.247 C 
ATOM     11  O   UNL     1      -0.033  -2.261  -2.059  0.00  0.00    -0.273 OA
ATOM     12  N   UNL     1      -2.034  -3.336  -1.817  0.00  0.00    -0.215 N 
ATOM     13  C   UNL     1      -3.050  -3.316  -0.948  0.00  0.00    +0.310 C 
ATOM     14  O   UNL     1      -4.080  -3.946  -1.097  0.00  0.00    -0.252 OA
ATOM     15  N   UNL     1      -2.803  -2.522   0.108  0.00  0.00    -0.285 N 
ATOM     16  H   UNL     1      -3.406  -2.298   0.831  0.00  0.00    +0.151 HD
ENDROOT
BRANCH  12  17
ATOM     17  C   UNL     1      -2.016  -4.128  -3.050  0.00  0.00    +0.214 C 
BRANCH  17  18
ATOM     18  C   UNL     1      -1.427  -5.486  -2.766  0.00  0.00    +0.235 C 
ATOM     19  O   UNL     1      -1.059  -5.765  -1.644  0.00  0.00    -0.274 OA
ATOM     20  N   UNL     1      -1.309  -6.390  -3.758  0.00  0.00    -0.284 N 
ATOM     21  H   UNL     1      -1.675  -6.197  -4.636  0.00  0.00    +0.155 HD
BRANCH  20  22
ATOM     22  C   UNL     1      -0.659  -7.606  -3.523  0.00  0.00    +0.037 A 
ATOM     23  C   UNL     1       0.287  -7.705  -2.511  0.00  0.00    +0.023 A 
ATOM     24  C   UNL     1       0.927  -8.907  -2.281  0.00  0.00    +0.002 A 
ATOM     25  C   UNL     1       0.627 -10.011  -3.058  0.00  0.00    +0.000 A 
ATOM     26  C   UNL     1      -0.314  -9.916  -4.066  0.00  0.00    +0.006 A 
ATOM     27  C   UNL     1      -0.962  -8.718  -4.297  0.00  0.00    -0.024 A 
BRANCH  27  28
ATOM     28  C   UNL     1      -1.993  -8.617  -5.392  0.00  0.00    +0.015 C 
ATOM     29  C   UNL     1      -1.378  -9.075  -6.715  0.00  0.00    +0.012 C 
ATOM     30  C   UNL     1      -3.189  -9.508  -5.050  0.00  0.00    +0.012 C 
ENDBRANCH  27  28
ENDBRANCH  20  22
ENDBRANCH  17  18
ENDBRANCH  12  17
TORSDOF 4
