REMARK  Name = ZINC36206155
REMARK  16 active torsions:
REMARK  status: ('A' for Active; 'I' for Inactive)
REMARK    1  A    between atoms: C_1  and  C_2
REMARK    2  A    between atoms: C_2  and  C_3
REMARK    3  A    between atoms: C_2  and  C_4
REMARK    4  A    between atoms: C_2  and  O_5
REMARK    5  A    between atoms: O_5  and  C_6
REMARK    6  A    between atoms: C_6  and  C_7
REMARK    7  A    between atoms: C_7  and  C_9
REMARK    8  A    between atoms: C_7  and  O_34
REMARK    9  A    between atoms: C_9  and  N_10
REMARK   10  A    between atoms: N_10  and  C_11
REMARK   11  A    between atoms: N_10  and  C_15
REMARK   12  A    between atoms: C_11  and  C_12
REMARK   13  A    between atoms: C_12  and  O_13
REMARK   14  A    between atoms: O_13  and  C_14
REMARK   15  A    between atoms: C_15  and  C_16
REMARK   16  A    between atoms: C_22  and  C_27
REMARK                            x       y       z     vdW  Elec       q    Type
REMARK                         _______ _______ _______ _____ _____    ______ ____
ROOT
ATOM      1  C   UNL     1       6.834  -1.212  -3.110  0.00  0.00    +0.094 A 
ATOM      2  N   UNL     1       8.135  -0.997  -2.784  0.00  0.00    -0.312 N 
ATOM      3  H   UNL     1       8.590  -0.215  -3.134  0.00  0.00    +0.170 HD
ATOM      4  C   UNL     1       8.805  -1.847  -1.984  0.00  0.00    +0.260 A 
ATOM      5  O   UNL     1       9.972  -1.640  -1.700  0.00  0.00    -0.267 OA
ATOM      6  C   UNL     1       8.126  -2.999  -1.471  0.00  0.00    +0.080 A 
ATOM      7  C   UNL     1       8.627  -4.053  -0.598  0.00  0.00    +0.004 A 
ATOM      8  C   UNL     1       7.789  -5.055  -0.239  0.00  0.00    +0.056 A 
ATOM      9  S   UNL     1       6.266  -4.635  -1.063  0.00  0.00    -0.076 S 
ATOM     10  C   UNL     1       6.784  -3.138  -1.862  0.00  0.00    +0.116 A 
ATOM     11  N   UNL     1       6.186  -2.251  -2.654  0.00  0.00    -0.229 NA
ENDROOT
BRANCH   7  12
ATOM     12  C   UNL     1      10.027  -4.028  -0.111  0.00  0.00    -0.016 A 
ATOM     13  C   UNL     1      11.076  -3.838  -1.009  0.00  0.00    +0.010 A 
ATOM     14  C   UNL     1      12.378  -3.815  -0.551  0.00  0.00    +0.020 A 
ATOM     15  C   UNL     1      12.642  -3.981   0.798  0.00  0.00    +0.041 A 
ATOM     16  C   UNL     1      11.604  -4.170   1.694  0.00  0.00    +0.020 A 
ATOM     17  C   UNL     1      10.299  -4.189   1.247  0.00  0.00    +0.010 A 
ATOM     18 CL   UNL     1      14.282  -3.951   1.368  0.00  0.00    -0.084 Cl
ENDBRANCH   7  12
BRANCH   1  19
ATOM     19  C   UNL     1       6.125  -0.233  -4.008  0.00  0.00    -0.003 C 
BRANCH  19  20
ATOM     20  N   UNL     1       4.702  -0.590  -4.096  0.00  0.00    +0.388 N 
ATOM     21  H   UNL     1       4.615  -1.558  -4.367  0.00  0.00    -0.081 HD
BRANCH  20  22
ATOM     22  C   UNL     1       4.066  -0.388  -2.788  0.00  0.00    -0.044 C 
BRANCH  22  23
ATOM     23  C   UNL     1       2.617  -0.877  -2.845  0.00  0.00    +0.124 C 
BRANCH  23  24
ATOM     24  O   UNL     1       2.599  -2.289  -3.060  0.00  0.00    -0.391 OA
ATOM     25  H   UNL     1       3.045  -2.798  -2.369  0.00  0.00    +0.210 HD
ENDBRANCH  23  24
BRANCH  23  26
ATOM     26  C   UNL     1       1.917  -0.553  -1.523  0.00  0.00    +0.189 C 
BRANCH  26  27
ATOM     27  O   UNL     1       0.535  -0.904  -1.618  0.00  0.00    -0.372 OA
BRANCH  27  29
ATOM     28  C   UNL     1      -0.148   0.853  -0.106  0.00  0.00    +0.041 C 
ATOM     29  C   UNL     1      -0.214  -0.641  -0.429  0.00  0.00    +0.061 C 
ATOM     30  C   UNL     1       0.376  -1.441   0.733  0.00  0.00    +0.041 C 
ATOM     31  C   UNL     1      -1.672  -1.052  -0.644  0.00  0.00    +0.041 C 
ENDBRANCH  27  29
ENDBRANCH  26  27
ENDBRANCH  23  26
ENDBRANCH  22  23
ENDBRANCH  20  22
BRANCH  20  32
ATOM     32  C   UNL     1       4.044   0.260  -5.097  0.00  0.00    -0.050 C 
BRANCH  32  33
ATOM     33  C   UNL     1       4.610  -0.054  -6.484  0.00  0.00    +0.141 C 
BRANCH  33  34
ATOM     34  O   UNL     1       4.273  -1.395  -6.843  0.00  0.00    -0.385 OA
ATOM     35  C   UNL     1       4.658  -1.756  -8.171  0.00  0.00    +0.193 C 
ENDBRANCH  33  34
ENDBRANCH  32  33
ENDBRANCH  20  32
ENDBRANCH  19  20
ENDBRANCH   1  19
TORSDOF 12
