REMARK  Name = ZINC16612943
REMARK  7 active torsions:
REMARK  status: ('A' for Active; 'I' for Inactive)
REMARK    1  A    between atoms: C_4  and  N_7
REMARK    2  A    between atoms: N_9  and  C_23
REMARK    3  A    between atoms: C_18  and  C_20
REMARK    4  A    between atoms: C_23  and  C_24
REMARK    5  A    between atoms: N_26  and  C_27
REMARK    6  A    between atoms: C_27  and  C_28
REMARK    7  A    between atoms: C_28  and  C_29
REMARK                            x       y       z     vdW  Elec       q    Type
REMARK                         _______ _______ _______ _____ _____    ______ ____
ROOT
ATOM      1  N   UNL     1       2.223   0.725   0.412  0.00  0.00    -0.300 N 
ATOM      2  C   UNL     1       1.295   1.744  -0.130  0.00  0.00    +0.217 C 
ATOM      3  N   UNL     1      -0.047   1.153  -0.061  0.00  0.00    -0.275 N 
ATOM      4  C   UNL     1       0.055  -0.185   0.089  0.00  0.00    +0.241 C 
ATOM      5  O   UNL     1      -0.872  -0.963   0.168  0.00  0.00    -0.273 OA
ATOM      6  C   UNL     1       1.519  -0.546   0.142  0.00  0.00    +0.115 C 
ATOM      7  C   UNL     1       1.974  -1.122  -1.196  0.00  0.00    +0.054 C 
ATOM      8  C   UNL     1       1.199  -2.412  -1.484  0.00  0.00    +0.110 C 
ATOM      9  N   UNL     1       1.351  -3.320  -0.340  0.00  0.00    -0.301 N 
ATOM     10  C   UNL     1       1.005  -2.833   1.002  0.00  0.00    +0.110 C 
ATOM     11  C   UNL     1       1.781  -1.539   1.272  0.00  0.00    +0.054 C 
ATOM     12  C   UNL     1       1.802  -4.578  -0.517  0.00  0.00    +0.219 C 
ATOM     13  O   UNL     1       1.924  -5.319   0.436  0.00  0.00    -0.275 OA
ENDROOT
BRANCH   1  17
ATOM     14  C   UNL     1       5.890   0.848  -1.558  0.00  0.00    +0.000 A 
ATOM     15  C   UNL     1       4.947   1.833  -1.792  0.00  0.00    +0.002 A 
ATOM     16  C   UNL     1       3.730   1.795  -1.140  0.00  0.00    +0.023 A 
ATOM     17  C   UNL     1       3.453   0.766  -0.249  0.00  0.00    +0.032 A 
ATOM     18  C   UNL     1       4.404  -0.218  -0.012  0.00  0.00    +0.023 A 
ATOM     19  C   UNL     1       5.617  -0.177  -0.671  0.00  0.00    +0.002 A 
ENDBRANCH   1  17
BRANCH  12  20
ATOM     20  C   UNL     1       2.153  -5.065  -1.899  0.00  0.00    +0.075 C 
ATOM     21  C   UNL     1       1.253  -6.134  -2.522  0.00  0.00    +0.013 C 
ATOM     22  C   UNL     1       2.657  -6.503  -2.035  0.00  0.00    +0.013 C 
ENDBRANCH  12  20
BRANCH   3  23
ATOM     23  C   UNL     1      -1.305   1.899  -0.147  0.00  0.00    +0.205 C 
BRANCH  23  24
ATOM     24  C   UNL     1      -1.739   2.314   1.235  0.00  0.00    +0.230 C 
ATOM     25  O   UNL     1      -1.065   2.015   2.198  0.00  0.00    -0.274 OA
ATOM     26  N   UNL     1      -2.877   3.016   1.402  0.00  0.00    -0.314 N 
ATOM     27  H   UNL     1      -3.417   3.255   0.632  0.00  0.00    +0.149 HD
BRANCH  26  28
ATOM     28  C   UNL     1      -3.299   3.419   2.746  0.00  0.00    +0.109 C 
BRANCH  28  29
ATOM     29  C   UNL     1      -4.613   4.199   2.655  0.00  0.00    +0.055 C 
BRANCH  29  30
ATOM     30  C   UNL     1      -5.047   4.613   4.038  0.00  0.00    -0.027 A 
ATOM     31  C   UNL     1      -4.809   5.901   4.479  0.00  0.00    +0.006 A 
ATOM     32  C   UNL     1      -5.207   6.282   5.747  0.00  0.00    +0.020 A 
ATOM     33  C   UNL     1      -5.844   5.374   6.574  0.00  0.00    +0.042 A 
ATOM     34  C   UNL     1      -6.082   4.085   6.133  0.00  0.00    +0.040 A 
ATOM     35  C   UNL     1      -5.688   3.706   4.862  0.00  0.00    +0.046 A 
ATOM     36 CL   UNL     1      -5.992   2.090   4.305  0.00  0.00    -0.083 Cl
ATOM     37 CL   UNL     1      -6.344   5.853   8.167  0.00  0.00    -0.083 Cl
ENDBRANCH  29  30
ENDBRANCH  28  29
ENDBRANCH  26  28
ENDBRANCH  23  24
ENDBRANCH   3  23
TORSDOF 7
