REMARK  Name = ZINC01669103
REMARK  4 active torsions:
REMARK  status: ('A' for Active; 'I' for Inactive)
REMARK    1  A    between atoms: C_1  and  C_2
REMARK    2  A    between atoms: N_4  and  C_5
REMARK    3  A    between atoms: C_14  and  C_15
REMARK    4  A    between atoms: C_24  and  N_25
REMARK                            x       y       z     vdW  Elec       q    Type
REMARK                         _______ _______ _______ _____ _____    ______ ____
ROOT
ATOM      1  C   UNL     1       1.124   4.306  -1.188  0.00  0.00    +0.042 A 
ATOM      2  C   UNL     1       1.089   5.702  -1.187  0.00  0.00    +0.024 A 
ATOM      3  C   UNL     1       1.080   6.404  -0.021  0.00  0.00    +0.010 A 
ATOM      4  C   UNL     1       1.100   5.728   1.212  0.00  0.00    -0.017 A 
ATOM      5  C   UNL     1       1.091   6.435   2.427  0.00  0.00    +0.008 A 
ATOM      6  C   UNL     1       1.112   5.752   3.604  0.00  0.00    +0.001 A 
ATOM      7  C   UNL     1       1.142   4.359   3.624  0.00  0.00    +0.001 A 
ATOM      8  C   UNL     1       1.152   3.643   2.466  0.00  0.00    +0.009 A 
ATOM      9  C   UNL     1       1.131   4.313   1.234  0.00  0.00    -0.008 A 
ATOM     10  C   UNL     1       1.140   3.599   0.011  0.00  0.00    +0.013 A 
ENDROOT
BRANCH  10  11
ATOM     11  C   UNL     1       1.172   2.123   0.007  0.00  0.00    +0.013 A 
ATOM     12  C   UNL     1       2.409   1.434  -0.001  0.00  0.00    -0.008 A 
ATOM     13  C   UNL     1       3.627   2.128  -0.004  0.00  0.00    +0.009 A 
ATOM     14  C   UNL     1       4.800   1.433  -0.009  0.00  0.00    +0.001 A 
ATOM     15  C   UNL     1       4.806   0.040  -0.012  0.00  0.00    +0.001 A 
ATOM     16  C   UNL     1       3.642  -0.666  -0.011  0.00  0.00    +0.008 A 
ATOM     17  C   UNL     1       2.414   0.018  -0.004  0.00  0.00    -0.017 A 
ATOM     18  C   UNL     1       1.194  -0.683   0.001  0.00  0.00    +0.010 A 
ATOM     19  C   UNL     1       0.015  -0.004   0.008  0.00  0.00    +0.024 A 
ATOM     20  C   UNL     1      -0.013   1.393   0.011  0.00  0.00    +0.033 A 
BRANCH  20  21
ATOM     21  N   UNL     1      -1.237   2.060   0.013  0.00  0.00    -0.357 N 
ATOM     22  H   UNL     1      -2.065   1.555   0.012  0.00  0.00    +0.142 HD
ATOM     23  H   UNL     1      -1.261   3.030   0.015  0.00  0.00    +0.142 HD
ENDBRANCH  20  21
ENDBRANCH  10  11
BRANCH   1  27
ATOM     24  C   UNL     1       1.516   3.513  -4.844  0.00  0.00    +0.109 C 
ATOM     25  C   UNL     1       1.614   4.212  -3.513  0.00  0.00    +0.214 C 
ATOM     26  O   UNL     1       2.120   5.311  -3.440  0.00  0.00    -0.276 OA
ATOM     27  N   UNL     1       1.139   3.614  -2.402  0.00  0.00    -0.285 N 
ATOM     28  H   UNL     1       0.807   2.704  -2.445  0.00  0.00    +0.155 HD
ENDBRANCH   1  27
TORSDOF 3
