REMARK  Name = ZINC66576562
REMARK  7 active torsions:
REMARK  status: ('A' for Active; 'I' for Inactive)
REMARK    1  A    between atoms: C_1  and  C_2
REMARK    2  A    between atoms: C_2  and  C_3
REMARK    3  A    between atoms: C_2  and  N_4
REMARK    4  A    between atoms: C_7  and  N_10
REMARK    5  A    between atoms: N_10  and  S_11
REMARK    6  A    between atoms: S_11  and  C_14
REMARK    7  A    between atoms: C_16  and  N_21
REMARK                            x       y       z     vdW  Elec       q    Type
REMARK                         _______ _______ _______ _____ _____    ______ ____
ROOT
ATOM      1  S   UNL     1      -1.187  -1.813   5.739  0.00  0.00    +0.059 S 
ATOM      2  O   UNL     1      -0.741  -1.424   7.032  0.00  0.00    -0.153 OA
ATOM      3  O   UNL     1      -2.521  -1.604   5.298  0.00  0.00    -0.153 OA
ENDROOT
BRANCH   1   4
ATOM      4  C   UNL     1      -0.875  -3.542   5.599  0.00  0.00    +0.108 A 
ATOM      5  C   UNL     1      -1.604  -4.305   4.707  0.00  0.00    +0.061 A 
ATOM      6  C   UNL     1      -1.360  -5.661   4.596  0.00  0.00    +0.129 A 
ATOM      7  C   UNL     1      -0.386  -6.255   5.378  0.00  0.00    +0.048 A 
ATOM      8  C   UNL     1       0.344  -5.491   6.271  0.00  0.00    +0.022 A 
ATOM      9  C   UNL     1       0.103  -4.133   6.377  0.00  0.00    +0.044 A 
ATOM     10 BR   UNL     1       1.675  -6.302   7.341  0.00  0.00    -0.050 Br
BRANCH   6  11
ATOM     11  N   UNL     1      -2.141  -6.478   3.640  0.00  0.00    +0.057 N 
ATOM     12  O   UNL     1      -2.992  -5.960   2.957  0.00  0.00    -0.126 OA
ATOM     13  O   UNL     1      -1.927  -7.664   3.543  0.00  0.00    -0.126 OA
ENDBRANCH   6  11
ENDBRANCH   1   4
BRANCH   1  14
ATOM     14  N   UNL     1      -0.203  -1.048   4.649  0.00  0.00    -0.189 NA
ATOM     15  H   UNL     1       0.499  -0.455   4.962  0.00  0.00    +0.148 HD
BRANCH  14  19
ATOM     16  N   UNL     1       0.713  -0.491   1.192  0.00  0.00    +0.382 N 
ATOM     17  C   UNL     1       0.717  -1.969   1.199  0.00  0.00    -0.077 C 
ATOM     18  C   UNL     1       0.581  -2.358   2.692  0.00  0.00    -0.000 C 
ATOM     19  C   UNL     1      -0.391  -1.266   3.213  0.00  0.00    +0.058 C 
ATOM     20  C   UNL     1       0.026  -0.018   2.408  0.00  0.00    -0.058 C 
ATOM     21  H   UNL     1       1.662  -0.150   1.184  0.00  0.00    -0.081 HD
BRANCH  16  23
ATOM     22  C   UNL     1      -0.019   1.526   0.010  0.00  0.00    -0.014 C 
ATOM     23  C   UNL     1       0.002  -0.004   0.002  0.00  0.00    -0.075 C 
ATOM     24  C   UNL     1       0.718  -0.497  -1.257  0.00  0.00    -0.014 C 
ENDBRANCH  16  23
ENDBRANCH  14  19
ENDBRANCH   1  14
TORSDOF 5
