REMARK  Name = ZINC45715570
REMARK  5 active torsions:
REMARK  status: ('A' for Active; 'I' for Inactive)
REMARK    1  A    between atoms: C_3  and  O_24
REMARK    2  A    between atoms: C_6  and  C_7
REMARK    3  A    between atoms: N_9  and  C_13
REMARK    4  A    between atoms: C_13  and  N_14
REMARK    5  A    between atoms: O_24  and  C_25
REMARK                            x       y       z     vdW  Elec       q    Type
REMARK                         _______ _______ _______ _____ _____    ______ ____
ROOT
ATOM      1  C   UNL     1      -1.267  -0.762   0.011  0.00  0.00    +0.247 A 
ATOM      2  N   UNL     1      -1.371  -2.060   0.010  0.00  0.00    -0.131 NA
ATOM      3  N   UNL     1      -2.737  -2.380   0.020  0.00  0.00    -0.240 N 
ATOM      4  C   UNL     1      -3.413  -1.211   0.026  0.00  0.00    +0.265 A 
ATOM      5  S   UNL     1      -5.114  -1.025   0.039  0.00  0.00    +0.011 S 
ATOM      6  O   UNL     1      -2.504  -0.220   0.026  0.00  0.00    -0.412 OA
ENDROOT
BRANCH   1  12
ATOM      7  C   UNL     1      -0.017   1.392   0.010  0.00  0.00    +0.017 A 
ATOM      8  C   UNL     1       1.168   2.095   0.002  0.00  0.00    +0.046 A 
ATOM      9  C   UNL     1       2.380   1.417  -0.013  0.00  0.00    +0.127 A 
ATOM     10  C   UNL     1       2.403   0.029  -0.021  0.00  0.00    +0.046 A 
ATOM     11  C   UNL     1       1.222  -0.682  -0.014  0.00  0.00    +0.017 A 
ATOM     12  C   UNL     1       0.002  -0.004   0.002  0.00  0.00    +0.039 A 
BRANCH   9  13
ATOM     13  O   UNL     1       3.546   2.114  -0.022  0.00  0.00    -0.434 OA
BRANCH  13  14
ATOM     14  C   UNL     1       4.756   1.354  -0.038  0.00  0.00    +0.541 C 
ATOM     15  F   UNL     1       4.812   0.542   1.100  0.00  0.00    -0.166 F 
ATOM     16  F   UNL     1       4.789   0.553  -1.185  0.00  0.00    -0.166 F 
ENDBRANCH  13  14
ENDBRANCH   9  13
ENDBRANCH   1  12
BRANCH   3  17
ATOM     17  C   UNL     1      -3.319  -3.724   0.022  0.00  0.00    +0.073 C 
BRANCH  17  18
ATOM     18  N   UNL     1      -3.175  -4.317   1.359  0.00  0.00    +0.393 N 
ATOM     19  C   UNL     1      -3.962  -3.541   2.324  0.00  0.00    -0.071 C 
ATOM     20  C   UNL     1      -3.748  -4.103   3.731  0.00  0.00    +0.046 C 
ATOM     21  C   UNL     1      -4.190  -5.568   3.761  0.00  0.00    +0.167 C 
ATOM     22  C   UNL     1      -3.423  -6.355   2.697  0.00  0.00    +0.046 C 
ATOM     23  C   UNL     1      -3.650  -5.706   1.329  0.00  0.00    -0.071 C 
ATOM     24  O   UNL     1      -5.599  -5.648   3.493  0.00  0.00    -0.346 OA
ATOM     25  C   UNL     1      -6.071  -6.737   4.323  0.00  0.00    +0.191 C 
ATOM     26  C   UNL     1      -5.194  -6.571   5.589  0.00  0.00    +0.191 C 
ATOM     27  O   UNL     1      -3.931  -6.125   5.055  0.00  0.00    -0.346 OA
ATOM     28  H   UNL     1      -2.203  -4.301   1.630  0.00  0.00    -0.079 HD
ENDBRANCH  17  18
ENDBRANCH   3  17
TORSDOF 5
