REMARK  Name = ZINC38607047
REMARK  10 active torsions:
REMARK  status: ('A' for Active; 'I' for Inactive)
REMARK    1  A    between atoms: C_1  and  C_2
REMARK    2  A    between atoms: C_2  and  S_3
REMARK    3  A    between atoms: S_3  and  C_4
REMARK    4  A    between atoms: C_7  and  C_10
REMARK    5  A    between atoms: C_11  and  C_21
REMARK    6  A    between atoms: N_13  and  C_15
REMARK    7  A    between atoms: C_23  and  C_39
REMARK    8  A    between atoms: C_24  and  C_37
REMARK    9  A    between atoms: N_27  and  C_30
REMARK   10  A    between atoms: C_30  and  C_31
REMARK                            x       y       z     vdW  Elec       q    Type
REMARK                         _______ _______ _______ _____ _____    ______ ____
ROOT
ATOM      1  C   UNL     1       0.719  -6.896   0.670  0.00  0.00    +0.100 A 
ATOM      2  C   UNL     1       1.687  -7.563   1.555  0.00  0.00    +0.021 A 
ATOM      3  C   UNL     1       1.036  -8.680   2.068  0.00  0.00    +0.123 A 
ATOM      4  N   UNL     1      -0.203  -8.701   1.556  0.00  0.00    -0.239 N 
ATOM      5  N   UNL     1      -0.386  -7.605   0.709  0.00  0.00    -0.166 NA
ENDROOT
BRANCH   2   6
ATOM      6  C   UNL     1       3.011  -7.153   1.826  0.00  0.00    +0.025 C 
ATOM      7  C   UNL     1       4.052  -8.077   1.769  0.00  0.00    +0.042 C 
ATOM      8  C   UNL     1       3.912  -9.267   1.020  0.00  0.00    -0.016 C 
ATOM      9  C   UNL     1       4.971 -10.162   0.987  0.00  0.00    +0.117 C 
ATOM     10  C   UNL     1       6.199  -9.857   1.724  0.00  0.00    +0.264 C 
ATOM     11  O   UNL     1       7.129 -10.643   1.694  0.00  0.00    -0.269 OA
ATOM     12  N   UNL     1       6.314  -8.720   2.431  0.00  0.00    -0.231 N 
ATOM     13  C   UNL     1       5.312  -7.823   2.482  0.00  0.00    +0.253 C 
ATOM     14  O   UNL     1       5.447  -6.800   3.127  0.00  0.00    -0.270 OA
ATOM     15  C   UNL     1       2.637  -9.558   0.272  0.00  0.00    +0.046 C 
BRANCH   9  16
ATOM     16  C   UNL     1       4.863 -11.378   0.239  0.00  0.00    +0.105 C 
ATOM     17  N   UNL     1       4.777 -12.343  -0.355  0.00  0.00    -0.191 NA
ENDBRANCH   9  16
BRANCH  12  18
ATOM     18  C   UNL     1       7.558  -8.447   3.155  0.00  0.00    +0.148 C 
BRANCH  18  19
ATOM     19  C   UNL     1       8.521  -7.683   2.245  0.00  0.00    +0.136 C 
ATOM     20  C   UNL     1       9.879  -7.497   2.957  0.00  0.00    +0.035 C 
ATOM     21  C   UNL     1      10.276  -6.055   2.538  0.00  0.00    +0.031 C 
ATOM     22  C   UNL     1       8.886  -5.373   2.477  0.00  0.00    +0.160 C 
ATOM     23  O   UNL     1       7.995  -6.380   1.965  0.00  0.00    -0.375 OA
ENDBRANCH  18  19
ENDBRANCH  12  18
ENDBRANCH   2   6
BRANCH   1  27
ATOM     24  C   UNL     1       1.366  -3.340  -1.569  0.00  0.00    +0.008 A 
ATOM     25  C   UNL     1       0.562  -4.351  -2.088  0.00  0.00    +0.015 A 
ATOM     26  C   UNL     1       0.351  -5.504  -1.364  0.00  0.00    +0.011 A 
ATOM     27  C   UNL     1       0.944  -5.658  -0.110  0.00  0.00    +0.003 A 
ATOM     28  C   UNL     1       1.750  -4.643   0.408  0.00  0.00    +0.011 A 
ATOM     29  C   UNL     1       1.963  -3.494  -0.322  0.00  0.00    +0.015 A 
BRANCH  24  30
ATOM     30  S   UNL     1       1.634  -1.867  -2.497  0.00  0.00    -0.125 S 
BRANCH  30  32
ATOM     31  C   UNL     1       0.822  -0.901  -4.925  0.00  0.00    +0.015 C 
ATOM     32  C   UNL     1       0.675  -2.123  -4.016  0.00  0.00    +0.071 C 
ENDBRANCH  30  32
ENDBRANCH  24  30
ENDBRANCH   1  27
BRANCH   4  33
ATOM     33  C   UNL     1      -1.172  -9.674   1.833  0.00  0.00    +0.065 A 
ATOM     34  C   UNL     1      -0.882 -10.717   2.703  0.00  0.00    +0.028 A 
ATOM     35  C   UNL     1      -1.839 -11.675   2.974  0.00  0.00    +0.002 A 
ATOM     36  C   UNL     1      -3.085 -11.596   2.380  0.00  0.00    +0.000 A 
ATOM     37  C   UNL     1      -3.377 -10.559   1.514  0.00  0.00    +0.002 A 
ATOM     38  C   UNL     1      -2.427  -9.594   1.243  0.00  0.00    +0.028 A 
ENDBRANCH   4  33
TORSDOF 8
