REMARK  Name = ZINC37974438
REMARK  4 active torsions:
REMARK  status: ('A' for Active; 'I' for Inactive)
REMARK    1  A    between atoms: C_1  and  C_2
REMARK    2  A    between atoms: C_2  and  C_4
REMARK    3  A    between atoms: C_2  and  O_10
REMARK    4  A    between atoms: O_10  and  C_11
REMARK                            x       y       z     vdW  Elec       q    Type
REMARK                         _______ _______ _______ _____ _____    ______ ____
ROOT
ATOM      1  O   UNL     1       0.671  -0.465  -1.174  0.00  0.00    -0.479 OA
ENDROOT
BRANCH   1   2
ATOM      2  C   UNL     1       2.026  -0.553  -1.118  0.00  0.00    +0.136 A 
ATOM      3  C   UNL     1       2.684  -0.304   0.090  0.00  0.00    +0.047 A 
ATOM      4  C   UNL     1       4.039  -0.385   0.178  0.00  0.00    +0.012 A 
ATOM      5  C   UNL     1       4.793  -0.722  -0.960  0.00  0.00    -0.017 A 
ATOM      6  C   UNL     1       6.194  -0.814  -0.904  0.00  0.00    +0.008 A 
ATOM      7  C   UNL     1       6.893  -1.143  -2.025  0.00  0.00    +0.001 A 
ATOM      8  C   UNL     1       6.239  -1.391  -3.231  0.00  0.00    +0.001 A 
ATOM      9  C   UNL     1       4.884  -1.311  -3.322  0.00  0.00    +0.010 A 
ATOM     10  C   UNL     1       4.128  -0.974  -2.186  0.00  0.00    -0.000 A 
ATOM     11  C   UNL     1       2.727  -0.888  -2.242  0.00  0.00    +0.067 A 
ATOM     12 BR   UNL     1       1.817  -1.229  -3.864  0.00  0.00    -0.046 Br
ENDBRANCH   1   2
BRANCH   1  14
ATOM     13  C   UNL     1      -0.046   1.265   0.354  0.00  0.00    +0.062 C 
ATOM     14  C   UNL     1      -0.016  -0.236   0.058  0.00  0.00    +0.256 C 
BRANCH  14  15
ATOM     15  C   UNL     1      -1.426  -0.756  -0.049  0.00  0.00    +0.261 C 
ATOM     16  O   UNL     1      -1.834  -1.188  -1.105  0.00  0.00    -0.271 OA
ATOM     17  N   UNL     1      -2.234  -0.740   1.030  0.00  0.00    -0.237 N 
ATOM     18  C   UNL     1      -3.495  -1.204   0.935  0.00  0.00    +0.303 C 
ATOM     19  O   UNL     1      -3.905  -1.638  -0.124  0.00  0.00    -0.253 OA
ATOM     20  N   UNL     1      -4.303  -1.188   2.013  0.00  0.00    -0.313 N 
ATOM     21  H   UNL     1      -1.907  -0.393   1.875  0.00  0.00    +0.159 HD
ATOM     22  H   UNL     1      -3.977  -0.842   2.859  0.00  0.00    +0.146 HD
ATOM     23  H   UNL     1      -5.211  -1.523   1.944  0.00  0.00    +0.146 HD
ENDBRANCH  14  15
ENDBRANCH   1  14
TORSDOF 3
