REMARK  Name = ZINC13415286
REMARK  9 active torsions:
REMARK  status: ('A' for Active; 'I' for Inactive)
REMARK    1  A    between atoms: C_1  and  C_2
REMARK    2  A    between atoms: C_3  and  C_31
REMARK    3  A    between atoms: C_5  and  C_7
REMARK    4  A    between atoms: C_8  and  C_9
REMARK    5  A    between atoms: N_11  and  C_12
REMARK    6  A    between atoms: C_15  and  S_18
REMARK    7  A    between atoms: S_18  and  N_21
REMARK    8  A    between atoms: C_22  and  C_30
REMARK    9  A    between atoms: C_27  and  C_29
REMARK                            x       y       z     vdW  Elec       q    Type
REMARK                         _______ _______ _______ _____ _____    ______ ____
ROOT
ATOM      1  C   UNL     1       2.898   3.477  -1.288  0.00  0.00    +0.034 A 
ATOM      2  C   UNL     1       1.516   3.613  -1.256  0.00  0.00    +0.025 A 
ATOM      3  C   UNL     1       0.950   4.798  -0.829  0.00  0.00    +0.030 A 
ATOM      4  C   UNL     1       1.757   5.852  -0.444  0.00  0.00    +0.106 A 
ATOM      5  C   UNL     1       3.134   5.722  -0.479  0.00  0.00    +0.030 A 
ATOM      6  C   UNL     1       3.706   4.538  -0.900  0.00  0.00    +0.025 A 
ENDROOT
BRANCH   1   9
ATOM      7  C   UNL     1       4.613   1.836  -1.145  0.00  0.00    +0.241 C 
ATOM      8  O   UNL     1       5.179   2.517  -0.310  0.00  0.00    -0.270 OA
ATOM      9  N   UNL     1       3.474   2.277  -1.715  0.00  0.00    -0.282 N 
ATOM     10  H   UNL     1       3.054   1.762  -2.422  0.00  0.00    +0.155 HD
BRANCH   7  12
ATOM     11  C   UNL     1       6.293   0.134  -0.941  0.00  0.00    +0.051 C 
ATOM     12  C   UNL     1       5.147   0.578  -1.514  0.00  0.00    +0.071 C 
BRANCH  11  17
ATOM     13  C   UNL     1       6.793  -4.241  -3.222  0.00  0.00    +0.087 C 
ATOM     14  C   UNL     1       7.056  -3.066  -2.317  0.00  0.00    +0.117 A 
ATOM     15  C   UNL     1       8.124  -2.936  -1.453  0.00  0.00    +0.104 A 
ATOM     16  C   UNL     1       7.969  -1.683  -0.809  0.00  0.00    +0.064 A 
ATOM     17  C   UNL     1       6.828  -1.126  -1.310  0.00  0.00    +0.129 A 
ATOM     18  O   UNL     1       6.292  -1.975  -2.210  0.00  0.00    -0.460 OA
BRANCH  15  19
ATOM     19  C   UNL     1       9.211  -3.908  -1.242  0.00  0.00    +0.390 C 
ATOM     20  O   UNL     1       9.222  -4.952  -1.865  0.00  0.00    -0.240 OA
ATOM     21  O   UNL     1      10.192  -3.640  -0.358  0.00  0.00    -0.240 OA
ENDBRANCH  15  19
ENDBRANCH  11  17
ENDBRANCH   7  12
ENDBRANCH   1   9
BRANCH   4  22
ATOM     22  S   UNL     1       1.031   7.365   0.093  0.00  0.00    +0.061 S 
ATOM     23  O   UNL     1      -0.211   7.028   0.697  0.00  0.00    -0.153 OA
ATOM     24  O   UNL     1       2.046   8.079   0.786  0.00  0.00    -0.153 OA
BRANCH  22  25
ATOM     25  N   UNL     1       0.675   8.246  -1.263  0.00  0.00    -0.171 NA
ATOM     26  C   UNL     1      -0.685   8.248  -1.818  0.00  0.00    +0.077 C 
ATOM     27  C   UNL     1      -1.153   9.704  -1.961  0.00  0.00    +0.020 C 
ATOM     28  C   UNL     1      -0.133  10.482  -2.795  0.00  0.00    +0.003 C 
ATOM     29  C   UNL     1       1.221  10.479  -2.081  0.00  0.00    +0.020 C 
ATOM     30  C   UNL     1       1.714   9.036  -1.937  0.00  0.00    +0.077 C 
ATOM     31  C   UNL     1       2.997   9.013  -1.103  0.00  0.00    +0.026 C 
ATOM     32  C   UNL     1      -0.680   7.570  -3.190  0.00  0.00    +0.026 C 
ENDBRANCH  22  25
ENDBRANCH   4  22
TORSDOF 6
