REMARK  Name = ZINC40545192
REMARK  5 active torsions:
REMARK  status: ('A' for Active; 'I' for Inactive)
REMARK    1  A    between atoms: C_1  and  C_2
REMARK    2  A    between atoms: C_2  and  C_3
REMARK    3  A    between atoms: C_14  and  C_21
REMARK    4  A    between atoms: C_16  and  N_20
REMARK    5  A    between atoms: C_17  and  C_18
REMARK                            x       y       z     vdW  Elec       q    Type
REMARK                         _______ _______ _______ _____ _____    ______ ____
ROOT
ATOM      1  C   UNL     1      -1.412  -0.526   0.013  0.00  0.00    -0.045 A 
ATOM      2  C   UNL     1      -2.050  -0.766   1.215  0.00  0.00    +0.030 A 
ATOM      3  C   UNL     1      -3.353  -1.246   1.226  0.00  0.00    +0.074 A 
ATOM      4  C   UNL     1      -4.017  -1.486   0.028  0.00  0.00    +0.159 A 
ATOM      5  C   UNL     1      -3.367  -1.242  -1.175  0.00  0.00    +0.062 A 
ATOM      6  C   UNL     1      -2.071  -0.758  -1.179  0.00  0.00    +0.022 A 
ATOM      7 BR   UNL     1      -4.258  -1.565  -2.811  0.00  0.00    -0.046 Br
ATOM      8  O   UNL     1      -5.273  -1.950   0.273  0.00  0.00    -0.457 OA
ATOM      9  C   UNL     1      -5.464  -2.020   1.687  0.00  0.00    +0.240 C 
ATOM     10  N   UNL     1      -4.207  -1.565   2.292  0.00  0.00    -0.296 N 
ATOM     11  C   UNL     1      -6.591  -1.117   2.103  0.00  0.00    +0.088 C 
ATOM     12  C   UNL     1      -7.759  -1.600   2.451  0.00  0.00    +0.106 C 
ATOM     13  O   UNL     1      -8.020  -2.925   2.456  0.00  0.00    -0.446 OA
ATOM     14  C   UNL     1      -7.005  -3.809   2.462  0.00  0.00    +0.203 C 
ATOM     15  C   UNL     1      -5.750  -3.438   2.101  0.00  0.00    +0.152 C 
ATOM     16  C   UNL     1      -8.849  -0.643   2.861  0.00  0.00    +0.086 C 
ATOM     17  H   UNL     1      -4.007  -1.497   3.239  0.00  0.00    +0.151 HD
ENDROOT
BRANCH  14  18
ATOM     18  N   UNL     1      -7.243  -5.107   2.838  0.00  0.00    -0.328 N 
ATOM     19  H   UNL     1      -8.137  -5.381   3.097  0.00  0.00    +0.145 HD
ATOM     20  H   UNL     1      -6.518  -5.751   2.844  0.00  0.00    +0.145 HD
ENDBRANCH  14  18
BRANCH   1  22
ATOM     21  C   UNL     1      -0.019   1.526   0.010  0.00  0.00    +0.009 C 
ATOM     22  C   UNL     1       0.002  -0.004   0.002  0.00  0.00    +0.032 C 
ENDBRANCH   1  22
BRANCH  15  23
ATOM     23  C   UNL     1      -4.691  -4.402   2.116  0.00  0.00    +0.106 C 
ATOM     24  N   UNL     1      -3.851  -5.166   2.127  0.00  0.00    -0.191 NA
ENDBRANCH  15  23
TORSDOF 3
