REMARK  Name = ZINC31027370
REMARK  3 active torsions:
REMARK  status: ('A' for Active; 'I' for Inactive)
REMARK    1  A    between atoms: C_4  and  N_6
REMARK    2  A    between atoms: N_9  and  N_10
REMARK    3  A    between atoms: C_11  and  C_13
REMARK                            x       y       z     vdW  Elec       q    Type
REMARK                         _______ _______ _______ _____ _____    ______ ____
ROOT
ATOM      1  N   UNL     1       1.129   3.003   0.007  0.00  0.00    -0.295 N 
ATOM      2  C   UNL     1       1.147   1.655   0.000  0.00  0.00    +0.316 C 
ATOM      3  O   UNL     1       2.208   1.062  -0.013  0.00  0.00    -0.251 OA
ATOM      4  N   UNL     1      -0.011   0.966   0.007  0.00  0.00    -0.218 N 
ATOM      5  H   UNL     1       0.169   3.540   0.019  0.00  0.00    +0.151 HD
ATOM      6  H   UNL     1       0.004  -0.134   0.006  0.00  0.00    +0.174 HD
ENDROOT
BRANCH   1  10
ATOM      7  C   UNL     1       3.497   5.390   1.427  0.00  0.00    +0.002 C 
ATOM      8  C   UNL     1       2.532   6.168   0.498  0.00  0.00    +0.002 C 
ATOM      9  C   UNL     1       2.164   5.152  -0.602  0.00  0.00    +0.022 C 
ATOM     10  C   UNL     1       2.387   3.753  -0.001  0.00  0.00    +0.074 C 
ATOM     11  C   UNL     1       2.883   3.968   1.444  0.00  0.00    +0.022 C 
ENDBRANCH   1  10
BRANCH   4  12
ATOM     12  N   UNL     1      -1.234   1.650   0.017  0.00  0.00    -0.233 N 
ATOM     13  C   UNL     1      -2.392   0.960   0.019  0.00  0.00    +0.234 C 
ATOM     14  O   UNL     1      -2.375  -0.253   0.012  0.00  0.00    -0.274 OA
ATOM     15  H   UNL     1      -1.249   2.750   0.023  0.00  0.00    +0.173 HD
BRANCH  13  16
ATOM     16  C   UNL     1      -3.707   1.696   0.029  0.00  0.00    +0.099 C 
ATOM     17  C   UNL     1      -3.815   2.549   1.304  0.00  0.00    +0.037 C 
ATOM     18  C   UNL     1      -5.269   3.048   1.483  0.00  0.00    +0.166 C 
ATOM     19  S   UNL     1      -6.252   1.737   0.648  0.00  0.00    -0.030 S 
ATOM     20  O   UNL     1      -6.934   2.306  -0.461  0.00  0.00    -0.174 OA
ATOM     21  O   UNL     1      -6.989   1.017   1.627  0.00  0.00    -0.174 OA
ATOM     22  C   UNL     1      -4.880   0.674   0.029  0.00  0.00    +0.178 C 
ENDBRANCH  13  16
ENDBRANCH   4  12
TORSDOF 3
