REMARK  Name = ZINC04570966
REMARK  9 active torsions:
REMARK  status: ('A' for Active; 'I' for Inactive)
REMARK    1  A    between atoms: C_1  and  C_2
REMARK    2  A    between atoms: C_4  and  C_27
REMARK    3  A    between atoms: C_6  and  N_8
REMARK    4  A    between atoms: C_9  and  C_11
REMARK    5  A    between atoms: C_11  and  S_12
REMARK    6  A    between atoms: S_12  and  C_13
REMARK    7  A    between atoms: N_17  and  C_18
REMARK    8  A    between atoms: N_19  and  C_26
REMARK    9  A    between atoms: N_22  and  C_25
REMARK                            x       y       z     vdW  Elec       q    Type
REMARK                         _______ _______ _______ _____ _____    ______ ____
ROOT
ATOM      1  S   UNL     1      -4.160   1.927   0.078  0.00  0.00    -0.078 S 
ENDROOT
BRANCH   1   2
ATOM      2  C   UNL     1      -5.420   0.705   0.230  0.00  0.00    +0.171 A 
ATOM      3  N   UNL     1      -5.216  -0.586   0.322  0.00  0.00    -0.215 NA
ATOM      4  C   UNL     1      -6.415  -1.217   0.426  0.00  0.00    +0.172 A 
ATOM      5  C   UNL     1      -7.404  -0.243   0.394  0.00  0.00    +0.151 A 
ATOM      6  N   UNL     1      -6.765   0.956   0.278  0.00  0.00    -0.308 N 
ATOM      7  C   UNL     1      -7.402   2.273   0.211  0.00  0.00    +0.153 C 
ATOM      8  N   UNL     1      -8.724  -0.623   0.484  0.00  0.00    -0.281 N 
ATOM      9  C   UNL     1      -9.060  -1.920   0.601  0.00  0.00    +0.333 A 
ATOM     10  O   UNL     1     -10.237  -2.217   0.677  0.00  0.00    -0.246 OA
ATOM     11  N   UNL     1      -8.141  -2.899   0.635  0.00  0.00    -0.262 N 
ATOM     12  C   UNL     1      -6.823  -2.615   0.554  0.00  0.00    +0.284 A 
ATOM     13  O   UNL     1      -5.992  -3.505   0.586  0.00  0.00    -0.265 OA
ATOM     14  C   UNL     1      -8.573  -4.292   0.764  0.00  0.00    +0.157 C 
ATOM     15  C   UNL     1      -9.775   0.397   0.452  0.00  0.00    +0.155 C 
ENDBRANCH   1   2
BRANCH   1  16
ATOM     16  C   UNL     1      -2.692   0.868   0.093  0.00  0.00    +0.173 C 
BRANCH  16  18
ATOM     17  N   UNL     1      -0.237   1.145  -0.040  0.00  0.00    -0.285 N 
ATOM     18  C   UNL     1      -1.456   1.721  -0.030  0.00  0.00    +0.227 C 
ATOM     19  O   UNL     1      -1.557   2.926  -0.119  0.00  0.00    -0.275 OA
ATOM     20  H   UNL     1      -0.158   0.178  -0.032  0.00  0.00    +0.155 HD
BRANCH  17  26
ATOM     21  C   UNL     1       4.429   1.891   1.317  0.00  0.00    +0.044 C 
ATOM     22  C   UNL     1       3.189   2.327   0.580  0.00  0.00    -0.048 A 
ATOM     23  C   UNL     1       3.188   3.515  -0.127  0.00  0.00    +0.006 A 
ATOM     24  C   UNL     1       2.052   3.919  -0.804  0.00  0.00    -0.048 A 
ATOM     25  C   UNL     1       0.915   3.135  -0.778  0.00  0.00    +0.026 A 
ATOM     26  C   UNL     1       0.913   1.941  -0.069  0.00  0.00    +0.034 A 
ATOM     27  C   UNL     1       2.053   1.542   0.615  0.00  0.00    +0.026 A 
ATOM     28  C   UNL     1       2.055   5.215  -1.573  0.00  0.00    +0.044 C 
ENDBRANCH  17  26
ENDBRANCH  16  18
ENDBRANCH   1  16
TORSDOF 4
