REMARK  Name = ZINC02367996
REMARK  7 active torsions:
REMARK  status: ('A' for Active; 'I' for Inactive)
REMARK    1  A    between atoms: C_1  and  C_2
REMARK    2  A    between atoms: C_9  and  O_27
REMARK    3  A    between atoms: C_10  and  C_13
REMARK    4  A    between atoms: C_14  and  C_15
REMARK    5  A    between atoms: C_14  and  S_17
REMARK    6  A    between atoms: S_17  and  C_20
REMARK    7  A    between atoms: O_27  and  C_28
REMARK                            x       y       z     vdW  Elec       q    Type
REMARK                         _______ _______ _______ _____ _____    ______ ____
ROOT
ATOM      1  C   UNL     1      -2.429   5.651  -7.696  0.00  0.00    +0.047 C 
ATOM      2  C   UNL     1      -3.082   4.615  -6.817  0.00  0.00    -0.007 A 
ATOM      3  C   UNL     1      -4.304   4.108  -7.147  0.00  0.00    +0.008 A 
ATOM      4  C   UNL     1      -4.899   3.146  -6.319  0.00  0.00    +0.019 A 
ATOM      5  C   UNL     1      -4.263   2.725  -5.203  0.00  0.00    +0.096 A 
ATOM      6  N   UNL     1      -3.041   3.226  -4.865  0.00  0.00    -0.267 N 
ATOM      7  C   UNL     1      -2.436   4.166  -5.652  0.00  0.00    +0.147 A 
ATOM      8  N   UNL     1      -1.241   4.667  -5.338  0.00  0.00    -0.194 NA
ATOM      9  C   UNL     1      -0.589   4.279  -4.253  0.00  0.00    +0.235 A 
ATOM     10  C   UNL     1      -1.164   3.312  -3.402  0.00  0.00    +0.104 A 
ATOM     11  C   UNL     1      -2.430   2.781  -3.746  0.00  0.00    +0.269 A 
ATOM     12  O   UNL     1      -2.962   1.940  -3.042  0.00  0.00    -0.266 OA
ENDROOT
BRANCH  10  13
ATOM     13  C   UNL     1      -0.488   2.877  -2.234  0.00  0.00    +0.057 C 
ATOM     14  C   UNL     1       0.761   2.356  -2.328  0.00  0.00    +0.171 C 
BRANCH  14  15
ATOM     15  S   UNL     1       1.664   1.964  -0.866  0.00  0.00    +0.035 S 
ATOM     16  O   UNL     1       2.955   2.537  -1.020  0.00  0.00    -0.164 OA
ATOM     17  O   UNL     1       0.817   2.277   0.231  0.00  0.00    -0.164 OA
BRANCH  15  18
ATOM     18  C   UNL     1       1.888   0.216  -0.846  0.00  0.00    +0.094 A 
ATOM     19  C   UNL     1       0.951  -0.594  -0.232  0.00  0.00    +0.029 A 
ATOM     20  C   UNL     1       1.124  -1.965  -0.221  0.00  0.00    +0.022 A 
ATOM     21  C   UNL     1       2.241  -2.526  -0.814  0.00  0.00    +0.041 A 
ATOM     22  C   UNL     1       3.181  -1.714  -1.424  0.00  0.00    +0.022 A 
ATOM     23  C   UNL     1       3.004  -0.344  -1.439  0.00  0.00    +0.029 A 
ATOM     24 CL   UNL     1       2.462  -4.248  -0.795  0.00  0.00    -0.084 Cl
ENDBRANCH  15  18
ENDBRANCH  14  15
BRANCH  14  25
ATOM     25  C   UNL     1       1.346   2.125  -3.614  0.00  0.00    +0.119 C 
ATOM     26  N   UNL     1       1.810   1.942  -4.635  0.00  0.00    -0.189 NA
ENDBRANCH  14  25
ENDBRANCH  10  13
BRANCH   9  27
ATOM     27  O   UNL     1       0.622   4.807  -3.963  0.00  0.00    -0.434 OA
BRANCH  27  28
ATOM     28  C   UNL     1       1.083   5.818  -4.746  0.00  0.00    +0.165 A 
ATOM     29  C   UNL     1       1.939   5.543  -5.802  0.00  0.00    +0.049 A 
ATOM     30  C   UNL     1       2.403   6.572  -6.600  0.00  0.00    +0.004 A 
ATOM     31  C   UNL     1       2.021   7.875  -6.342  0.00  0.00    +0.003 A 
ATOM     32  C   UNL     1       1.172   8.154  -5.287  0.00  0.00    +0.042 A 
ATOM     33  C   UNL     1       0.701   7.128  -4.488  0.00  0.00    +0.165 A 
ATOM     34  F   UNL     1      -0.130   7.400  -3.458  0.00  0.00    -0.202 F 
ENDBRANCH  27  28
ENDBRANCH   9  27
TORSDOF 6
