REMARK  Name = ZINC57342444
REMARK  1 active torsions:
REMARK  status: ('A' for Active; 'I' for Inactive)
REMARK    1  A    between atoms: C_15  and  C_20
REMARK                            x       y       z     vdW  Elec       q    Type
REMARK                         _______ _______ _______ _____ _____    ______ ____
ROOT
ATOM      1  C   UNL     1       2.361   1.436   0.005  0.00  0.00    +0.005 A 
ATOM      2  C   UNL     1       1.118   2.056   0.004  0.00  0.00    +0.018 A 
ATOM      3  C   UNL     1      -0.024   1.281  -0.007  0.00  0.00    +0.084 A 
ATOM      4  N   UNL     1       0.052  -0.036  -0.015  0.00  0.00    -0.350 N 
ATOM      5  C   UNL     1       1.218  -0.664  -0.013  0.00  0.00    +0.099 A 
ATOM      6  C   UNL     1       2.409   0.054  -0.003  0.00  0.00    +0.042 A 
ATOM      7  N   UNL     1       1.252  -2.054  -0.021  0.00  0.00    -0.314 N 
ATOM      8  C   UNL     1       2.528  -2.770  -0.151  0.00  0.00    +0.125 C 
ATOM      9  C   UNL     1       2.670  -3.737   1.032  0.00  0.00    +0.127 C 
ATOM     10  N   UNL     1       1.430  -4.516   1.153  0.00  0.00    -0.298 N 
ATOM     11  C   UNL     1       0.153  -3.799   1.283  0.00  0.00    +0.127 C 
ATOM     12  C   UNL     1       0.012  -2.833   0.106  0.00  0.00    +0.125 C 
ATOM     13  C   UNL     1       1.463  -5.884   1.145  0.00  0.00    +0.199 A 
ATOM     14  N   UNL     1       2.626  -6.504   1.136  0.00  0.00    -0.212 NA
ATOM     15  C   UNL     1       2.703  -7.833   1.128  0.00  0.00    +0.152 A 
ATOM     16  C   UNL     1       1.564  -8.584   1.129  0.00  0.00    +0.102 A 
ATOM     17  C   UNL     1       0.319  -7.931   1.139  0.00  0.00    +0.253 A 
ATOM     18  N   UNL     1       0.294  -6.581   1.152  0.00  0.00    -0.295 N 
ATOM     19  O   UNL     1      -0.719  -8.572   1.140  0.00  0.00    -0.268 OA
ATOM     20  H   UNL     1      -0.553  -6.110   1.163  0.00  0.00    +0.172 HD
ATOM     21  H   UNL     1      -0.766  -0.557  -0.022  0.00  0.00    +0.166 HD
ENDROOT
BRANCH  15  22
ATOM     22  C   UNL     1       4.050  -8.508   1.117  0.00  0.00    +0.434 C 
ATOM     23  F   UNL     1       3.876  -9.896   1.110  0.00  0.00    -0.164 F 
ATOM     24  F   UNL     1       4.757  -8.121  -0.027  0.00  0.00    -0.164 F 
ATOM     25  F   UNL     1       4.769  -8.134   2.257  0.00  0.00    -0.164 F 
ENDBRANCH  15  22
TORSDOF 1
