REMARK  Name = ZINC09141420
REMARK  8 active torsions:
REMARK  status: ('A' for Active; 'I' for Inactive)
REMARK    1  A    between atoms: C_6  and  N_7
REMARK    2  A    between atoms: N_7  and  C_8
REMARK    3  A    between atoms: N_7  and  S_19
REMARK    4  A    between atoms: C_8  and  C_9
REMARK    5  A    between atoms: N_11  and  C_12
REMARK    6  A    between atoms: C_12  and  C_13
REMARK    7  A    between atoms: S_19  and  C_22
REMARK    8  A    between atoms: C_26  and  N_28
REMARK                            x       y       z     vdW  Elec       q    Type
REMARK                         _______ _______ _______ _____ _____    ______ ____
ROOT
ATOM      1  N   UNL     1      -1.006  -2.174  -0.016  0.00  0.00    -0.194 N 
ENDROOT
BRANCH   1   7
ATOM      2  C   UNL     1      -0.469  -3.968   1.507  0.00  0.00    +0.026 A 
ATOM      3  C   UNL     1      -0.403  -4.465   2.794  0.00  0.00    +0.022 A 
ATOM      4  C   UNL     1      -0.820  -3.687   3.860  0.00  0.00    +0.041 A 
ATOM      5  C   UNL     1      -1.298  -2.407   3.640  0.00  0.00    +0.022 A 
ATOM      6  C   UNL     1      -1.361  -1.903   2.356  0.00  0.00    +0.026 A 
ATOM      7  C   UNL     1      -0.943  -2.682   1.285  0.00  0.00    +0.052 A 
ATOM      8 CL   UNL     1      -0.742  -4.318   5.476  0.00  0.00    -0.084 Cl
ENDBRANCH   1   7
BRANCH   1   9
ATOM      9  S   UNL     1      -2.040  -2.849  -1.119  0.00  0.00    +0.075 S 
ATOM     10  O   UNL     1      -2.995  -3.595  -0.378  0.00  0.00    -0.150 OA
ATOM     11  O   UNL     1      -2.413  -1.810  -2.014  0.00  0.00    -0.150 OA
BRANCH   9  12
ATOM     12  C   UNL     1      -1.110  -4.013  -2.060  0.00  0.00    +0.111 A 
ATOM     13  C   UNL     1      -0.367  -3.589  -3.145  0.00  0.00    +0.030 A 
ATOM     14  C   UNL     1       0.366  -4.501  -3.880  0.00  0.00    +0.024 A 
ATOM     15  C   UNL     1       0.348  -5.841  -3.536  0.00  0.00    +0.071 A 
ATOM     16  C   UNL     1      -0.401  -6.266  -2.453  0.00  0.00    +0.146 A 
ATOM     17  C   UNL     1      -1.129  -5.352  -1.715  0.00  0.00    +0.063 A 
ATOM     18 CL   UNL     1       1.263  -6.989  -4.462  0.00  0.00    -0.081 Cl
BRANCH  16  19
ATOM     19  N   UNL     1      -0.421  -7.699  -2.083  0.00  0.00    +0.058 N 
ATOM     20  O   UNL     1      -1.079  -8.073  -1.129  0.00  0.00    -0.126 OA
ATOM     21  O   UNL     1       0.221  -8.505  -2.733  0.00  0.00    -0.126 OA
ENDBRANCH  16  19
ENDBRANCH   9  12
ENDBRANCH   1   9
BRANCH   1  22
ATOM     22  C   UNL     1      -0.157  -1.045  -0.403  0.00  0.00    +0.227 C 
BRANCH  22  23
ATOM     23  C   UNL     1       1.198  -1.555  -0.822  0.00  0.00    +0.232 C 
ATOM     24  O   UNL     1       1.431  -2.745  -0.799  0.00  0.00    -0.274 OA
ATOM     25  N   UNL     1       2.151  -0.689  -1.221  0.00  0.00    -0.311 N 
ATOM     26  H   UNL     1       1.963   0.262  -1.243  0.00  0.00    +0.149 HD
BRANCH  25  27
ATOM     27  C   UNL     1       3.467  -1.186  -1.629  0.00  0.00    +0.135 C 
BRANCH  27  28
ATOM     28  C   UNL     1       4.354  -0.006  -2.033  0.00  0.00    +0.135 C 
ATOM     29  C   UNL     1       5.705  -0.514  -2.585  0.00  0.00    +0.035 C 
ATOM     30  C   UNL     1       6.734   0.513  -2.062  0.00  0.00    +0.031 C 
ATOM     31  C   UNL     1       5.883   1.520  -1.256  0.00  0.00    +0.160 C 
ATOM     32  O   UNL     1       4.702   0.782  -0.874  0.00  0.00    -0.375 OA
ENDBRANCH  27  28
ENDBRANCH  25  27
ENDBRANCH  22  23
ENDBRANCH   1  22
TORSDOF 8
