REMARK  Name = ZINC53635343
REMARK  7 active torsions:
REMARK  status: ('A' for Active; 'I' for Inactive)
REMARK    1  A    between atoms: C_1  and  C_2
REMARK    2  A    between atoms: C_2  and  C_25
REMARK    3  A    between atoms: N_5  and  C_9
REMARK    4  A    between atoms: C_9  and  C_10
REMARK    5  A    between atoms: N_12  and  C_13
REMARK    6  A    between atoms: N_17  and  C_18
REMARK    7  A    between atoms: C_18  and  C_19
REMARK                            x       y       z     vdW  Elec       q    Type
REMARK                         _______ _______ _______ _____ _____    ______ ____
ROOT
ATOM      1  C   UNL     1       3.998  -0.950  -1.696  0.00  0.00    +0.236 C 
ATOM      2  O   UNL     1       3.959   0.180  -1.258  0.00  0.00    -0.274 OA
ATOM      3  N   UNL     1       5.066  -1.360  -2.409  0.00  0.00    -0.269 N 
ATOM      4  H   UNL     1       5.097  -2.264  -2.760  0.00  0.00    +0.156 HD
ENDROOT
BRANCH   3   5
ATOM      5  C   UNL     1       6.126  -0.484  -2.643  0.00  0.00    +0.123 A 
ATOM      6  C   UNL     1       6.217   0.803  -2.209  0.00  0.00    +0.065 A 
ATOM      7  C   UNL     1       7.434   1.321  -2.659  0.00  0.00    +0.136 A 
ATOM      8  N   UNL     1       8.053   0.389  -3.337  0.00  0.00    -0.178 NA
ATOM      9  N   UNL     1       7.252  -0.761  -3.339  0.00  0.00    -0.250 N 
BRANCH   9  10
ATOM     10  C   UNL     1       7.577  -2.037  -3.982  0.00  0.00    +0.149 C 
BRANCH  10  11
ATOM     11  C   UNL     1       7.052  -2.032  -5.419  0.00  0.00    +0.010 C 
ATOM     12  C   UNL     1       5.524  -1.964  -5.403  0.00  0.00    +0.005 C 
ATOM     13  C   UNL     1       4.998  -1.959  -6.840  0.00  0.00    +0.000 C 
ATOM     14  C   UNL     1       5.445  -3.238  -7.550  0.00  0.00    +0.000 C 
ATOM     15  C   UNL     1       6.973  -3.306  -7.566  0.00  0.00    +0.000 C 
ATOM     16  C   UNL     1       7.498  -3.311  -6.129  0.00  0.00    +0.005 C 
ENDBRANCH  10  11
ENDBRANCH   9  10
ENDBRANCH   3   5
BRANCH   1  17
ATOM     17  C   UNL     1       2.853  -1.896  -1.443  0.00  0.00    +0.214 C 
BRANCH  17  22
ATOM     18  C   UNL     1      -0.019   1.526   0.010  0.00  0.00    +0.050 C 
ATOM     19  C   UNL     1       0.002  -0.004   0.002  0.00  0.00    +0.168 C 
ATOM     20  C   UNL     1       0.799  -0.520  -1.180  0.00  0.00    +0.254 C 
ATOM     21  O   UNL     1       0.564  -0.342  -2.356  0.00  0.00    -0.272 OA
ATOM     22  N   UNL     1       1.824  -1.217  -0.651  0.00  0.00    -0.215 N 
ATOM     23  C   UNL     1       1.786  -1.214   0.686  0.00  0.00    +0.310 C 
ATOM     24  O   UNL     1       2.604  -1.776   1.387  0.00  0.00    -0.252 OA
ATOM     25  N   UNL     1       0.740  -0.519   1.169  0.00  0.00    -0.279 N 
ATOM     26  H   UNL     1       0.515  -0.383   2.102  0.00  0.00    +0.152 HD
BRANCH  19  27
ATOM     27  C   UNL     1      -1.402  -0.552  -0.021  0.00  0.00    +0.137 A 
ATOM     28  C   UNL     1      -2.157  -0.826   1.057  0.00  0.00    +0.047 A 
ATOM     29  C   UNL     1      -3.393  -1.317   0.577  0.00  0.00    +0.041 A 
ATOM     30  C   UNL     1      -3.319  -1.313  -0.766  0.00  0.00    +0.195 A 
ATOM     31  O   UNL     1      -2.113  -0.843  -1.123  0.00  0.00    -0.465 OA
ENDBRANCH  19  27
ENDBRANCH  17  22
ENDBRANCH   1  17
TORSDOF 6
