REMARK  Name = ZINC03111067
REMARK  4 active torsions:
REMARK  status: ('A' for Active; 'I' for Inactive)
REMARK    1  A    between atoms: C_3  and  C_11
REMARK    2  A    between atoms: C_5  and  C_7
REMARK    3  A    between atoms: N_20  and  C_23
REMARK    4  A    between atoms: C_26  and  C_28
REMARK                            x       y       z     vdW  Elec       q    Type
REMARK                         _______ _______ _______ _____ _____    ______ ____
ROOT
ATOM      1  C   UNL     1      -2.503   1.007   0.022  0.00  0.00    +0.249 C 
ATOM      2  O   UNL     1      -3.558   1.610   0.002  0.00  0.00    -0.270 OA
ATOM      3  N   UNL     1      -2.492  -0.337  -0.087  0.00  0.00    -0.267 N 
ATOM      4  C   UNL     1      -1.304  -1.218  -0.113  0.00  0.00    +0.139 C 
ATOM      5  C   UNL     1      -1.845  -2.503  -0.789  0.00  0.00    +0.181 C 
ATOM      6  O   UNL     1      -3.195  -2.580  -0.273  0.00  0.00    -0.354 OA
ATOM      7  C   UNL     1      -3.659  -1.224  -0.200  0.00  0.00    +0.141 C 
ATOM      8  C   UNL     1      -4.445  -0.883  -1.468  0.00  0.00    +0.074 C 
ATOM      9  C   UNL     1      -4.986   0.544  -1.358  0.00  0.00    +0.111 C 
ATOM     10  N   UNL     1      -5.847   0.653  -0.174  0.00  0.00    -0.315 N 
ATOM     11  C   UNL     1      -5.096   0.383   1.058  0.00  0.00    +0.111 C 
ATOM     12  C   UNL     1      -4.558  -1.050   1.026  0.00  0.00    +0.074 C 
ENDROOT
BRANCH  10  13
ATOM     13  C   UNL     1      -6.464   1.898  -0.119  0.00  0.00    +0.118 A 
ATOM     14  C   UNL     1      -7.707   2.080  -0.721  0.00  0.00    +0.079 A 
ATOM     15  C   UNL     1      -8.311   3.323  -0.654  0.00  0.00    +0.037 A 
ATOM     16  C   UNL     1      -7.646   4.348   0.006  0.00  0.00    +0.072 A 
ATOM     17  C   UNL     1      -6.414   4.098   0.575  0.00  0.00    +0.096 A 
ATOM     18 CL   UNL     1      -8.489   0.764  -1.540  0.00  0.00    -0.080 Cl
ATOM     19  N   UNL     1      -5.792   2.889   0.534  0.00  0.00    -0.348 N 
ATOM     20  H   UNL     1      -4.875   2.732   0.967  0.00  0.00    +0.167 HD
BRANCH  16  21
ATOM     21  C   UNL     1      -8.263   5.720   0.099  0.00  0.00    +0.419 C 
ATOM     22  F   UNL     1      -7.407   6.570   0.807  0.00  0.00    -0.166 F 
ATOM     23  F   UNL     1      -8.467   6.228  -1.188  0.00  0.00    -0.166 F 
ATOM     24  F   UNL     1      -9.490   5.634   0.766  0.00  0.00    -0.166 F 
ENDBRANCH  16  21
ENDBRANCH  10  13
BRANCH   1  27
ATOM     25  C   UNL     1       1.143   1.752   0.533  0.00  0.00    +0.001 A 
ATOM     26  C   UNL     1      -0.042   1.056   0.404  0.00  0.00    +0.013 A 
ATOM     27  C   UNL     1      -1.231   1.747   0.167  0.00  0.00    +0.038 A 
ATOM     28  C   UNL     1      -1.216   3.139   0.072  0.00  0.00    +0.025 A 
ATOM     29  C   UNL     1      -0.025   3.823   0.203  0.00  0.00    +0.056 A 
ATOM     30  C   UNL     1       1.152   3.132   0.432  0.00  0.00    +0.012 A 
BRANCH  29  31
ATOM     31  C   UNL     1      -0.005   5.326   0.095  0.00  0.00    +0.417 C 
ATOM     32  F   UNL     1       1.305   5.788   0.260  0.00  0.00    -0.166 F 
ATOM     33  F   UNL     1      -0.480   5.710  -1.163  0.00  0.00    -0.166 F 
ATOM     34  F   UNL     1      -0.822   5.876   1.089  0.00  0.00    -0.166 F 
ENDBRANCH  29  31
ENDBRANCH   1  27
TORSDOF 4
