REMARK  Name = ZINC00420451
REMARK  7 active torsions:
REMARK  status: ('A' for Active; 'I' for Inactive)
REMARK    1  A    between atoms: C_1  and  C_2
REMARK    2  A    between atoms: C_6  and  C_24
REMARK    3  A    between atoms: C_7  and  N_8
REMARK    4  A    between atoms: C_9  and  C_11
REMARK    5  A    between atoms: C_11  and  O_12
REMARK    6  A    between atoms: O_12  and  C_13
REMARK    7  A    between atoms: C_17  and  N_19
REMARK                            x       y       z     vdW  Elec       q    Type
REMARK                         _______ _______ _______ _____ _____    ______ ____
ROOT
ATOM      1  C   UNL     1      -3.774   2.027   0.689  0.00  0.00    +0.324 C 
ENDROOT
BRANCH   1   3
ATOM      2  N   UNL     1      -6.045   1.416  -0.080  0.00  0.00    -0.282 N 
ATOM      3  C   UNL     1      -4.985   1.129   0.702  0.00  0.00    +0.255 C 
ATOM      4  O   UNL     1      -5.005   0.150   1.417  0.00  0.00    -0.272 OA
ATOM      5  H   UNL     1      -6.050   2.227  -0.611  0.00  0.00    +0.155 HD
BRANCH   2  12
ATOM      6  C   UNL     1      -5.548  -1.331  -0.632  0.00  0.00    +0.045 C 
ATOM      7  C   UNL     1      -6.939  -0.806  -0.391  0.00  0.00    -0.029 A 
ATOM      8  C   UNL     1      -8.019  -1.666  -0.429  0.00  0.00    +0.005 A 
ATOM      9  C   UNL     1      -9.297  -1.184  -0.213  0.00  0.00    +0.001 A 
ATOM     10  C   UNL     1      -9.498   0.159   0.046  0.00  0.00    +0.005 A 
ATOM     11  C   UNL     1      -8.422   1.024   0.091  0.00  0.00    -0.029 A 
ATOM     12  C   UNL     1      -7.137   0.542  -0.125  0.00  0.00    +0.039 A 
ATOM     13  C   UNL     1      -8.641   2.487   0.375  0.00  0.00    +0.045 C 
ENDBRANCH   2  12
ENDBRANCH   1   3
BRANCH   1  14
ATOM     14  O   UNL     1      -2.793   1.517   1.594  0.00  0.00    -0.483 OA
BRANCH  14  15
ATOM     15  C   UNL     1      -1.632   2.215   1.702  0.00  0.00    +0.123 A 
ATOM     16  C   UNL     1      -1.443   3.370   0.956  0.00  0.00    +0.046 A 
ATOM     17  C   UNL     1      -0.261   4.077   1.061  0.00  0.00    +0.006 A 
ATOM     18  C   UNL     1       0.735   3.639   1.913  0.00  0.00    +0.028 A 
ATOM     19  C   UNL     1       0.549   2.488   2.666  0.00  0.00    +0.072 A 
ATOM     20  C   UNL     1      -0.637   1.776   2.562  0.00  0.00    +0.073 A 
BRANCH  19  21
ATOM     21  N   UNL     1       1.560   2.044   3.532  0.00  0.00    -0.200 N 
ATOM     22  C   UNL     1       2.764   2.617   3.748  0.00  0.00    +0.250 A 
ATOM     23  N   UNL     1       3.392   1.880   4.627  0.00  0.00    -0.116 NA
ATOM     24  N   UNL     1       2.667   0.881   4.981  0.00  0.00    -0.023 NA
ATOM     25  N   UNL     1       1.535   0.912   4.364  0.00  0.00    -0.039 NA
ENDBRANCH  19  21
ENDBRANCH  14  15
ENDBRANCH   1  14
TORSDOF 5
