REMARK  Name = ZINC47932923
REMARK  4 active torsions:
REMARK  status: ('A' for Active; 'I' for Inactive)
REMARK    1  A    between atoms: C_1  and  C_2
REMARK    2  A    between atoms: C_8  and  C_10
REMARK    3  A    between atoms: C_13  and  S_15
REMARK    4  A    between atoms: S_15  and  N_18
REMARK                            x       y       z     vdW  Elec       q    Type
REMARK                         _______ _______ _______ _____ _____    ______ ____
ROOT
ATOM      1  C   UNL     1       0.090  -5.146   3.110  0.00  0.00    +0.192 A 
ATOM      2  C   UNL     1       0.115  -6.510   3.036  0.00  0.00    +0.057 A 
ATOM      3  C   UNL     1       0.126  -6.986   4.356  0.00  0.00    +0.072 A 
ATOM      4  C   UNL     1       0.108  -5.906   5.168  0.00  0.00    +0.258 A 
ATOM      5  O   UNL     1       0.092  -4.799   4.414  0.00  0.00    -0.432 OA
ENDROOT
BRANCH   1  13
ATOM      6  C   UNL     1      -0.018   1.503   0.010  0.00  0.00    +0.066 C 
ATOM      7  C   UNL     1       0.002  -0.004   0.002  0.00  0.00    +0.047 A 
ATOM      8  C   UNL     1       0.006  -0.706  -1.158  0.00  0.00    +0.071 A 
ATOM      9  S   UNL     1       0.032  -2.379  -0.535  0.00  0.00    -0.060 S 
ATOM     10  C   UNL     1       0.036  -2.015   1.108  0.00  0.00    +0.165 A 
ATOM     11  N   UNL     1       0.023  -0.700   1.124  0.00  0.00    -0.230 NA
ATOM     12  N   UNL     1       0.053  -2.891   2.186  0.00  0.00    -0.258 N 
ATOM     13  C   UNL     1       0.071  -4.221   1.972  0.00  0.00    +0.285 C 
ATOM     14  O   UNL     1       0.072  -4.656   0.836  0.00  0.00    -0.266 OA
ATOM     15  H   UNL     1       0.053  -2.545   3.092  0.00  0.00    +0.157 HD
ENDBRANCH   1  13
BRANCH   4  16
ATOM     16  S   UNL     1       0.113  -5.946   6.930  0.00  0.00    +0.089 S 
ATOM     17  O   UNL     1      -0.460  -4.721   7.366  0.00  0.00    -0.150 OA
ATOM     18  O   UNL     1      -0.414  -7.210   7.308  0.00  0.00    -0.150 OA
BRANCH  16  19
ATOM     19  N   UNL     1       1.696  -5.929   7.416  0.00  0.00    -0.201 NA
ATOM     20  H   UNL     1       1.938  -5.524   8.263  0.00  0.00    +0.144 HD
ATOM     21  H   UNL     1       2.380  -6.324   6.854  0.00  0.00    +0.144 HD
ENDBRANCH  16  19
ENDBRANCH   4  16
TORSDOF 3
