REMARK  Name = ZINC22241230
REMARK  6 active torsions:
REMARK  status: ('A' for Active; 'I' for Inactive)
REMARK    1  A    between atoms: C_1  and  C_2
REMARK    2  A    between atoms: C_4  and  O_5
REMARK    3  A    between atoms: C_14  and  C_16
REMARK    4  A    between atoms: C_20  and  S_22
REMARK    5  A    between atoms: S_22  and  N_25
REMARK    6  A    between atoms: N_25  and  C_26
REMARK                            x       y       z     vdW  Elec       q    Type
REMARK                         _______ _______ _______ _____ _____    ______ ____
ROOT
ATOM      1  C   UNL     1      -3.704   6.192   0.290  0.00  0.00    +0.039 A 
ATOM      2  C   UNL     1      -4.911   5.492   0.298  0.00  0.00    +0.013 A 
ATOM      3  C   UNL     1      -6.102   6.177   0.419  0.00  0.00    +0.003 A 
ATOM      4  C   UNL     1      -6.101   7.556   0.533  0.00  0.00    +0.028 A 
ATOM      5  C   UNL     1      -4.908   8.257   0.525  0.00  0.00    +0.106 A 
ATOM      6  C   UNL     1      -3.710   7.583   0.411  0.00  0.00    +0.041 A 
ENDROOT
BRANCH   1  19
ATOM      7  C   UNL     1       2.588  -0.049   0.585  0.00  0.00    +0.045 C 
ATOM      8  C   UNL     1       2.451   1.310  -0.050  0.00  0.00    -0.033 A 
ATOM      9  C   UNL     1       3.506   1.900  -0.670  0.00  0.00    +0.091 A 
ATOM     10  C   UNL     1       3.352   3.173  -1.257  0.00  0.00    +0.285 A 
ATOM     11  O   UNL     1       2.181   3.829  -1.222  0.00  0.00    -0.425 OA
ATOM     12  C   UNL     1       1.094   3.299  -0.622  0.00  0.00    +0.141 A 
ATOM     13  C   UNL     1       1.177   2.031  -0.015  0.00  0.00    +0.021 A 
ATOM     14  C   UNL     1       0.052   1.478   0.607  0.00  0.00    +0.013 A 
ATOM     15  C   UNL     1      -1.124   2.170   0.625  0.00  0.00    +0.024 A 
ATOM     16  C   UNL     1      -1.212   3.426   0.025  0.00  0.00    +0.037 A 
ATOM     17  C   UNL     1      -0.109   3.987  -0.600  0.00  0.00    +0.070 A 
ATOM     18  N   UNL     1      -2.421   4.121   0.051  0.00  0.00    -0.281 N 
ATOM     19  C   UNL     1      -2.424   5.464   0.161  0.00  0.00    +0.248 C 
ATOM     20  O   UNL     1      -1.374   6.077   0.155  0.00  0.00    -0.270 OA
ATOM     21  H   UNL     1      -3.372   3.573  -0.019  0.00  0.00    +0.155 HD
BRANCH  10  22
ATOM     22  O   UNL     1       4.306   3.690  -1.811  0.00  0.00    -0.480 OA
ATOM     23  H   UNL     1       4.201   4.683  -2.273  0.00  0.00    +0.295 HD
ENDBRANCH  10  22
ENDBRANCH   1  19
BRANCH   5  24
ATOM     24  S   UNL     1      -4.919  10.013   0.670  0.00  0.00    +0.059 S 
ATOM     25  O   UNL     1      -3.708  10.476   0.088  0.00  0.00    -0.153 OA
ATOM     26  O   UNL     1      -6.195  10.450   0.222  0.00  0.00    -0.153 OA
BRANCH  24  27
ATOM     27  N   UNL     1      -4.836  10.372   2.284  0.00  0.00    -0.185 NA
ATOM     28  H   UNL     1      -5.740  10.722   2.804  0.00  0.00    +0.148 HD
BRANCH  27  29
ATOM     29  C   UNL     1      -3.639  10.019   3.053  0.00  0.00    +0.099 C 
ATOM     30  C   UNL     1      -2.699  11.234   3.119  0.00  0.00    +0.044 C 
ATOM     31  C   UNL     1      -1.605  10.941   4.185  0.00  0.00    +0.167 C 
ATOM     32  S   UNL     1      -2.619  10.137   5.496  0.00  0.00    -0.029 S 
ATOM     33  O   UNL     1      -3.052  11.128   6.418  0.00  0.00    -0.174 OA
ATOM     34  O   UNL     1      -1.930   8.990   5.975  0.00  0.00    -0.174 OA
ATOM     35  C   UNL     1      -4.053   9.594   4.482  0.00  0.00    +0.186 C 
ENDBRANCH  27  29
ENDBRANCH  24  27
ENDBRANCH   5  24
TORSDOF 5
