REMARK  Name = ZINC06798631
REMARK  9 active torsions:
REMARK  status: ('A' for Active; 'I' for Inactive)
REMARK    1  A    between atoms: C_1  and  C_2
REMARK    2  A    between atoms: C_2  and  C_3
REMARK    3  A    between atoms: C_6  and  C_9
REMARK    4  A    between atoms: N_14  and  C_20
REMARK    5  A    between atoms: C_16  and  C_19
REMARK    6  A    between atoms: C_20  and  C_21
REMARK    7  A    between atoms: N_23  and  C_24
REMARK    8  A    between atoms: C_29  and  C_34
REMARK    9  A    between atoms: C_31  and  C_33
REMARK                            x       y       z     vdW  Elec       q    Type
REMARK                         _______ _______ _______ _____ _____    ______ ____
ROOT
ATOM      1  C   UNL     1      -2.709   2.943   4.747  0.00  0.00    +0.094 A 
ATOM      2  C   UNL     1      -2.450   4.144   5.431  0.00  0.00    +0.063 A 
ATOM      3  C   UNL     1      -3.336   4.154   6.486  0.00  0.00    +0.135 A 
ATOM      4  C   UNL     1      -3.605   5.096   7.577  0.00  0.00    +0.293 A 
ATOM      5  O   UNL     1      -2.977   6.135   7.678  0.00  0.00    -0.264 OA
ATOM      6  N   UNL     1      -4.571   4.774   8.468  0.00  0.00    -0.217 N 
ATOM      7  N   UNL     1      -5.273   3.573   8.323  0.00  0.00    -0.153 NA
ATOM      8  C   UNL     1      -5.035   2.747   7.363  0.00  0.00    +0.149 A 
ATOM      9  N   UNL     1      -4.067   2.994   6.410  0.00  0.00    -0.211 N 
ATOM     10  N   UNL     1      -3.676   2.316   5.388  0.00  0.00    -0.165 NA
ATOM     11  C   UNL     1      -5.836   1.473   7.279  0.00  0.00    +0.090 C 
ENDROOT
BRANCH   1  15
ATOM     12  C   UNL     1      -0.718   1.572   1.248  0.00  0.00    -0.048 A 
ATOM     13  C   UNL     1      -0.358   2.780   1.817  0.00  0.00    +0.004 A 
ATOM     14  C   UNL     1      -1.004   3.232   2.949  0.00  0.00    +0.010 A 
ATOM     15  C   UNL     1      -2.014   2.465   3.525  0.00  0.00    +0.002 A 
ATOM     16  C   UNL     1      -2.369   1.246   2.951  0.00  0.00    +0.010 A 
ATOM     17  C   UNL     1      -1.720   0.805   1.816  0.00  0.00    +0.004 A 
BRANCH  12  19
ATOM     18  C   UNL     1      -0.753   1.593  -1.232  0.00  0.00    +0.009 C 
ATOM     19  C   UNL     1      -0.013   1.086   0.008  0.00  0.00    +0.032 C 
ENDBRANCH  12  19
ENDBRANCH   1  15
BRANCH   6  20
ATOM     20  C   UNL     1      -4.880   5.679   9.578  0.00  0.00    +0.243 C 
BRANCH  20  21
ATOM     21  C   UNL     1      -5.951   6.650   9.152  0.00  0.00    +0.235 C 
ATOM     22  O   UNL     1      -6.411   6.592   8.031  0.00  0.00    -0.274 OA
ATOM     23  N   UNL     1      -6.398   7.583  10.016  0.00  0.00    -0.311 N 
ATOM     24  H   UNL     1      -6.031   7.629  10.912  0.00  0.00    +0.149 HD
BRANCH  23  25
ATOM     25  C   UNL     1      -7.439   8.527   9.601  0.00  0.00    +0.076 C 
ATOM     26  C   UNL     1      -6.794   9.713   8.882  0.00  0.00    +0.022 C 
ATOM     27  C   UNL     1      -5.818  10.414   9.828  0.00  0.00    +0.002 C 
ATOM     28  C   UNL     1      -6.573  10.914  11.061  0.00  0.00    +0.003 C 
ATOM     29  C   UNL     1      -7.218   9.728  11.781  0.00  0.00    -0.009 C 
ATOM     30  C   UNL     1      -8.194   9.027  10.834  0.00  0.00    +0.009 C 
ATOM     31  C   UNL     1      -8.839   7.840  11.553  0.00  0.00    +0.009 C 
ATOM     32  C   UNL     1      -7.973  10.228  13.014  0.00  0.00    +0.008 C 
ENDBRANCH  23  25
ENDBRANCH  20  21
ENDBRANCH   6  20
TORSDOF 5
