REMARK  Name = ZINC53392491
REMARK  7 active torsions:
REMARK  status: ('A' for Active; 'I' for Inactive)
REMARK    1  A    between atoms: C_1  and  C_2
REMARK    2  A    between atoms: N_6  and  C_8
REMARK    3  A    between atoms: C_8  and  C_9
REMARK    4  A    between atoms: C_8  and  C_10
REMARK    5  A    between atoms: C_8  and  C_11
REMARK    6  A    between atoms: C_11  and  N_12
REMARK    7  A    between atoms: C_13  and  C_15
REMARK                            x       y       z     vdW  Elec       q    Type
REMARK                         _______ _______ _______ _____ _____    ______ ____
ROOT
ATOM      1  N   UNL     1      -0.075  -4.395   2.280  0.00  0.00    -0.316 N 
ATOM      2  C   UNL     1      -0.415  -5.695   2.385  0.00  0.00    +0.216 C 
ATOM      3  O   UNL     1       0.423  -6.518   2.685  0.00  0.00    -0.276 OA
ATOM      4  H   UNL     1      -0.745  -3.736   2.040  0.00  0.00    +0.149 HD
ENDROOT
BRANCH   2   5
ATOM      5  C   UNL     1      -1.837  -6.124   2.130  0.00  0.00    +0.078 C 
ATOM      6  C   UNL     1      -2.768  -5.416   3.116  0.00  0.00    +0.032 C 
ATOM      7  C   UNL     1      -4.216  -5.828   2.832  0.00  0.00    +0.110 C 
ATOM      8  N   UNL     1      -4.305  -7.294   2.865  0.00  0.00    -0.286 N 
ATOM      9  C   UNL     1      -3.391  -8.077   2.021  0.00  0.00    +0.110 C 
ATOM     10  C   UNL     1      -1.953  -7.639   2.315  0.00  0.00    +0.032 C 
ATOM     11  C   UNL     1      -5.207  -7.910   3.654  0.00  0.00    +0.300 C 
ATOM     12  O   UNL     1      -5.893  -7.257   4.418  0.00  0.00    -0.253 OA
ATOM     13  N   UNL     1      -5.351  -9.249   3.597  0.00  0.00    -0.313 N 
ATOM     14  H   UNL     1      -4.756  -9.777   3.042  0.00  0.00    +0.146 HD
ATOM     15  H   UNL     1      -6.049  -9.684   4.111  0.00  0.00    +0.146 HD
ENDBRANCH   2   5
BRANCH   1  16
ATOM     16  C   UNL     1       1.308  -3.977   2.527  0.00  0.00    +0.092 C 
BRANCH  16  17
ATOM     17  C   UNL     1       1.402  -2.452   2.446  0.00  0.00    -0.055 C 
ATOM     18  C   UNL     1       2.859  -2.021   2.627  0.00  0.00    -0.008 C 
ATOM     19  C   UNL     1       0.545  -1.828   3.549  0.00  0.00    -0.008 C 
BRANCH  17  25
ATOM     20  C   UNL     1       0.585   1.465  -0.375  0.00  0.00    +0.005 C 
ATOM     21  C   UNL     1       0.457  -0.057  -0.285  0.00  0.00    -0.031 C 
ATOM     22  C   UNL     1       1.231  -0.705  -1.437  0.00  0.00    -0.001 C 
ATOM     23  C   UNL     1       1.163  -2.228  -1.293  0.00  0.00    -0.018 C 
ATOM     24  C   UNL     1       1.715  -2.631   0.076  0.00  0.00    -0.078 C 
ATOM     25  N   UNL     1       0.917  -2.001   1.135  0.00  0.00    +0.384 N 
ATOM     26  C   UNL     1       1.036  -0.541   1.046  0.00  0.00    -0.075 C 
ATOM     27  H   UNL     1      -0.051  -2.266   1.027  0.00  0.00    -0.081 HD
ENDBRANCH  17  25
ENDBRANCH  16  17
ENDBRANCH   1  16
TORSDOF 4
