REMARK  Name = ZINC29465839
REMARK  8 active torsions:
REMARK  status: ('A' for Active; 'I' for Inactive)
REMARK    1  A    between atoms: C_1  and  C_2
REMARK    2  A    between atoms: C_2  and  C_4
REMARK    3  A    between atoms: C_2  and  N_11
REMARK    4  A    between atoms: C_12  and  C_14
REMARK    5  A    between atoms: C_14  and  N_15
REMARK    6  A    between atoms: C_18  and  C_22
REMARK    7  A    between atoms: C_18  and  C_23
REMARK    8  A    between atoms: C_23  and  C_24
REMARK                            x       y       z     vdW  Elec       q    Type
REMARK                         _______ _______ _______ _____ _____    ______ ____
ROOT
ATOM      1  N   UNL     1       6.263   2.268  -2.180  0.00  0.00    -0.215 N 
ATOM      2  C   UNL     1       5.462   3.118  -1.508  0.00  0.00    +0.247 C 
ATOM      3  O   UNL     1       5.767   4.192  -1.036  0.00  0.00    -0.273 OA
ATOM      4  C   UNL     1       4.101   2.453  -1.467  0.00  0.00    +0.114 C 
ATOM      5  N   UNL     1       4.313   1.186  -2.188  0.00  0.00    -0.285 N 
ATOM      6  C   UNL     1       5.604   1.169  -2.565  0.00  0.00    +0.310 C 
ATOM      7  O   UNL     1       6.115   0.258  -3.186  0.00  0.00    -0.252 OA
ATOM      8  C   UNL     1       3.059   3.316  -2.182  0.00  0.00    +0.042 C 
ATOM      9  H   UNL     1       3.478   0.481  -2.318  0.00  0.00    +0.151 HD
ENDROOT
BRANCH   1  10
ATOM     10  C   UNL     1       7.681   2.515  -2.454  0.00  0.00    +0.213 C 
BRANCH  10  12
ATOM     11  N   UNL     1       9.857   2.076  -1.363  0.00  0.00    -0.307 N 
ATOM     12  C   UNL     1       8.514   1.963  -1.327  0.00  0.00    +0.231 C 
ATOM     13  O   UNL     1       7.977   1.416  -0.387  0.00  0.00    -0.274 OA
ATOM     14  H   UNL     1      10.344   2.572  -2.215  0.00  0.00    +0.149 HD
BRANCH  11  16
ATOM     15  C   UNL     1      10.933   0.052  -0.511  0.00  0.00    +0.033 C 
ATOM     16  C   UNL     1      10.667   1.538  -0.267  0.00  0.00    +0.100 C 
BRANCH  16  17
ATOM     17  C   UNL     1      11.978   2.279  -0.202  0.00  0.00    -0.027 A 
ATOM     18  C   UNL     1      12.639   2.618  -1.368  0.00  0.00    +0.008 A 
ATOM     19  C   UNL     1      13.839   3.301  -1.309  0.00  0.00    +0.038 A 
ATOM     20  C   UNL     1      14.384   3.637  -0.082  0.00  0.00    +0.123 A 
ATOM     21  C   UNL     1      13.724   3.292   1.085  0.00  0.00    +0.038 A 
ATOM     22  C   UNL     1      12.522   2.614   1.024  0.00  0.00    +0.008 A 
ATOM     23  F   UNL     1      15.560   4.301  -0.024  0.00  0.00    -0.205 F 
ENDBRANCH  16  17
ENDBRANCH  11  16
ENDBRANCH  10  12
ENDBRANCH   1  10
BRANCH   4  24
ATOM     24  C   UNL     1       3.676   2.186  -0.022  0.00  0.00    +0.070 C 
BRANCH  24  25
ATOM     25  C   UNL     1       2.380   1.416  -0.014  0.00  0.00    -0.041 A 
ATOM     26  C   UNL     1       2.399   0.034  -0.021  0.00  0.00    +0.007 A 
ATOM     27  C   UNL     1       1.213  -0.677  -0.013  0.00  0.00    +0.050 A 
ATOM     28  C   UNL     1       0.002  -0.004   0.002  0.00  0.00    +0.166 A 
ATOM     29  C   UNL     1      -0.017   1.389   0.010  0.00  0.00    +0.166 A 
ATOM     30  C   UNL     1       1.176   2.094   0.002  0.00  0.00    +0.053 A 
ATOM     31  O   UNL     1      -1.316   1.807   0.019  0.00  0.00    -0.453 OA
ATOM     32  C   UNL     1      -2.092   0.666  -0.387  0.00  0.00    +0.466 C 
ATOM     33  O   UNL     1      -1.285  -0.458   0.012  0.00  0.00    -0.453 OA
ENDBRANCH  24  25
ENDBRANCH   4  24
TORSDOF 6
