REMARK  Name = ZINC15085125
REMARK  5 active torsions:
REMARK  status: ('A' for Active; 'I' for Inactive)
REMARK    1  A    between atoms: C_1  and  O_2
REMARK    2  A    between atoms: O_2  and  C_3
REMARK    3  A    between atoms: C_6  and  C_10
REMARK    4  A    between atoms: C_8  and  O_9
REMARK    5  A    between atoms: N_22  and  C_23
REMARK                            x       y       z     vdW  Elec       q    Type
REMARK                         _______ _______ _______ _____ _____    ______ ____
ROOT
ATOM      1  C   UNL     1      -4.949  -2.131   0.142  0.00  0.00    +0.065 C 
ATOM      2  C   UNL     1      -5.676  -1.496   1.332  0.00  0.00    +0.109 C 
ATOM      3  C   UNL     1      -7.152  -1.767   1.275  0.00  0.00    +0.219 C 
ATOM      4  O   UNL     1      -7.748  -1.997   2.306  0.00  0.00    -0.275 OA
ATOM      5  N   UNL     1      -7.837  -1.764   0.112  0.00  0.00    -0.270 N 
ATOM      6  C   UNL     1      -7.112  -1.695  -1.078  0.00  0.00    +0.126 A 
ATOM      7  C   UNL     1      -5.752  -1.859  -1.104  0.00  0.00    +0.042 A 
ATOM      8  C   UNL     1      -5.329  -1.729  -2.424  0.00  0.00    +0.150 A 
ATOM      9  N   UNL     1      -6.390  -1.515  -3.174  0.00  0.00    -0.157 NA
ATOM     10  N   UNL     1      -7.524  -1.498  -2.344  0.00  0.00    -0.262 N 
ATOM     11  H   UNL     1      -8.441  -1.369  -2.633  0.00  0.00    +0.190 HD
ATOM     12  N   UNL     1      -4.007  -1.813  -2.876  0.00  0.00    -0.298 N 
ATOM     13  H   UNL     1      -8.806  -1.808   0.103  0.00  0.00    +0.156 HD
ATOM     14  H   UNL     1      -3.298  -2.053  -2.259  0.00  0.00    +0.154 HD
ENDROOT
BRANCH   1  18
ATOM     15  C   UNL     1      -1.055  -0.406  -0.251  0.00  0.00    +0.161 A 
ATOM     16  C   UNL     1      -2.182   0.397  -0.327  0.00  0.00    +0.049 A 
ATOM     17  C   UNL     1      -3.440  -0.164  -0.200  0.00  0.00    +0.008 A 
ATOM     18  C   UNL     1      -3.576  -1.525   0.004  0.00  0.00    -0.036 A 
ATOM     19  C   UNL     1      -2.455  -2.331   0.081  0.00  0.00    +0.053 A 
ATOM     20  C   UNL     1      -1.192  -1.776  -0.052  0.00  0.00    +0.159 A 
BRANCH  15  22
ATOM     21  C   UNL     1       0.247   1.557  -0.579  0.00  0.00    +0.277 C 
ATOM     22  O   UNL     1       0.182   0.144  -0.377  0.00  0.00    -0.491 OA
ENDBRANCH  15  22
BRANCH  20  23
ATOM     23  O   UNL     1      -0.089  -2.568   0.018  0.00  0.00    -0.503 OA
ATOM     24  H   UNL     1       0.263  -2.674   0.912  0.00  0.00    +0.292 HD
ENDBRANCH  20  23
ENDBRANCH   1  18
BRANCH  12  25
ATOM     25  C   UNL     1      -3.708  -1.550  -4.215  0.00  0.00    +0.032 A 
ATOM     26  C   UNL     1      -4.506  -0.682  -4.949  0.00  0.00    +0.023 A 
ATOM     27  C   UNL     1      -4.208  -0.424  -6.272  0.00  0.00    +0.002 A 
ATOM     28  C   UNL     1      -3.116  -1.030  -6.867  0.00  0.00    +0.000 A 
ATOM     29  C   UNL     1      -2.319  -1.895  -6.139  0.00  0.00    +0.002 A 
ATOM     30  C   UNL     1      -2.608  -2.152  -4.814  0.00  0.00    +0.023 A 
ENDBRANCH  12  25
TORSDOF 4
