REMARK  Name = ZINC30775043
REMARK  5 active torsions:
REMARK  status: ('A' for Active; 'I' for Inactive)
REMARK    1  A    between atoms: C_3  and  C_10
REMARK    2  A    between atoms: C_5  and  N_7
REMARK    3  A    between atoms: C_11  and  C_12
REMARK    4  A    between atoms: N_17  and  S_20
REMARK    5  A    between atoms: S_20  and  C_23
REMARK                            x       y       z     vdW  Elec       q    Type
REMARK                         _______ _______ _______ _____ _____    ______ ____
ROOT
ATOM      1  C   UNL     1      -3.695  -0.860   0.031  0.00  0.00    +0.240 C 
ATOM      2  O   UNL     1      -3.678  -2.072  -0.071  0.00  0.00    -0.271 OA
ATOM      3  N   UNL     1      -4.870  -0.209   0.147  0.00  0.00    -0.295 N 
ATOM      4  C   UNL     1      -4.913   1.260   0.163  0.00  0.00    +0.125 C 
ATOM      5  C   UNL     1      -5.868   1.729  -0.947  0.00  0.00    +0.128 C 
ATOM      6  N   UNL     1      -7.128   0.982  -0.828  0.00  0.00    -0.173 NA
ATOM      7  C   UNL     1      -7.084  -0.487  -0.839  0.00  0.00    +0.128 C 
ATOM      8  C   UNL     1      -6.129  -0.957   0.266  0.00  0.00    +0.125 C 
ENDROOT
BRANCH   6   9
ATOM      9  S   UNL     1      -8.572   1.780  -0.685  0.00  0.00    +0.067 S 
ATOM     10  O   UNL     1      -8.380   3.069  -1.252  0.00  0.00    -0.152 OA
ATOM     11  O   UNL     1      -9.577   0.887  -1.144  0.00  0.00    -0.152 OA
BRANCH   9  12
ATOM     12  C   UNL     1      -8.863   2.025   1.036  0.00  0.00    +0.144 A 
ATOM     13  C   UNL     1      -8.498   3.065   1.823  0.00  0.00    +0.037 A 
ATOM     14  C   UNL     1      -8.838   3.044   3.163  0.00  0.00    +0.025 A 
ATOM     15  C   UNL     1      -9.527   1.981   3.649  0.00  0.00    +0.057 A 
ATOM     16  S   UNL     1      -9.722   0.969   2.191  0.00  0.00    -0.062 S 
ATOM     17 BR   UNL     1     -10.133   1.659   5.412  0.00  0.00    -0.043 Br
ENDBRANCH   9  12
ENDBRANCH   6   9
BRANCH   1  19
ATOM     18  C   UNL     1      -1.260  -0.762   0.014  0.00  0.00    +0.013 C 
ATOM     19  C   UNL     1      -2.438  -0.107   0.029  0.00  0.00    +0.068 C 
BRANCH  18  22
ATOM     20  C   UNL     1       1.171   2.095   0.021  0.00  0.00    +0.003 A 
ATOM     21  C   UNL     1      -0.016   1.393   0.024  0.00  0.00    +0.008 A 
ATOM     22  C   UNL     1       0.002  -0.005   0.012  0.00  0.00    -0.023 A 
ATOM     23  C   UNL     1       1.227  -0.681  -0.004  0.00  0.00    +0.040 A 
ATOM     24  C   UNL     1       2.405   0.035  -0.007  0.00  0.00    +0.127 A 
ATOM     25  C   UNL     1       2.378   1.419   0.005  0.00  0.00    +0.033 A 
BRANCH  24  26
ATOM     26  N   UNL     1       3.702  -0.679  -0.023  0.00  0.00    +0.056 N 
ATOM     27  O   UNL     1       3.727  -1.896  -0.034  0.00  0.00    -0.126 OA
ATOM     28  O   UNL     1       4.744  -0.048  -0.025  0.00  0.00    -0.126 OA
ENDBRANCH  24  26
ENDBRANCH  18  22
ENDBRANCH   1  19
TORSDOF 5
