REMARK  Name = ZINC39232248
REMARK  10 active torsions:
REMARK  status: ('A' for Active; 'I' for Inactive)
REMARK    1  A    between atoms: C_1  and  C_2
REMARK    2  A    between atoms: C_4  and  C_9
REMARK    3  A    between atoms: C_5  and  C_8
REMARK    4  A    between atoms: C_9  and  C_10
REMARK    5  A    between atoms: C_11  and  C_25
REMARK    6  A    between atoms: N_13  and  C_18
REMARK    7  A    between atoms: C_21  and  C_24
REMARK    8  A    between atoms: C_28  and  O_31
REMARK    9  A    between atoms: O_31  and  C_32
REMARK   10  A    between atoms: C_32  and  C_33
REMARK                            x       y       z     vdW  Elec       q    Type
REMARK                         _______ _______ _______ _____ _____    ______ ____
ROOT
ATOM      1  C   UNL     1      -1.160   0.697  -3.069  0.00  0.00    +0.076 C 
ATOM      2  C   UNL     1      -1.703   1.599  -1.986  0.00  0.00    +0.147 C 
ATOM      3  N   UNL     1      -2.662   2.495  -2.643  0.00  0.00    -0.262 N 
ATOM      4  C   UNL     1      -2.696   2.178  -3.950  0.00  0.00    +0.289 C 
ATOM      5  O   UNL     1      -3.389   2.729  -4.783  0.00  0.00    -0.266 OA
ATOM      6  C   UNL     1      -1.763   1.066  -4.224  0.00  0.00    +0.249 C 
ATOM      7  O   UNL     1      -1.547   0.504  -5.435  0.00  0.00    -0.282 OA
ENDROOT
BRANCH   3   8
ATOM      8  C   UNL     1      -3.444   3.548  -1.990  0.00  0.00    +0.208 C 
ATOM      9  C   UNL     1      -4.904   3.149  -1.886  0.00  0.00    +0.057 C 
ATOM     10  C   UNL     1      -5.566   3.786  -2.827  0.00  0.00    +0.121 C 
ATOM     11  O   UNL     1      -4.760   4.572  -3.581  0.00  0.00    -0.409 OA
ATOM     12  N   UNL     1      -3.497   4.768  -2.838  0.00  0.00    -0.131 NA
ATOM     13  C   UNL     1      -7.052   3.656  -3.043  0.00  0.00    +0.088 C 
ATOM     14  H   UNL     1      -3.535   5.601  -2.271  0.00  0.00    +0.170 HD
ENDBRANCH   3   8
BRANCH   2  15
ATOM     15  C   UNL     1      -2.398   0.780  -0.928  0.00  0.00    -0.022 A 
ATOM     16  C   UNL     1      -3.619   0.193  -1.202  0.00  0.00    +0.009 A 
ATOM     17  C   UNL     1      -4.258  -0.558  -0.234  0.00  0.00    +0.046 A 
ATOM     18  C   UNL     1      -3.672  -0.723   1.013  0.00  0.00    +0.121 A 
ATOM     19  C   UNL     1      -2.447  -0.132   1.285  0.00  0.00    +0.046 A 
ATOM     20  C   UNL     1      -1.810   0.613   0.312  0.00  0.00    +0.009 A 
BRANCH  18  21
ATOM     21  O   UNL     1      -4.299  -1.461   1.967  0.00  0.00    -0.488 OA
BRANCH  21  22
ATOM     22  C   UNL     1      -3.638  -1.587   3.227  0.00  0.00    +0.256 C 
BRANCH  22  23
ATOM     23  C   UNL     1      -4.476  -2.434   4.151  0.00  0.00    +0.006 C 
ATOM     24  C   UNL     1      -3.913  -3.376   4.866  0.00  0.00    +0.007 C 
ENDBRANCH  22  23
ENDBRANCH  21  22
ENDBRANCH  18  21
ENDBRANCH   2  15
BRANCH   1  25
ATOM     25  C   UNL     1      -0.167  -0.369  -2.902  0.00  0.00    +0.193 C 
ATOM     26  O   UNL     1      -0.477  -1.528  -3.108  0.00  0.00    -0.287 OA
BRANCH  25  29
ATOM     27  C   UNL     1       1.725   2.159  -3.551  0.00  0.00    +0.035 C 
ATOM     28  C   UNL     1       1.782   1.341  -2.259  0.00  0.00    +0.110 C 
ATOM     29  C   UNL     1       1.204  -0.038  -2.486  0.00  0.00    +0.026 C 
ATOM     30  C   UNL     1       2.209  -0.903  -2.227  0.00  0.00    -0.026 C 
ATOM     31  C   UNL     1       3.404  -0.149  -1.845  0.00  0.00    +0.082 C 
ATOM     32  N   UNL     1       3.178   1.123  -1.857  0.00  0.00    -0.383 N 
ATOM     33  C   UNL     1       2.115  -2.404  -2.317  0.00  0.00    +0.046 C 
ATOM     34  H   UNL     1       3.820   1.817  -1.639  0.00  0.00    +0.160 HD
ENDBRANCH  25  29
ENDBRANCH   1  25
TORSDOF 7
