REMARK  Name = ZINC20516466
REMARK  6 active torsions:
REMARK  status: ('A' for Active; 'I' for Inactive)
REMARK    1  A    between atoms: C_1  and  C_2
REMARK    2  A    between atoms: C_2  and  N_3
REMARK    3  A    between atoms: C_18  and  S_21
REMARK    4  A    between atoms: S_21  and  C_24
REMARK    5  A    between atoms: C_26  and  C_31
REMARK    6  A    between atoms: C_29  and  C_30
REMARK                            x       y       z     vdW  Elec       q    Type
REMARK                         _______ _______ _______ _____ _____    ______ ____
ROOT
ATOM      1  N   UNL     1       0.282   8.616  -4.861  0.00  0.00    +0.382 N 
ATOM      2  C   UNL     1      -0.599   8.864  -3.711  0.00  0.00    -0.060 C 
ATOM      3  C   UNL     1      -1.328   7.570  -3.342  0.00  0.00    +0.088 C 
ATOM      4  N   UNL     1      -2.099   7.097  -4.501  0.00  0.00    -0.318 N 
ATOM      5  C   UNL     1      -1.217   6.849  -5.650  0.00  0.00    +0.088 C 
ATOM      6  C   UNL     1      -0.488   8.143  -6.019  0.00  0.00    -0.060 C 
ATOM      7  C   UNL     1      -2.829   5.965  -4.182  0.00  0.00    +0.140 A 
ATOM      8  C   UNL     1      -3.633   5.355  -5.150  0.00  0.00    +0.078 A 
ATOM      9  C   UNL     1      -4.385   4.210  -4.866  0.00  0.00    +0.087 A 
ATOM     10  C   UNL     1      -5.144   3.704  -5.922  0.00  0.00    +0.036 A 
ATOM     11  C   UNL     1      -5.124   4.314  -7.128  0.00  0.00    +0.048 A 
ATOM     12  S   UNL     1      -4.006   5.679  -6.854  0.00  0.00    -0.092 S 
ATOM     13  N   UNL     1      -4.272   3.729  -3.558  0.00  0.00    -0.192 N 
ATOM     14  C   UNL     1      -3.478   4.363  -2.645  0.00  0.00    +0.204 A 
ATOM     15  N   UNL     1      -2.767   5.458  -2.963  0.00  0.00    -0.209 NA
ATOM     16  C   UNL     1      -3.591   3.634  -1.472  0.00  0.00    +0.249 A 
ATOM     17  N   UNL     1      -4.423   2.622  -1.686  0.00  0.00    -0.108 NA
ATOM     18  N   UNL     1      -4.849   2.638  -2.901  0.00  0.00    -0.057 NA
ATOM     19  H   UNL     1       0.993   7.825  -4.580  0.00  0.00    -0.082 HD
ENDROOT
BRANCH  16  20
ATOM     20  S   UNL     1      -2.776   3.993   0.048  0.00  0.00    +0.048 S 
ATOM     21  O   UNL     1      -3.558   3.404   1.078  0.00  0.00    -0.163 OA
ATOM     22  O   UNL     1      -2.466   5.379   0.025  0.00  0.00    -0.163 OA
BRANCH  20  23
ATOM     23  C   UNL     1      -1.238   3.133   0.030  0.00  0.00    +0.099 A 
ATOM     24  C   UNL     1      -0.050   3.840   0.022  0.00  0.00    +0.031 A 
ATOM     25  C   UNL     1       1.156   3.166   0.008  0.00  0.00    -0.049 A 
ATOM     26  C   UNL     1       1.175   1.783   0.000  0.00  0.00    +0.004 A 
ATOM     27  C   UNL     1      -0.013   1.076   0.008  0.00  0.00    +0.005 A 
ATOM     28  C   UNL     1      -1.219   1.751   0.017  0.00  0.00    -0.025 A 
ATOM     29  C   UNL     1      -2.514   0.980   0.019  0.00  0.00    +0.046 C 
ATOM     30  C   UNL     1       2.451   3.937  -0.001  0.00  0.00    +0.044 C 
ENDBRANCH  20  23
ENDBRANCH  16  20
BRANCH   1  32
ATOM     31  C   UNL     1       1.769   9.605  -6.537  0.00  0.00    -0.017 C 
ATOM     32  C   UNL     1       1.057   9.817  -5.199  0.00  0.00    -0.082 C 
ENDBRANCH   1  32
TORSDOF 3
