REMARK  Name = ZINC36389910
REMARK  8 active torsions:
REMARK  status: ('A' for Active; 'I' for Inactive)
REMARK    1  A    between atoms: C_1  and  C_2
REMARK    2  A    between atoms: C_2  and  C_4
REMARK    3  A    between atoms: C_2  and  N_18
REMARK    4  A    between atoms: N_6  and  C_7
REMARK    5  A    between atoms: C_9  and  N_15
REMARK    6  A    between atoms: C_12  and  O_13
REMARK    7  A    between atoms: O_13  and  C_14
REMARK    8  A    between atoms: C_22  and  C_25
REMARK                            x       y       z     vdW  Elec       q    Type
REMARK                         _______ _______ _______ _____ _____    ______ ____
ROOT
ATOM      1  C   UNL     1      -1.434  -0.278  -0.095  0.00  0.00    +0.203 C 
ATOM      2  O   UNL     1      -1.885  -0.737  -1.123  0.00  0.00    -0.277 OA
ATOM      3  N   UNL     1      -2.249  -0.040   0.952  0.00  0.00    -0.284 N 
ATOM      4  H   UNL     1      -1.904   0.397   1.746  0.00  0.00    +0.155 HD
ENDROOT
BRANCH   3   5
ATOM      5  C   UNL     1      -3.596  -0.423   0.892  0.00  0.00    +0.078 A 
ATOM      6  C   UNL     1      -4.279  -0.381  -0.315  0.00  0.00    +0.059 A 
ATOM      7  C   UNL     1      -5.607  -0.759  -0.371  0.00  0.00    +0.128 A 
ATOM      8  C   UNL     1      -6.258  -1.181   0.774  0.00  0.00    +0.036 A 
ATOM      9  C   UNL     1      -5.584  -1.226   1.980  0.00  0.00    +0.050 A 
ATOM     10  C   UNL     1      -4.251  -0.854   2.044  0.00  0.00    +0.141 A 
BRANCH   7  11
ATOM     11  N   UNL     1      -6.334  -0.713  -1.659  0.00  0.00    +0.056 N 
ATOM     12  O   UNL     1      -5.766  -0.344  -2.661  0.00  0.00    -0.126 OA
ATOM     13  O   UNL     1      -7.495  -1.044  -1.710  0.00  0.00    -0.126 OA
ENDBRANCH   7  11
BRANCH  10  14
ATOM     14  O   UNL     1      -3.585  -0.903   3.228  0.00  0.00    -0.493 OA
ATOM     15  C   UNL     1      -4.321  -1.355   4.367  0.00  0.00    +0.277 C 
ENDBRANCH  10  14
ENDBRANCH   3   5
BRANCH   1  17
ATOM     16  C   UNL     1       0.251   1.539  -0.031  0.00  0.00    -0.004 C 
ATOM     17  C   UNL     1       0.038   0.025   0.013  0.00  0.00    +0.016 C 
BRANCH  17  18
ATOM     18  N   UNL     1       0.750  -0.603  -1.108  0.00  0.00    +0.388 N 
ATOM     19  C   UNL     1       0.646  -2.062  -0.997  0.00  0.00    -0.078 C 
ATOM     20  C   UNL     1       1.317  -2.719  -2.205  0.00  0.00    -0.018 C 
ATOM     21  C   UNL     1       2.793  -2.313  -2.246  0.00  0.00    +0.008 C 
ATOM     22  C   UNL     1       2.890  -0.785  -2.288  0.00  0.00    +0.077 C 
ATOM     23  C   UNL     1       2.162  -0.200  -1.076  0.00  0.00    -0.066 C 
ATOM     24  H   UNL     1       0.336  -0.304  -1.978  0.00  0.00    -0.081 HD
BRANCH  22  25
ATOM     25  C   UNL     1       4.362  -0.366  -2.251  0.00  0.00    +0.391 C 
ATOM     26  F   UNL     1       5.028  -0.906  -3.357  0.00  0.00    -0.171 F 
ATOM     27  F   UNL     1       4.450   1.030  -2.289  0.00  0.00    -0.171 F 
ATOM     28  F   UNL     1       4.952  -0.839  -1.075  0.00  0.00    -0.171 F 
ENDBRANCH  22  25
ENDBRANCH  17  18
ENDBRANCH   1  17
TORSDOF 6
