REMARK  Name = ZINC12430194
REMARK  8 active torsions:
REMARK  status: ('A' for Active; 'I' for Inactive)
REMARK    1  A    between atoms: C_1  and  N_2
REMARK    2  A    between atoms: N_2  and  C_3
REMARK    3  A    between atoms: C_3  and  C_4
REMARK    4  A    between atoms: C_6  and  C_9
REMARK    5  A    between atoms: C_15  and  C_17
REMARK    6  A    between atoms: C_17  and  C_18
REMARK    7  A    between atoms: C_25  and  C_26
REMARK    8  A    between atoms: C_25  and  N_55
REMARK                            x       y       z     vdW  Elec       q    Type
REMARK                         _______ _______ _______ _____ _____    ______ ____
ROOT
ATOM      1  C   UNL     1       1.595   3.544  -0.867  0.00  0.00    +0.090 C 
ENDROOT
BRANCH   1   2
ATOM      2  C   UNL     1       1.449   2.283  -0.014  0.00  0.00    +0.028 C 
ATOM      3  C   UNL     1       2.536   1.309  -0.372  0.00  0.00    +0.200 C 
ATOM      4  O   UNL     1       2.812   1.152  -1.543  0.00  0.00    -0.278 OA
ATOM      5  N   UNL     1       3.215   0.614   0.546  0.00  0.00    -0.318 N 
ATOM      6  C   UNL     1       2.990   0.761   1.981  0.00  0.00    +0.085 C 
ATOM      7  C   UNL     1       1.635   1.426   2.233  0.00  0.00    -0.058 C 
ATOM      8  H   UNL     1       3.889  -0.017   0.245  0.00  0.00    +0.149 HD
ATOM      9  N   UNL     1       1.567   2.650   1.410  0.00  0.00    +0.391 N 
ATOM     10  H   UNL     1       2.427   3.194   1.546  0.00  0.00    -0.080 HD
BRANCH   9  11
ATOM     11  C   UNL     1       0.406   3.473   1.818  0.00  0.00    -0.039 C 
BRANCH  11  12
ATOM     12  C   UNL     1      -0.852   2.643   1.810  0.00  0.00    -0.029 A 
ATOM     13  C   UNL     1      -1.306   2.065   2.981  0.00  0.00    +0.004 A 
ATOM     14  C   UNL     1      -2.460   1.304   2.974  0.00  0.00    +0.000 A 
ATOM     15  C   UNL     1      -3.160   1.119   1.797  0.00  0.00    +0.003 A 
ATOM     16  C   UNL     1      -2.708   1.696   0.625  0.00  0.00    +0.038 A 
ATOM     17  C   UNL     1      -1.555   2.462   0.632  0.00  0.00    +0.125 A 
ATOM     18  F   UNL     1      -1.115   3.031  -0.512  0.00  0.00    -0.205 F 
ENDBRANCH  11  12
ENDBRANCH   9  11
ENDBRANCH   1   2
BRANCH   1  21
ATOM     19  C   UNL     1       2.280   6.022  -2.059  0.00  0.00    +0.132 C 
ATOM     20  N   UNL     1       3.220   5.390  -1.131  0.00  0.00    -0.296 N 
ATOM     21  C   UNL     1       2.910   4.212  -0.556  0.00  0.00    +0.215 C 
ATOM     22  O   UNL     1       3.689   3.688   0.213  0.00  0.00    -0.276 OA
BRANCH  20  23
ATOM     23  C   UNL     1       4.498   6.039  -0.828  0.00  0.00    +0.206 C 
BRANCH  23  24
ATOM     24  C   UNL     1       5.543   5.572  -1.809  0.00  0.00    +0.245 A 
ATOM     25  N   UNL     1       5.832   6.126  -2.960  0.00  0.00    -0.190 NA
ATOM     26  C   UNL     1       6.823   5.372  -3.487  0.00  0.00    +0.204 A 
ATOM     27  N   UNL     1       7.075   4.413  -2.634  0.00  0.00    -0.056 NA
ATOM     28  O   UNL     1       6.354   4.519  -1.664  0.00  0.00    -0.336 OA
BRANCH  26  29
ATOM     29  C   UNL     1       7.498   5.590  -4.791  0.00  0.00    +0.041 A 
ATOM     30  C   UNL     1       8.513   4.729  -5.218  0.00  0.00    +0.014 A 
ATOM     31  C   UNL     1       9.111   4.976  -6.442  0.00  0.00    +0.020 A 
ATOM     32  C   UNL     1       8.689   6.056  -7.196  0.00  0.00    +0.111 A 
ATOM     33  N   UNL     1       7.729   6.851  -6.766  0.00  0.00    -0.263 NA
ATOM     34  C   UNL     1       7.126   6.653  -5.611  0.00  0.00    +0.122 A 
ENDBRANCH  26  29
ENDBRANCH  23  24
ENDBRANCH  20  23
ENDBRANCH   1  21
TORSDOF 7
