REMARK  Name = ZINC42663645
REMARK  3 active torsions:
REMARK  status: ('A' for Active; 'I' for Inactive)
REMARK    1  A    between atoms: C_8  and  C_13
REMARK    2  A    between atoms: N_15  and  C_16
REMARK    3  A    between atoms: C_16  and  C_17
REMARK                            x       y       z     vdW  Elec       q    Type
REMARK                         _______ _______ _______ _____ _____    ______ ____
ROOT
ATOM      1  C   UNL     1       2.666  -4.182  -0.307  0.00  0.00    +0.255 C 
ATOM      2  O   UNL     1       3.504  -4.624   0.452  0.00  0.00    -0.272 OA
ATOM      3  N   UNL     1       1.823  -5.021  -0.942  0.00  0.00    -0.305 N 
ATOM      4  H   UNL     1       1.154  -4.668  -1.548  0.00  0.00    +0.149 HD
ENDROOT
BRANCH   1  12
ATOM      5  C   UNL     1      -0.017   1.379   0.010  0.00  0.00    +0.000 A 
ATOM      6  C   UNL     1       1.166   2.098   0.002  0.00  0.00    +0.001 A 
ATOM      7  C   UNL     1       2.377   1.435  -0.014  0.00  0.00    +0.015 A 
ATOM      8  C   UNL     1       2.400   0.042  -0.023  0.00  0.00    +0.062 A 
ATOM      9  C   UNL     1       1.206  -0.680  -0.013  0.00  0.00    -0.029 A 
ATOM     10  C   UNL     1       0.002  -0.004   0.002  0.00  0.00    +0.004 A 
ATOM     11  C   UNL     1       1.227  -2.186  -0.011  0.00  0.00    +0.090 C 
ATOM     12  C   UNL     1       2.568  -2.696  -0.539  0.00  0.00    +0.266 C 
ATOM     13  O   UNL     1       3.636  -2.033   0.151  0.00  0.00    -0.448 OA
ATOM     14  C   UNL     1       3.687  -0.691  -0.045  0.00  0.00    +0.340 C 
ATOM     15  O   UNL     1       4.742  -0.117  -0.230  0.00  0.00    -0.245 OA
ENDBRANCH   1  12
BRANCH   3  16
ATOM     16  C   UNL     1       1.919  -6.465  -0.716  0.00  0.00    +0.180 C 
BRANCH  16  17
ATOM     17  C   UNL     1       0.872  -7.172  -1.538  0.00  0.00    +0.151 A 
ATOM     18  N   UNL     1      -0.347  -7.450  -1.165  0.00  0.00    -0.133 NA
ATOM     19  N   UNL     1      -0.962  -8.059  -2.116  0.00  0.00    -0.134 NA
ATOM     20  C   UNL     1      -0.162  -8.197  -3.139  0.00  0.00    +0.134 A 
ATOM     21  N   UNL     1       1.020  -7.632  -2.805  0.00  0.00    -0.313 N 
ATOM     22  C   UNL     1       1.984  -7.729  -3.908  0.00  0.00    +0.125 C 
ATOM     23  C   UNL     1       1.422  -8.810  -4.856  0.00  0.00    +0.029 C 
ATOM     24  C   UNL     1      -0.089  -8.754  -4.545  0.00  0.00    +0.078 C 
ENDBRANCH  16  17
ENDBRANCH   3  16
TORSDOF 3
