REMARK  Name = ZINC49717190
REMARK  5 active torsions:
REMARK  status: ('A' for Active; 'I' for Inactive)
REMARK    1  A    between atoms: C_3  and  N_22
REMARK    2  A    between atoms: C_4  and  N_19
REMARK    3  A    between atoms: C_6  and  S_7
REMARK    4  A    between atoms: S_7  and  N_10
REMARK    5  A    between atoms: N_22  and  N_23
REMARK                            x       y       z     vdW  Elec       q    Type
REMARK                         _______ _______ _______ _____ _____    ______ ____
ROOT
ATOM      1  C   UNL     1       0.004   1.385  -0.205  0.00  0.00    +0.030 A 
ATOM      2  C   UNL     1       1.207   2.062  -0.268  0.00  0.00    +0.028 A 
ATOM      3  C   UNL     1       2.398   1.377  -0.068  0.00  0.00    +0.071 A 
ATOM      4  C   UNL     1       2.376   0.012   0.194  0.00  0.00    +0.150 A 
ATOM      5  C   UNL     1       1.170  -0.658   0.256  0.00  0.00    +0.063 A 
ATOM      6  C   UNL     1      -0.015   0.028   0.057  0.00  0.00    +0.108 A 
ENDROOT
BRANCH   6   7
ATOM      7  S   UNL     1      -1.551  -0.831   0.136  0.00  0.00    +0.061 S 
ATOM      8  O   UNL     1      -1.330  -1.986   0.933  0.00  0.00    -0.153 OA
ATOM      9  O   UNL     1      -2.541   0.137   0.455  0.00  0.00    -0.153 OA
BRANCH   7  10
ATOM     10  N   UNL     1      -1.891  -1.369  -1.393  0.00  0.00    -0.173 NA
ATOM     11  C   UNL     1      -2.643  -0.643  -2.437  0.00  0.00    +0.113 C 
ATOM     12  C   UNL     1      -2.686  -1.611  -3.660  0.00  0.00    +0.006 C 
ATOM     13  C   UNL     1      -1.220  -1.607  -4.196  0.00  0.00    +0.006 C 
ATOM     14  C   UNL     1      -0.407  -2.298  -3.076  0.00  0.00    +0.021 C 
ATOM     15  C   UNL     1      -1.492  -2.679  -1.985  0.00  0.00    +0.080 C 
ATOM     16  C   UNL     1      -2.734  -2.985  -2.899  0.00  0.00    +0.025 C 
ENDBRANCH   7  10
ENDBRANCH   6   7
BRANCH   4  17
ATOM     17  N   UNL     1       3.643  -0.722   0.407  0.00  0.00    +0.058 N 
ATOM     18  O   UNL     1       3.769  -1.846  -0.020  0.00  0.00    -0.126 OA
ATOM     19  O   UNL     1       4.552  -0.198   1.007  0.00  0.00    -0.126 OA
ENDBRANCH   4  17
BRANCH   3  20
ATOM     20  N   UNL     1       3.616   2.057  -0.131  0.00  0.00    -0.281 N 
ATOM     21  H   UNL     1       4.450   1.566  -0.070  0.00  0.00    +0.166 HD
BRANCH  20  22
ATOM     22  N   UNL     1       3.633   3.415  -0.279  0.00  0.00    -0.256 NA
ATOM     23  H   UNL     1       3.104   3.865   0.453  0.00  0.00    +0.140 HD
ATOM     24  H   UNL     1       4.579   3.764  -0.309  0.00  0.00    +0.140 HD
ENDBRANCH  20  22
ENDBRANCH   3  20
TORSDOF 5
