REMARK  Name = ZINC33276528
REMARK  6 active torsions:
REMARK  status: ('A' for Active; 'I' for Inactive)
REMARK    1  A    between atoms: C_1  and  C_2
REMARK    2  A    between atoms: C_5  and  C_23
REMARK    3  A    between atoms: C_7  and  S_8
REMARK    4  A    between atoms: S_8  and  N_11
REMARK    5  A    between atoms: N_14  and  C_17
REMARK    6  A    between atoms: C_24  and  C_35
REMARK                            x       y       z     vdW  Elec       q    Type
REMARK                         _______ _______ _______ _____ _____    ______ ____
ROOT
ATOM      1  C   UNL     1      -0.101  -5.277   0.974  0.00  0.00    +0.046 C 
ATOM      2  C   UNL     1       1.273  -5.015   0.411  0.00  0.00    -0.024 A 
ATOM      3  C   UNL     1       1.422  -4.176  -0.679  0.00  0.00    +0.006 A 
ATOM      4  C   UNL     1       2.677  -3.932  -1.198  0.00  0.00    +0.009 A 
ATOM      5  C   UNL     1       3.796  -4.532  -0.621  0.00  0.00    -0.011 A 
ATOM      6  C   UNL     1       3.639  -5.380   0.474  0.00  0.00    +0.037 A 
ATOM      7  C   UNL     1       2.379  -5.613   0.987  0.00  0.00    +0.109 A 
ENDROOT
BRANCH   5   8
ATOM      8  C   UNL     1       5.147  -4.274  -1.174  0.00  0.00    +0.045 A 
ATOM      9  C   UNL     1       6.202  -3.611  -0.519  0.00  0.00    +0.070 A 
ATOM     10  N   UNL     1       7.233  -3.594  -1.314  0.00  0.00    -0.167 NA
ATOM     11  N   UNL     1       6.911  -4.278  -2.503  0.00  0.00    -0.185 N 
ATOM     12  C   UNL     1       5.604  -4.641  -2.435  0.00  0.00    +0.139 A 
ATOM     13  N   UNL     1       4.784  -5.197  -3.397  0.00  0.00    -0.270 N 
ATOM     14  C   UNL     1       5.187  -6.064  -4.348  0.00  0.00    +0.219 C 
ATOM     15  O   UNL     1       4.393  -6.486  -5.161  0.00  0.00    -0.275 OA
ATOM     16  C   UNL     1       6.613  -6.503  -4.399  0.00  0.00    +0.105 C 
ATOM     17  C   UNL     1       7.544  -5.347  -4.655  0.00  0.00    +0.110 C 
ATOM     18  C   UNL     1       7.819  -4.507  -3.475  0.00  0.00    +0.250 C 
ATOM     19  O   UNL     1       8.908  -3.994  -3.376  0.00  0.00    -0.271 OA
ATOM     20  C   UNL     1       6.148  -3.022   0.867  0.00  0.00    +0.068 C 
ATOM     21  H   UNL     1       3.715  -4.939  -3.423  0.00  0.00    +0.156 HD
ENDBRANCH   5   8
BRANCH   7  22
ATOM     22  S   UNL     1       2.179  -6.680   2.375  0.00  0.00    +0.061 S 
ATOM     23  O   UNL     1       3.481  -7.103   2.753  0.00  0.00    -0.153 OA
ATOM     24  O   UNL     1       1.302  -6.015   3.275  0.00  0.00    -0.153 OA
BRANCH  22  25
ATOM     25  N   UNL     1       1.378  -8.029   1.845  0.00  0.00    -0.180 NA
ATOM     26  C   UNL     1      -0.083  -8.139   1.975  0.00  0.00    +0.091 C 
ATOM     27  C   UNL     1      -0.662  -8.523   0.604  0.00  0.00    -0.061 C 
ATOM     28  N   UNL     1       0.011  -9.734   0.115  0.00  0.00    +0.383 N 
ATOM     29  C   UNL     1       1.445  -9.497  -0.100  0.00  0.00    -0.061 C 
ATOM     30  C   UNL     1       2.109  -9.150   1.236  0.00  0.00    +0.091 C 
ATOM     31  H   UNL     1      -0.087 -10.507   0.892  0.00  0.00    -0.081 HD
BRANCH  28  32
ATOM     32  C   UNL     1      -0.629 -10.235  -1.108  0.00  0.00    -0.068 C 
ATOM     33  C   UNL     1      -0.575  -9.156  -2.191  0.00  0.00    -0.015 C 
ATOM     34  C   UNL     1      -1.242  -9.679  -3.465  0.00  0.00    -0.002 C 
ATOM     35  C   UNL     1      -2.701 -10.031  -3.169  0.00  0.00    -0.000 C 
ATOM     36  C   UNL     1      -2.756 -11.110  -2.085  0.00  0.00    -0.002 C 
ATOM     37  C   UNL     1      -2.088 -10.588  -0.811  0.00  0.00    -0.015 C 
ENDBRANCH  28  32
ENDBRANCH  22  25
ENDBRANCH   7  22
TORSDOF 4
