REMARK  Name = ZINC38998995
REMARK  5 active torsions:
REMARK  status: ('A' for Active; 'I' for Inactive)
REMARK    1  A    between atoms: C_1  and  C_2
REMARK    2  A    between atoms: C_7  and  N_11
REMARK    3  A    between atoms: N_11  and  C_12
REMARK    4  A    between atoms: N_15  and  S_16
REMARK    5  A    between atoms: S_16  and  C_19
REMARK                            x       y       z     vdW  Elec       q    Type
REMARK                         _______ _______ _______ _____ _____    ______ ____
ROOT
ATOM      1  C   UNL     1      -0.018  -7.256  -1.076  0.00  0.00    +0.237 C 
ATOM      2  C   UNL     1      -1.165  -8.188  -0.752  0.00  0.00    +0.192 C 
ATOM      3  N   UNL     1      -2.363  -7.719  -0.567  0.00  0.00    -0.110 NA
ATOM      4  N   UNL     1      -0.927  -9.506  -0.659  0.00  0.00    -0.226 NA
ATOM      5  C   UNL     1       0.278 -10.005  -0.842  0.00  0.00    +0.089 A 
ATOM      6  C   UNL     1       0.493 -11.402  -0.736  0.00  0.00    +0.030 A 
ATOM      7  C   UNL     1       1.727 -11.919  -0.923  0.00  0.00    +0.002 A 
ATOM      8  C   UNL     1       2.845 -11.126  -1.226  0.00  0.00    +0.002 A 
ATOM      9  C   UNL     1       2.752  -9.784  -1.349  0.00  0.00    +0.027 A 
ATOM     10  C   UNL     1       1.442  -9.142  -1.161  0.00  0.00    +0.063 A 
ATOM     11  N   UNL     1       1.313  -7.850  -1.273  0.00  0.00    -0.359 N 
ATOM     12  H   UNL     1       2.079  -7.292  -1.483  0.00  0.00    +0.162 HD
ENDROOT
BRANCH   3  13
ATOM     13  S   UNL     1      -3.610  -8.750  -0.213  0.00  0.00    +0.101 S 
ATOM     14  O   UNL     1      -3.807  -9.560  -1.364  0.00  0.00    -0.146 OA
ATOM     15  O   UNL     1      -3.331  -9.301   1.067  0.00  0.00    -0.146 OA
BRANCH  13  16
ATOM     16  C   UNL     1      -5.062  -7.769  -0.033  0.00  0.00    +0.116 A 
ATOM     17  C   UNL     1      -5.399  -7.255   1.206  0.00  0.00    +0.033 A 
ATOM     18  C   UNL     1      -6.538  -6.487   1.351  0.00  0.00    +0.051 A 
ATOM     19  C   UNL     1      -7.346  -6.227   0.254  0.00  0.00    +0.162 A 
ATOM     20  C   UNL     1      -7.006  -6.741  -0.991  0.00  0.00    +0.164 A 
ATOM     21  C   UNL     1      -5.860  -7.509  -1.131  0.00  0.00    +0.078 A 
ATOM     22  O   UNL     1      -7.781  -6.492  -2.083  0.00  0.00    -0.485 OA
ATOM     23  C   UNL     1      -9.112  -6.027  -1.834  0.00  0.00    +0.270 C 
ATOM     24  C   UNL     1      -9.045  -4.920  -0.774  0.00  0.00    +0.270 C 
ATOM     25  O   UNL     1      -8.466  -5.471   0.414  0.00  0.00    -0.485 OA
ENDBRANCH  13  16
ENDBRANCH   3  13
BRANCH   1  26
ATOM     26  N   UNL     1       0.085  -6.279   0.011  0.00  0.00    -0.318 N 
ATOM     27  H   UNL     1       0.131  -6.581   0.932  0.00  0.00    +0.148 HD
BRANCH  26  34
ATOM     28  C   UNL     1       0.370   0.839  -3.122  0.00  0.00    +0.073 C 
ATOM     29  C   UNL     1       0.314  -0.536  -2.507  0.00  0.00    +0.076 A 
ATOM     30  N   UNL     1       0.221  -0.866  -1.248  0.00  0.00    -0.244 NA
ATOM     31  C   UNL     1       0.179  -2.150  -0.831  0.00  0.00    +0.079 A 
ATOM     32  C   UNL     1       0.080  -2.637   0.493  0.00  0.00    +0.031 A 
ATOM     33  C   UNL     1       0.051  -3.971   0.748  0.00  0.00    +0.025 A 
ATOM     34  C   UNL     1       0.116  -4.912  -0.279  0.00  0.00    +0.030 A 
ATOM     35  C   UNL     1       0.214  -4.474  -1.593  0.00  0.00    +0.040 A 
ATOM     36  C   UNL     1       0.244  -3.126  -1.853  0.00  0.00    +0.041 A 
ATOM     37  S   UNL     1       0.350  -2.128  -3.319  0.00  0.00    -0.072 S 
ENDBRANCH  26  34
ENDBRANCH   1  26
TORSDOF 4
