REMARK  Name = ZINC35050904
REMARK  12 active torsions:
REMARK  status: ('A' for Active; 'I' for Inactive)
REMARK    1  A    between atoms: C_1  and  C_2
REMARK    2  A    between atoms: C_4  and  O_34
REMARK    3  A    between atoms: C_6  and  O_30
REMARK    4  A    between atoms: C_9  and  C_10
REMARK    5  A    between atoms: C_9  and  C_11
REMARK    6  A    between atoms: C_14  and  O_29
REMARK    7  A    between atoms: C_18  and  C_28
REMARK    8  A    between atoms: C_21  and  O_27
REMARK    9  A    between atoms: C_23  and  C_25
REMARK   10  A    between atoms: C_25  and  O_26
REMARK   11  A    between atoms: O_30  and  C_31
REMARK   12  A    between atoms: C_31  and  C_33
REMARK                            x       y       z     vdW  Elec       q    Type
REMARK                         _______ _______ _______ _____ _____    ______ ____
ROOT
ATOM      1  C   UNL     1      -0.361   1.227   0.459  0.00  0.00    +0.013 C 
ATOM      2  C   UNL     1      -0.149  -0.270   0.259  0.00  0.00    +0.051 C 
ATOM      3  C   UNL     1       0.496  -0.490  -1.114  0.00  0.00    +0.165 C 
ATOM      4  C   UNL     1       0.480  -1.988  -1.398  0.00  0.00    +0.149 C 
ATOM      5  C   UNL     1       0.629  -2.917  -0.200  0.00  0.00    +0.055 C 
ATOM      6  C   UNL     1       1.749  -2.819  -1.224  0.00  0.00    +0.015 C 
ATOM      7  C   UNL     1       3.053  -2.107  -0.877  0.00  0.00    +0.015 C 
ATOM      8  C   UNL     1       1.920  -4.010  -2.185  0.00  0.00    +0.015 C 
ATOM      9  C   UNL     1       0.760  -2.387   1.211  0.00  0.00    +0.052 C 
ATOM     10  C   UNL     1       0.722  -0.878   1.364  0.00  0.00    +0.087 C 
ATOM     11  C   UNL     1       0.116  -0.516   2.712  0.00  0.00    +0.084 C 
ATOM     12  C   UNL     1       0.557   0.826   3.242  0.00  0.00    -0.011 C 
ATOM     13  C   UNL     1       0.550   0.781   4.579  0.00  0.00    -0.009 C 
ATOM     14  C   UNL     1       0.182  -0.556   5.051  0.00  0.00    +0.191 C 
ATOM     15  O   UNL     1      -0.250  -0.893   6.123  0.00  0.00    -0.289 OA
ATOM     16  C   UNL     1       0.518  -1.465   3.854  0.00  0.00    +0.140 C 
ATOM     17  C   UNL     1       2.041  -1.613   3.864  0.00  0.00    +0.076 C 
ATOM     18  C   UNL     1       2.492  -2.728   2.982  0.00  0.00    -0.045 C 
ATOM     19  C   UNL     1       1.940  -3.043   1.858  0.00  0.00    -0.019 C 
ATOM     20  C   UNL     1       0.871   1.948   5.473  0.00  0.00    +0.047 C 
ENDROOT
BRANCH  16  21
ATOM     21  O   UNL     1      -0.190  -2.696   3.897  0.00  0.00    -0.380 OA
ATOM     22  H   UNL     1       0.076  -3.278   4.621  0.00  0.00    +0.211 HD
ENDBRANCH  16  21
BRANCH  10  23
ATOM     23  O   UNL     1       2.037  -0.337   1.271  0.00  0.00    -0.387 OA
ATOM     24  H   UNL     1       2.075   0.625   1.369  0.00  0.00    +0.210 HD
ENDBRANCH  10  23
BRANCH   3  25
ATOM     25  O   UNL     1      -0.284   0.189  -2.108  0.00  0.00    -0.387 OA
ATOM     26  H   UNL     1      -0.353   1.144  -1.970  0.00  0.00    +0.210 HD
ENDBRANCH   3  25
BRANCH  18  27
ATOM     27  C   UNL     1       3.672  -3.551   3.440  0.00  0.00    +0.186 C 
BRANCH  27  28
ATOM     28  O   UNL     1       3.951  -4.563   2.471  0.00  0.00    -0.391 OA
ATOM     29  H   UNL     1       4.699  -5.132   2.700  0.00  0.00    +0.210 HD
ENDBRANCH  27  28
ENDBRANCH  18  27
BRANCH   4  30
ATOM     30  O   UNL     1      -0.432  -2.402  -2.421  0.00  0.00    -0.455 OA
BRANCH  30  31
ATOM     31  C   UNL     1      -0.180  -1.981  -3.670  0.00  0.00    +0.305 C 
ATOM     32  O   UNL     1       0.827  -1.355  -3.905  0.00  0.00    -0.251 OA
ATOM     33  C   UNL     1      -1.152  -2.288  -4.780  0.00  0.00    +0.136 C 
ENDBRANCH  30  31
ENDBRANCH   4  30
TORSDOF 7
