REMARK  Name = ZINC63558177
REMARK  10 active torsions:
REMARK  status: ('A' for Active; 'I' for Inactive)
REMARK    1  A    between atoms: C_1  and  C_2
REMARK    2  A    between atoms: C_2  and  C_3
REMARK    3  A    between atoms: C_3  and  C_5
REMARK    4  A    between atoms: C_3  and  S_19
REMARK    5  A    between atoms: N_7  and  C_8
REMARK    6  A    between atoms: C_11  and  C_14
REMARK    7  A    between atoms: C_14  and  O_16
REMARK    8  A    between atoms: O_16  and  C_17
REMARK    9  A    between atoms: C_17  and  C_18
REMARK   10  A    between atoms: S_19  and  C_20
REMARK                            x       y       z     vdW  Elec       q    Type
REMARK                         _______ _______ _______ _____ _____    ______ ____
ROOT
ATOM      1  C   UNL     1       1.054  -0.776   1.267  0.00  0.00    +0.136 C 
ENDROOT
BRANCH   1   2
ATOM      2  C   UNL     1       1.049  -2.275   1.111  0.00  0.00    +0.230 C 
ATOM      3  O   UNL     1       2.023  -2.842   0.664  0.00  0.00    -0.274 OA
ATOM      4  N   UNL     1      -0.040  -2.985   1.469  0.00  0.00    -0.285 N 
ATOM      5  H   UNL     1      -0.792  -2.540   1.889  0.00  0.00    +0.155 HD
BRANCH   4   6
ATOM      6  C   UNL     1      -0.083  -4.359   1.236  0.00  0.00    +0.033 A 
ATOM      7  C   UNL     1      -0.762  -5.192   2.119  0.00  0.00    +0.024 A 
ATOM      8  C   UNL     1      -0.807  -6.548   1.892  0.00  0.00    +0.017 A 
ATOM      9  C   UNL     1      -0.169  -7.089   0.771  0.00  0.00    +0.059 A 
ATOM     10  C   UNL     1       0.512  -6.249  -0.115  0.00  0.00    +0.017 A 
ATOM     11  C   UNL     1       0.548  -4.893   0.117  0.00  0.00    +0.024 A 
BRANCH   9  12
ATOM     12  C   UNL     1      -0.215  -8.542   0.524  0.00  0.00    +0.339 C 
ATOM     13  O   UNL     1      -0.807  -9.271   1.296  0.00  0.00    -0.245 OA
BRANCH  12  14
ATOM     14  O   UNL     1       0.400  -9.062  -0.556  0.00  0.00    -0.461 OA
BRANCH  14  15
ATOM     15  C   UNL     1       0.316 -10.477  -0.733  0.00  0.00    +0.229 C 
ATOM     16  C   UNL     1       1.068 -10.879  -2.003  0.00  0.00    +0.048 C 
ENDBRANCH  14  15
ENDBRANCH  12  14
ENDBRANCH   9  12
ENDBRANCH   4   6
ENDBRANCH   1   2
BRANCH   1  18
ATOM     17  C   UNL     1       0.194   1.371   0.322  0.00  0.00    +0.005 C 
ATOM     18  C   UNL     1       0.301  -0.139   0.097  0.00  0.00    +0.020 C 
ENDBRANCH   1  18
BRANCH   1  19
ATOM     19  S   UNL     1       2.766  -0.176   1.282  0.00  0.00    -0.102 S 
BRANCH  19  20
ATOM     20  C   UNL     1       3.424  -0.765   2.867  0.00  0.00    +0.237 C 
ATOM     21  N   UNL     1       3.416  -2.233   2.901  0.00  0.00    -0.354 N 
ATOM     22  C   UNL     1       2.651  -2.595   3.888  0.00  0.00    +0.080 A 
ATOM     23  C   UNL     1       2.255  -3.913   4.418  0.00  0.00    +0.030 A 
ATOM     24  C   UNL     1       1.422  -3.935   5.485  0.00  0.00    +0.022 A 
ATOM     25  C   UNL     1       0.957  -2.738   6.061  0.00  0.00    +0.113 A 
ATOM     26  N   UNL     1       1.283  -1.557   5.624  0.00  0.00    -0.236 NA
ATOM     27  C   UNL     1       2.107  -1.388   4.566  0.00  0.00    +0.152 A 
ATOM     28  N   UNL     1       2.561  -0.319   3.967  0.00  0.00    -0.340 N 
ATOM     29  H   UNL     1       2.364   0.600   4.206  0.00  0.00    +0.164 HD
ATOM     30  H   UNL     1       3.893  -2.824   2.298  0.00  0.00    +0.163 HD
ENDBRANCH  19  20
ENDBRANCH   1  19
TORSDOF 8
