REMARK  Name = ZINC22330104
REMARK  4 active torsions:
REMARK  status: ('A' for Active; 'I' for Inactive)
REMARK    1  A    between atoms: C_1  and  C_2
REMARK    2  A    between atoms: C_4  and  C_26
REMARK    3  A    between atoms: C_13  and  N_17
REMARK    4  A    between atoms: C_18  and  C_20
REMARK                            x       y       z     vdW  Elec       q    Type
REMARK                         _______ _______ _______ _____ _____    ______ ____
ROOT
ATOM      1  C   UNL     1       0.151   2.499   4.793  0.00  0.00    +0.044 C 
ATOM      2  C   UNL     1      -0.649   2.250   3.540  0.00  0.00    -0.048 A 
ATOM      3  C   UNL     1      -0.009   1.803   2.392  0.00  0.00    +0.007 A 
ATOM      4  C   UNL     1      -0.718   1.572   1.248  0.00  0.00    -0.041 A 
ATOM      5  C   UNL     1      -2.097   1.792   1.228  0.00  0.00    +0.006 A 
ATOM      6  C   UNL     1      -2.751   2.240   2.392  0.00  0.00    +0.047 A 
ATOM      7  C   UNL     1      -2.009   2.468   3.546  0.00  0.00    +0.029 A 
ATOM      8  N   UNL     1      -4.090   2.362   2.087  0.00  0.00    -0.358 N 
ATOM      9  H   UNL     1      -4.799   2.705   2.854  0.00  0.00    +0.166 HD
ATOM     10  C   UNL     1      -4.305   2.008   0.785  0.00  0.00    +0.020 A 
ATOM     11  C   UNL     1      -3.139   1.649   0.215  0.00  0.00    -0.017 A 
ATOM     12  C   UNL     1      -2.986   1.195  -1.213  0.00  0.00    +0.059 C 
ATOM     13  C   UNL     1      -4.372   0.825  -1.756  0.00  0.00    +0.078 C 
ATOM     14  C   UNL     1      -5.355   1.959  -1.451  0.00  0.00    +0.028 C 
ATOM     15  C   UNL     1      -5.629   2.006   0.056  0.00  0.00    +0.055 C 
ATOM     16  C   UNL     1      -0.013   1.086   0.008  0.00  0.00    +0.044 C 
ENDROOT
BRANCH  13  17
ATOM     17  N   UNL     1      -4.292   0.624  -3.205  0.00  0.00    -0.310 N 
ATOM     18  C   UNL     1      -5.192  -0.163  -3.827  0.00  0.00    +0.242 C 
ATOM     19  O   UNL     1      -6.068  -0.705  -3.187  0.00  0.00    -0.273 OA
ATOM     20  H   UNL     1      -3.497   1.116  -3.785  0.00  0.00    +0.149 HD
BRANCH  18  21
ATOM     21  C   UNL     1      -5.109  -0.370  -5.318  0.00  0.00    +0.204 C 
ATOM     22  C   UNL     1      -5.380   0.964  -6.047  0.00  0.00    +0.043 C 
ATOM     23  C   UNL     1      -6.231   0.507  -7.264  0.00  0.00    +0.031 C 
ATOM     24  C   UNL     1      -7.028  -0.667  -6.641  0.00  0.00    +0.161 C 
ATOM     25  O   UNL     1      -6.112  -1.303  -5.735  0.00  0.00    -0.367 OA
ENDBRANCH  18  21
ENDBRANCH  13  17
TORSDOF 2
