REMARK  Name = ZINC64741228
REMARK  10 active torsions:
REMARK  status: ('A' for Active; 'I' for Inactive)
REMARK    1  A    between atoms: C_1  and  C_2
REMARK    2  A    between atoms: C_7  and  C_8
REMARK    3  A    between atoms: C_8  and  S_9
REMARK    4  A    between atoms: S_9  and  C_10
REMARK    5  A    between atoms: C_16  and  C_24
REMARK    6  A    between atoms: N_26  and  C_27
REMARK    7  A    between atoms: C_30  and  O_35
REMARK    8  A    between atoms: C_32  and  O_33
REMARK    9  A    between atoms: O_33  and  C_34
REMARK   10  A    between atoms: O_35  and  C_36
REMARK                            x       y       z     vdW  Elec       q    Type
REMARK                         _______ _______ _______ _____ _____    ______ ____
ROOT
ATOM      1  C   UNL     1      -1.567   1.250   4.534  0.00  0.00    +0.182 C 
ATOM      2  N   UNL     1      -0.334   1.502   4.939  0.00  0.00    -0.154 NA
ATOM      3  C   UNL     1      -0.077   2.078   6.115  0.00  0.00    +0.249 C 
ATOM      4  O   UNL     1       1.059   2.330   6.467  0.00  0.00    -0.273 OA
ATOM      5  C   UNL     1      -1.271   2.402   6.989  0.00  0.00    +0.153 C 
ATOM      6  C   UNL     1      -1.220   3.890   7.338  0.00  0.00    +0.103 C 
ATOM      7  C   UNL     1      -2.321   4.192   8.358  0.00  0.00    +0.110 C 
ATOM      8  C   UNL     1      -3.637   3.623   7.913  0.00  0.00    +0.219 C 
ATOM      9  O   UNL     1      -4.653   4.058   8.410  0.00  0.00    -0.275 OA
ATOM     10  N   UNL     1      -3.738   2.653   6.989  0.00  0.00    -0.273 N 
ATOM     11  C   UNL     1      -2.633   2.160   6.365  0.00  0.00    +0.117 C 
ATOM     12  N   UNL     1      -2.679   1.591   5.194  0.00  0.00    -0.212 NA
ATOM     13  H   UNL     1      -4.609   2.286   6.771  0.00  0.00    +0.156 HD
ENDROOT
BRANCH   6  14
ATOM     14  C   UNL     1       0.126   4.226   7.928  0.00  0.00    +0.222 C 
ATOM     15  O   UNL     1       0.461   3.743   8.989  0.00  0.00    -0.275 OA
ATOM     16  N   UNL     1       0.958   5.061   7.276  0.00  0.00    -0.282 N 
ATOM     17  H   UNL     1       0.669   5.493   6.457  0.00  0.00    +0.155 HD
BRANCH  16  18
ATOM     18  C   UNL     1       2.244   5.307   7.781  0.00  0.00    +0.076 A 
ATOM     19  C   UNL     1       2.497   5.159   9.137  0.00  0.00    +0.030 A 
ATOM     20  C   UNL     1       3.763   5.401   9.635  0.00  0.00    +0.047 A 
ATOM     21  C   UNL     1       4.783   5.793   8.781  0.00  0.00    +0.124 A 
ATOM     22  C   UNL     1       4.535   5.943   7.425  0.00  0.00    +0.093 A 
ATOM     23  C   UNL     1       3.269   5.695   6.921  0.00  0.00    +0.145 A 
BRANCH  23  24
ATOM     24  O   UNL     1       3.025   5.836   5.591  0.00  0.00    -0.493 OA
ATOM     25  C   UNL     1       4.123   6.236   4.769  0.00  0.00    +0.277 C 
ENDBRANCH  23  24
BRANCH  21  26
ATOM     26  O   UNL     1       6.028   6.030   9.274  0.00  0.00    -0.495 OA
ATOM     27  C   UNL     1       6.213   5.856  10.680  0.00  0.00    +0.277 C 
ENDBRANCH  21  26
ENDBRANCH  16  18
ENDBRANCH   6  14
BRANCH   1  28
ATOM     28  S   UNL     1      -1.760   0.405   3.000  0.00  0.00    -0.084 S 
BRANCH  28  29
ATOM     29  C   UNL     1      -0.059   0.127   2.434  0.00  0.00    +0.112 C 
BRANCH  29  36
ATOM     30  C   UNL     1      -0.122   1.625  -0.035  0.00  0.00    +0.044 C 
ATOM     31  C   UNL     1      -0.110   0.119  -0.068  0.00  0.00    -0.046 A 
ATOM     32  C   UNL     1      -0.125  -0.546  -1.280  0.00  0.00    +0.003 A 
ATOM     33  C   UNL     1      -0.114  -1.928  -1.310  0.00  0.00    +0.000 A 
ATOM     34  C   UNL     1      -0.089  -2.645  -0.128  0.00  0.00    +0.000 A 
ATOM     35  C   UNL     1      -0.074  -1.980   1.083  0.00  0.00    +0.005 A 
ATOM     36  C   UNL     1      -0.080  -0.598   1.113  0.00  0.00    -0.034 A 
ENDBRANCH  29  36
ENDBRANCH  28  29
ENDBRANCH   1  28
TORSDOF 7
