REMARK  Name = ZINC20777213
REMARK  9 active torsions:
REMARK  status: ('A' for Active; 'I' for Inactive)
REMARK    1  A    between atoms: C_1  and  C_2
REMARK    2  A    between atoms: C_2  and  C_4
REMARK    3  A    between atoms: C_2  and  N_9
REMARK    4  A    between atoms: C_10  and  C_12
REMARK    5  A    between atoms: C_13  and  O_37
REMARK    6  A    between atoms: N_21  and  C_24
REMARK    7  A    between atoms: C_24  and  C_25
REMARK    8  A    between atoms: C_30  and  C_31
REMARK    9  A    between atoms: O_37  and  C_38
REMARK                            x       y       z     vdW  Elec       q    Type
REMARK                         _______ _______ _______ _____ _____    ______ ____
ROOT
ATOM      1  C   UNL     1       2.552   2.753  -4.140  0.00  0.00    +0.098 A 
ATOM      2  C   UNL     1       2.757   3.962  -4.939  0.00  0.00    +0.139 A 
ATOM      3  C   UNL     1       1.769   4.925  -4.915  0.00  0.00    +0.116 A 
ATOM      4  C   UNL     1       0.623   4.700  -4.151  0.00  0.00    +0.255 A 
ATOM      5  O   UNL     1      -0.245   5.557  -4.122  0.00  0.00    -0.268 OA
ATOM      6  N   UNL     1       0.442   3.562  -3.440  0.00  0.00    -0.310 N 
ATOM      7  C   UNL     1       1.386   2.613  -3.401  0.00  0.00    +0.039 A 
ATOM      8  C   UNL     1       1.267   1.368  -2.555  0.00  0.00    +0.070 C 
ATOM      9  C   UNL     1      -0.193   0.957  -2.371  0.00  0.00    +0.091 C 
ATOM     10  N   UNL     1      -0.704   1.601  -1.153  0.00  0.00    -0.296 NA
ATOM     11  C   UNL     1      -0.619   3.061  -1.265  0.00  0.00    +0.106 C 
ATOM     12  C   UNL     1      -0.836   3.432  -2.733  0.00  0.00    +0.140 C 
ENDROOT
BRANCH   1  14
ATOM     13  N   UNL     1       4.429   1.602  -3.081  0.00  0.00    -0.302 N 
ATOM     14  C   UNL     1       3.575   1.694  -4.119  0.00  0.00    +0.250 C 
ATOM     15  O   UNL     1       3.650   0.902  -5.039  0.00  0.00    -0.270 OA
ATOM     16  H   UNL     1       4.310   2.264  -2.210  0.00  0.00    +0.150 HD
BRANCH  13  18
ATOM     17  C   UNL     1       5.000  -0.730  -2.615  0.00  0.00    +0.036 C 
ATOM     18  C   UNL     1       5.517   0.622  -3.111  0.00  0.00    +0.136 C 
BRANCH  18  19
ATOM     19  C   UNL     1       6.639   1.088  -2.220  0.00  0.00    +0.125 A 
ATOM     20  C   UNL     1       7.953   0.985  -2.489  0.00  0.00    +0.046 A 
ATOM     21  C   UNL     1       8.642   1.544  -1.389  0.00  0.00    +0.041 A 
ATOM     22  C   UNL     1       7.708   1.956  -0.512  0.00  0.00    +0.195 A 
ATOM     23  O   UNL     1       6.497   1.682  -1.024  0.00  0.00    -0.466 OA
ENDBRANCH  18  19
ENDBRANCH  13  18
ENDBRANCH   1  14
BRANCH   2  24
ATOM     24  O   UNL     1       3.879   4.129  -5.677  0.00  0.00    -0.494 OA
ATOM     25  C   UNL     1       3.989   5.342  -6.424  0.00  0.00    +0.277 C 
ENDBRANCH   2  24
BRANCH  10  26
ATOM     26  C   UNL     1       0.014   1.122   0.036  0.00  0.00    +0.123 C 
BRANCH  26  27
ATOM     27  C   UNL     1      -0.682   1.618   1.277  0.00  0.00    +0.012 A 
ATOM     28  C   UNL     1      -0.311   2.678   2.028  0.00  0.00    +0.110 A 
ATOM     29  N   UNL     1      -1.188   2.795   3.048  0.00  0.00    -0.284 N 
ATOM     30  H   UNL     1      -1.069   3.601   3.786  0.00  0.00    +0.188 HD
ATOM     31  N   UNL     1      -2.137   1.772   2.926  0.00  0.00    -0.174 NA
ATOM     32  C   UNL     1      -1.839   1.063   1.857  0.00  0.00    +0.097 A 
BRANCH  32  33
ATOM     33  C   UNL     1      -2.589  -0.115   1.354  0.00  0.00    +0.002 A 
ATOM     34  C   UNL     1      -2.700  -0.341  -0.016  0.00  0.00    +0.010 A 
ATOM     35  C   UNL     1      -3.393  -1.441  -0.478  0.00  0.00    +0.001 A 
ATOM     36  C   UNL     1      -3.986  -2.313   0.416  0.00  0.00    +0.000 A 
ATOM     37  C   UNL     1      -3.884  -2.091   1.778  0.00  0.00    +0.001 A 
ATOM     38  C   UNL     1      -3.189  -0.997   2.251  0.00  0.00    +0.010 A 
ENDBRANCH  32  33
ENDBRANCH  26  27
ENDBRANCH  10  26
TORSDOF 7
