REMARK  Name = ZINC04908575
REMARK  5 active torsions:
REMARK  status: ('A' for Active; 'I' for Inactive)
REMARK    1  A    between atoms: C_1  and  C_2
REMARK    2  A    between atoms: C_3  and  N_15
REMARK    3  A    between atoms: N_6  and  C_9
REMARK    4  A    between atoms: N_7  and  C_8
REMARK    5  A    between atoms: N_18  and  C_19
REMARK                            x       y       z     vdW  Elec       q    Type
REMARK                         _______ _______ _______ _____ _____    ______ ____
ROOT
ATOM      1  C   UNL     1      -0.645   1.855  -0.596  0.00  0.00    +0.067 C 
ATOM      2  C   UNL     1      -0.107   0.556  -0.052  0.00  0.00    +0.059 A 
ATOM      3  C   UNL     1       0.054  -0.587  -0.753  0.00  0.00    +0.122 A 
ATOM      4  C   UNL     1       0.584  -1.568   0.125  0.00  0.00    +0.293 A 
ATOM      5  O   UNL     1       0.857  -2.719  -0.165  0.00  0.00    -0.264 OA
ATOM      6  N   UNL     1       0.731  -0.996   1.337  0.00  0.00    -0.216 N 
ATOM      7  N   UNL     1       0.307   0.335   1.237  0.00  0.00    -0.282 N 
ATOM      8  C   UNL     1       0.303   1.320   2.321  0.00  0.00    +0.171 C 
ENDROOT
BRANCH   6   9
ATOM      9  C   UNL     1       1.224  -1.620   2.488  0.00  0.00    +0.067 A 
ATOM     10  C   UNL     1       0.541  -1.500   3.691  0.00  0.00    +0.028 A 
ATOM     11  C   UNL     1       1.030  -2.117   4.826  0.00  0.00    +0.002 A 
ATOM     12  C   UNL     1       2.200  -2.853   4.765  0.00  0.00    +0.000 A 
ATOM     13  C   UNL     1       2.882  -2.974   3.568  0.00  0.00    +0.002 A 
ATOM     14  C   UNL     1       2.395  -2.364   2.429  0.00  0.00    +0.028 A 
ENDBRANCH   6   9
BRANCH   3  15
ATOM     15  N   UNL     1      -0.250  -0.774  -2.117  0.00  0.00    -0.263 N 
ATOM     16  C   UNL     1      -1.158  -1.699  -2.485  0.00  0.00    +0.308 C 
ATOM     17  O   UNL     1      -1.639  -2.444  -1.652  0.00  0.00    -0.252 OA
ATOM     18  N   UNL     1      -1.533  -1.800  -3.775  0.00  0.00    -0.268 N 
ATOM     19  H   UNL     1       0.194  -0.236  -2.791  0.00  0.00    +0.157 HD
ATOM     20  H   UNL     1      -1.095  -1.260  -4.451  0.00  0.00    +0.156 HD
BRANCH  18  21
ATOM     21  C   UNL     1      -2.556  -2.684  -4.140  0.00  0.00    +0.053 A 
ATOM     22  C   UNL     1      -3.554  -3.006  -3.231  0.00  0.00    +0.026 A 
ATOM     23  C   UNL     1      -4.562  -3.878  -3.593  0.00  0.00    +0.022 A 
ATOM     24  C   UNL     1      -4.579  -4.431  -4.862  0.00  0.00    +0.042 A 
ATOM     25  C   UNL     1      -3.585  -4.112  -5.771  0.00  0.00    +0.041 A 
ATOM     26  C   UNL     1      -2.577  -3.236  -5.415  0.00  0.00    +0.064 A 
ATOM     27 CL   UNL     1      -1.335  -2.831  -6.558  0.00  0.00    -0.082 Cl
ATOM     28 CL   UNL     1      -5.847  -5.527  -5.313  0.00  0.00    -0.083 Cl
ENDBRANCH  18  21
ENDBRANCH   3  15
TORSDOF 3
