REMARK  Name = ZINC13135683
REMARK  6 active torsions:
REMARK  status: ('A' for Active; 'I' for Inactive)
REMARK    1  A    between atoms: C_1  and  C_2
REMARK    2  A    between atoms: C_7  and  N_8
REMARK    3  A    between atoms: C_9  and  C_11
REMARK    4  A    between atoms: C_11  and  N_12
REMARK    5  A    between atoms: C_27  and  C_30
REMARK    6  A    between atoms: C_27  and  C_31
REMARK                            x       y       z     vdW  Elec       q    Type
REMARK                         _______ _______ _______ _____ _____    ______ ____
ROOT
ATOM      1  N   UNL     1      -0.241  -0.905   5.988  0.00  0.00    -0.287 N 
ATOM      2  C   UNL     1      -1.448  -1.365   6.402  0.00  0.00    +0.203 A 
ATOM      3  N   UNL     1      -1.560  -2.218   7.381  0.00  0.00    -0.233 NA
ATOM      4  C   UNL     1      -0.477  -2.680   8.026  0.00  0.00    +0.125 A 
ATOM      5  C   UNL     1      -0.265  -3.620   9.136  0.00  0.00    +0.066 A 
ATOM      6  C   UNL     1      -1.103  -4.386   9.942  0.00  0.00    +0.023 A 
ATOM      7  C   UNL     1      -0.527  -5.184  10.918  0.00  0.00    +0.000 A 
ATOM      8  C   UNL     1       0.848  -5.197  11.061  0.00  0.00    +0.053 A 
ATOM      9  N   UNL     1       1.618  -4.454  10.284  0.00  0.00    -0.217 NA
ATOM     10  C   UNL     1       1.125  -3.673   9.335  0.00  0.00    +0.230 A 
ATOM     11  O   UNL     1       1.708  -2.847   8.441  0.00  0.00    -0.430 OA
ATOM     12  C   UNL     1       0.792  -2.248   7.653  0.00  0.00    +0.220 A 
ATOM     13  C   UNL     1       0.894  -1.328   6.585  0.00  0.00    +0.298 A 
ATOM     14  O   UNL     1       1.982  -0.921   6.215  0.00  0.00    -0.264 OA
ATOM     15  C   UNL     1       1.511  -6.065  12.104  0.00  0.00    +0.090 C 
ATOM     16  C   UNL     1       0.481  -6.497  13.148  0.00  0.00    +0.070 C 
ATOM     17  O   UNL     1      -0.666  -7.019  12.469  0.00  0.00    -0.369 OA
ATOM     18  C   UNL     1      -1.425  -6.012  11.798  0.00  0.00    +0.197 C 
ATOM     19  C   UNL     1       1.083  -7.580  14.045  0.00  0.00    +0.041 C 
ATOM     20  C   UNL     1       0.072  -5.291  13.996  0.00  0.00    +0.041 C 
ENDROOT
BRANCH   1  21
ATOM     21  C   UNL     1      -0.168   0.052   4.882  0.00  0.00    +0.222 C 
BRANCH  21  23
ATOM     22  N   UNL     1       0.025  -0.015   2.417  0.00  0.00    -0.284 N 
ATOM     23  C   UNL     1      -0.056  -0.694   3.578  0.00  0.00    +0.237 C 
ATOM     24  O   UNL     1      -0.040  -1.907   3.573  0.00  0.00    -0.274 OA
ATOM     25  H   UNL     1       0.078   0.954   2.425  0.00  0.00    +0.155 HD
BRANCH  22  32
ATOM     26  C   UNL     1      -1.264   1.184   0.181  0.00  0.00    +0.045 C 
ATOM     27  C   UNL     1      -0.584  -0.158   0.084  0.00  0.00    -0.029 A 
ATOM     28  C   UNL     1      -0.568  -0.840  -1.117  0.00  0.00    +0.005 A 
ATOM     29  C   UNL     1       0.055  -2.071  -1.206  0.00  0.00    +0.000 A 
ATOM     30  C   UNL     1       0.666  -2.622  -0.095  0.00  0.00    +0.002 A 
ATOM     31  C   UNL     1       0.655  -1.945   1.108  0.00  0.00    +0.023 A 
ATOM     32  C   UNL     1       0.034  -0.706   1.201  0.00  0.00    +0.036 A 
ENDBRANCH  22  32
ENDBRANCH  21  23
ENDBRANCH   1  21
TORSDOF 3
