REMARK  Name = ZINC09271819
REMARK  8 active torsions:
REMARK  status: ('A' for Active; 'I' for Inactive)
REMARK    1  A    between atoms: C_1  and  C_2
REMARK    2  A    between atoms: C_2  and  N_3
REMARK    3  A    between atoms: N_3  and  C_4
REMARK    4  A    between atoms: N_3  and  C_6
REMARK    5  A    between atoms: C_4  and  C_5
REMARK    6  A    between atoms: C_9  and  C_12
REMARK    7  A    between atoms: C_17  and  C_35
REMARK    8  A    between atoms: C_29  and  C_31
REMARK                            x       y       z     vdW  Elec       q    Type
REMARK                         _______ _______ _______ _____ _____    ______ ____
ROOT
ATOM      1  C   UNL     1      -2.240   6.221   0.253  0.00  0.00    +0.127 C 
ATOM      2  C   UNL     1      -0.882   5.854  -0.245  0.00  0.00    +0.125 C 
ATOM      3  C   UNL     1       0.086   5.692   0.681  0.00  0.00    +0.145 C 
ATOM      4  C   UNL     1       1.495   5.318   0.329  0.00  0.00    +0.086 C 
ATOM      5  C   UNL     1       1.485   4.513  -0.975  0.00  0.00    +0.068 C 
ATOM      6  C   UNL     1       0.808   5.361  -2.051  0.00  0.00    +0.063 C 
ATOM      7  C   UNL     1      -0.617   5.684  -1.621  0.00  0.00    +0.033 C 
ATOM      8  N   UNL     1      -1.468   5.773  -2.579  0.00  0.00    -0.254 NA
ATOM      9  C   UNL     1      -2.675   6.320  -2.757  0.00  0.00    +0.085 A 
ATOM     10  C   UNL     1      -2.986   6.964  -3.962  0.00  0.00    +0.029 A 
ATOM     11  C   UNL     1      -4.235   7.504  -4.168  0.00  0.00    +0.002 A 
ATOM     12  C   UNL     1      -5.210   7.420  -3.188  0.00  0.00    +0.002 A 
ATOM     13  C   UNL     1      -4.925   6.801  -1.984  0.00  0.00    +0.026 A 
ATOM     14  C   UNL     1      -3.674   6.267  -1.756  0.00  0.00    +0.063 A 
ATOM     15  N   UNL     1      -3.322   5.698  -0.543  0.00  0.00    -0.254 N 
ATOM     16  C   UNL     1      -4.009   4.629  -0.096  0.00  0.00    +0.325 C 
ATOM     17  O   UNL     1      -4.958   4.211  -0.726  0.00  0.00    -0.265 OA
ATOM     18  O   UNL     1      -0.228   5.874   1.982  0.00  0.00    -0.297 OA
ENDROOT
BRANCH   1  22
ATOM     19  C   UNL     1      -2.551  10.483   0.340  0.00  0.00    +0.030 A 
ATOM     20  C   UNL     1      -2.834   9.741   1.480  0.00  0.00    +0.023 A 
ATOM     21  C   UNL     1      -2.733   8.364   1.448  0.00  0.00    +0.007 A 
ATOM     22  C   UNL     1      -2.350   7.724   0.284  0.00  0.00    -0.026 A 
ATOM     23  C   UNL     1      -2.061   8.460  -0.851  0.00  0.00    +0.007 A 
ATOM     24  C   UNL     1      -2.166   9.836  -0.828  0.00  0.00    +0.023 A 
BRANCH  19  25
ATOM     25  N   UNL     1      -2.653  11.875   0.368  0.00  0.00    -0.330 N 
BRANCH  25  27
ATOM     26  C   UNL     1      -3.631  12.835  -1.657  0.00  0.00    +0.024 C 
ATOM     27  C   UNL     1      -2.354  12.656  -0.835  0.00  0.00    +0.102 C 
ENDBRANCH  25  27
BRANCH  25  28
ATOM     28  C   UNL     1      -3.059  12.555   1.601  0.00  0.00    +0.102 C 
ATOM     29  C   UNL     1      -1.819  12.885   2.434  0.00  0.00    +0.024 C 
ENDBRANCH  25  28
ENDBRANCH  19  25
ENDBRANCH   1  22
BRANCH   5  30
ATOM     30  C   UNL     1       0.714   3.233  -0.776  0.00  0.00    +0.109 A 
ATOM     31  C   UNL     1       1.203   1.989  -0.927  0.00  0.00    +0.045 A 
ATOM     32  C   UNL     1       0.145   1.096  -0.644  0.00  0.00    +0.041 A 
ATOM     33  C   UNL     1      -0.929   1.847  -0.341  0.00  0.00    +0.195 A 
ATOM     34  O   UNL     1      -0.577   3.141  -0.418  0.00  0.00    -0.468 OA
ENDBRANCH   5  30
BRANCH  16  35
ATOM     35  C   UNL     1      -3.599   3.952   1.186  0.00  0.00    +0.470 C 
ATOM     36  F   UNL     1      -4.334   2.772   1.347  0.00  0.00    -0.162 F 
ATOM     37  F   UNL     1      -2.234   3.648   1.137  0.00  0.00    -0.162 F 
ATOM     38  F   UNL     1      -3.848   4.807   2.265  0.00  0.00    -0.162 F 
ENDBRANCH  16  35
TORSDOF 6
