REMARK  Name = ZINC29026030
REMARK  3 active torsions:
REMARK  status: ('A' for Active; 'I' for Inactive)
REMARK    1  A    between atoms: N_6  and  C_7
REMARK    2  A    between atoms: C_14  and  C_16
REMARK    3  A    between atoms: C_16  and  N_17
REMARK                            x       y       z     vdW  Elec       q    Type
REMARK                         _______ _______ _______ _____ _____    ______ ____
ROOT
ATOM      1  C   UNL     1       0.596   1.291   0.651  0.00  0.00    +0.005 A 
ATOM      2  C   UNL     1       1.958   1.591   0.843  0.00  0.00    +0.018 A 
ATOM      3  C   UNL     1       2.896   0.634   0.700  0.00  0.00    +0.096 A 
ATOM      4  N   UNL     1       2.543  -0.647   0.365  0.00  0.00    -0.272 N 
ATOM      5  C   UNL     1       1.214  -0.972   0.170  0.00  0.00    +0.114 A 
ATOM      6  N   UNL     1       0.873  -2.199  -0.151  0.00  0.00    -0.368 N 
ATOM      7  C   UNL     1       0.223   0.029   0.319  0.00  0.00    +0.044 A 
ATOM      8  C   UNL     1       3.494  -1.592   0.226  0.00  0.00    +0.251 C 
ATOM      9  O   UNL     1       3.177  -2.753   0.079  0.00  0.00    -0.271 OA
ATOM     10  H   UNL     1       0.192  -2.663   0.361  0.00  0.00    +0.161 HD
ENDROOT
BRANCH   6  11
ATOM     11  C   UNL     1       1.520  -2.867  -1.282  0.00  0.00    +0.081 C 
ATOM     12  C   UNL     1       0.641  -2.731  -2.527  0.00  0.00    +0.024 C 
ATOM     13  C   UNL     1       1.317  -3.428  -3.708  0.00  0.00    +0.002 C 
ATOM     14  C   UNL     1       1.512  -4.910  -3.382  0.00  0.00    +0.000 C 
ATOM     15  C   UNL     1       2.392  -5.047  -2.137  0.00  0.00    +0.002 C 
ATOM     16  C   UNL     1       1.715  -4.349  -0.956  0.00  0.00    +0.024 C 
ENDBRANCH   6  11
BRANCH   8  17
ATOM     17  C   UNL     1       4.950  -1.205   0.252  0.00  0.00    +0.217 C 
BRANCH  17  18
ATOM     18  N   UNL     1       5.776  -2.403   0.081  0.00  0.00    -0.215 N 
ATOM     19  C   UNL     1       6.219  -3.171   1.100  0.00  0.00    +0.247 C 
ATOM     20  O   UNL     1       6.018  -3.010   2.284  0.00  0.00    -0.273 OA
ATOM     21  C   UNL     1       7.016  -4.272   0.450  0.00  0.00    +0.113 C 
ATOM     22  C   UNL     1       8.472  -4.259   0.935  0.00  0.00    +0.035 C 
ATOM     23  C   UNL     1       8.512  -5.356   2.030  0.00  0.00    +0.003 C 
ATOM     24  C   UNL     1       7.570  -6.446   1.461  0.00  0.00    +0.003 C 
ATOM     25  C   UNL     1       6.435  -5.649   0.780  0.00  0.00    +0.035 C 
ATOM     26  N   UNL     1       6.934  -3.988  -0.984  0.00  0.00    -0.285 N 
ATOM     27  C   UNL     1       6.182  -2.875  -1.105  0.00  0.00    +0.310 C 
ATOM     28  O   UNL     1       5.906  -2.357  -2.169  0.00  0.00    -0.252 OA
ATOM     29  H   UNL     1       7.336  -4.499  -1.704  0.00  0.00    +0.151 HD
ENDBRANCH  17  18
ENDBRANCH   8  17
TORSDOF 3
