REMARK  Name = ZINC17029268
REMARK  4 active torsions:
REMARK  status: ('A' for Active; 'I' for Inactive)
REMARK    1  A    between atoms: C_4  and  C_7
REMARK    2  A    between atoms: C_7  and  C_9
REMARK    3  A    between atoms: C_14  and  N_15
REMARK    4  A    between atoms: N_15  and  C_16
REMARK                            x       y       z     vdW  Elec       q    Type
REMARK                         _______ _______ _______ _____ _____    ______ ____
ROOT
ATOM      1  C   UNL     1       3.826  -2.155  -0.139  0.00  0.00    +0.045 A 
ATOM      2  C   UNL     1       2.688  -2.962  -0.207  0.00  0.00    +0.033 A 
ATOM      3  C   UNL     1       2.818  -4.335  -0.211  0.00  0.00    +0.042 A 
ATOM      4  C   UNL     1       4.074  -4.919  -0.148  0.00  0.00    +0.022 A 
ATOM      5  C   UNL     1       5.208  -4.135  -0.081  0.00  0.00    +0.025 A 
ATOM      6  C   UNL     1       5.097  -2.750  -0.081  0.00  0.00    +0.042 A 
ATOM      7 CL   UNL     1       1.403  -5.337  -0.294  0.00  0.00    -0.084 Cl
ENDROOT
BRANCH   1   8
ATOM      8  C   UNL     1       3.695  -0.686  -0.134  0.00  0.00    +0.195 C 
ATOM      9  O   UNL     1       3.437  -0.096  -1.165  0.00  0.00    -0.287 OA
BRANCH   8  13
ATOM     10  C   UNL     1       4.215   1.480   3.482  0.00  0.00    +0.000 A 
ATOM     11  C   UNL     1       4.036   2.162   2.290  0.00  0.00    +0.001 A 
ATOM     12  C   UNL     1       3.866   1.464   1.112  0.00  0.00    +0.012 A 
ATOM     13  C   UNL     1       3.876   0.068   1.124  0.00  0.00    +0.022 A 
ATOM     14  C   UNL     1       4.058  -0.613   2.330  0.00  0.00    +0.012 A 
ATOM     15  C   UNL     1       4.226   0.097   3.500  0.00  0.00    +0.001 A 
ENDBRANCH   8  13
ENDBRANCH   1   8
BRANCH   6  16
ATOM     16  N   UNL     1       6.239  -1.958  -0.019  0.00  0.00    -0.319 N 
ATOM     17  H   UNL     1       6.156  -0.994   0.062  0.00  0.00    +0.152 HD
BRANCH  16  18
ATOM     18  C   UNL     1       7.461  -2.529  -0.072  0.00  0.00    +0.090 C 
ATOM     19  C   UNL     1       8.593  -1.737  -0.116  0.00  0.00    +0.113 C 
ATOM     20  C   UNL     1       8.514  -0.273   0.037  0.00  0.00    +0.258 C 
ATOM     21  O   UNL     1       7.444   0.281   0.208  0.00  0.00    -0.270 OA
ATOM     22  N   UNL     1       9.660   0.437  -0.016  0.00  0.00    -0.236 N 
ATOM     23  C   UNL     1      10.845  -0.160  -0.204  0.00  0.00    +0.313 C 
ATOM     24  O   UNL     1      11.840   0.536  -0.243  0.00  0.00    -0.252 OA
ATOM     25  N   UNL     1      10.991  -1.484  -0.350  0.00  0.00    -0.236 N 
ATOM     26  C   UNL     1       9.932  -2.319  -0.312  0.00  0.00    +0.258 C 
ATOM     27  O   UNL     1      10.079  -3.520  -0.441  0.00  0.00    -0.270 OA
ATOM     28  H   UNL     1       9.625   1.401   0.083  0.00  0.00    +0.159 HD
ATOM     29  H   UNL     1      11.880  -1.851  -0.482  0.00  0.00    +0.159 HD
ENDBRANCH  16  18
ENDBRANCH   6  16
TORSDOF 4
