REMARK  Name = ZINC36644421
REMARK  3 active torsions:
REMARK  status: ('A' for Active; 'I' for Inactive)
REMARK    1  A    between atoms: C_1  and  C_2
REMARK    2  A    between atoms: C_3  and  C_12
REMARK    3  A    between atoms: C_7  and  C_8
REMARK                            x       y       z     vdW  Elec       q    Type
REMARK                         _______ _______ _______ _____ _____    ______ ____
ROOT
ATOM      1  C   UNL     1      -0.018   1.503   0.010  0.00  0.00    +0.048 C 
ATOM      2  C   UNL     1       0.002  -0.004   0.002  0.00  0.00    +0.009 A 
ATOM      3  C   UNL     1       0.009  -0.840  -1.107  0.00  0.00    +0.101 A 
ATOM      4  N   UNL     1       0.029  -2.118  -0.619  0.00  0.00    -0.274 N 
ATOM      5  H   UNL     1       0.038  -2.923  -1.160  0.00  0.00    +0.189 HD
ATOM      6  N   UNL     1       0.034  -2.089   0.665  0.00  0.00    -0.169 NA
ATOM      7  C   UNL     1       0.024  -0.856   1.107  0.00  0.00    +0.169 A 
ENDROOT
BRANCH   7   8
ATOM      8  C   UNL     1       0.032  -0.432   2.553  0.00  0.00    +0.436 C 
ATOM      9  F   UNL     1      -1.284  -0.319   3.013  0.00  0.00    -0.164 F 
ATOM     10  F   UNL     1       0.712  -1.388   3.315  0.00  0.00    -0.164 F 
ATOM     11  F   UNL     1       0.676   0.804   2.673  0.00  0.00    -0.164 F 
ENDBRANCH   7   8
BRANCH   3  12
ATOM     12  C   UNL     1      -0.003  -0.436  -2.512  0.00  0.00    +0.278 C 
ATOM     13  O   UNL     1       0.005  -1.278  -3.386  0.00  0.00    -0.294 OA
ENDBRANCH   3  12
TORSDOF 2
