REMARK  Name = ZINC09535000
REMARK  5 active torsions:
REMARK  status: ('A' for Active; 'I' for Inactive)
REMARK    1  A    between atoms: C_4  and  C_7
REMARK    2  A    between atoms: N_14  and  C_17
REMARK    3  A    between atoms: C_17  and  C_18
REMARK    4  A    between atoms: N_23  and  C_26
REMARK    5  A    between atoms: C_29  and  C_31
REMARK                            x       y       z     vdW  Elec       q    Type
REMARK                         _______ _______ _______ _____ _____    ______ ____
ROOT
ATOM      1  C   UNL     1      -5.579   2.817   7.486  0.00  0.00    +0.236 C 
ATOM      2  O   UNL     1      -6.737   3.071   7.227  0.00  0.00    -0.274 OA
ATOM      3  N   UNL     1      -4.597   3.238   6.665  0.00  0.00    -0.297 N 
ATOM      4  C   UNL     1      -4.906   4.006   5.449  0.00  0.00    +0.127 C 
ATOM      5  C   UNL     1      -4.200   3.343   4.261  0.00  0.00    +0.125 C 
ATOM      6  N   UNL     1      -2.769   3.205   4.561  0.00  0.00    -0.314 N 
ATOM      7  C   UNL     1      -2.549   2.320   5.713  0.00  0.00    +0.125 C 
ATOM      8  C   UNL     1      -3.187   2.941   6.960  0.00  0.00    +0.127 C 
ENDROOT
BRANCH   6   9
ATOM      9  C   UNL     1      -2.068   2.757   3.448  0.00  0.00    +0.099 A 
ATOM     10  C   UNL     1      -0.692   2.563   3.532  0.00  0.00    +0.042 A 
ATOM     11  C   UNL     1      -0.007   2.118   2.416  0.00  0.00    +0.017 A 
ATOM     12  C   UNL     1      -0.722   1.881   1.250  0.00  0.00    +0.071 A 
ATOM     13  C   UNL     1      -2.085   2.100   1.236  0.00  0.00    +0.096 A 
ATOM     14  N   UNL     1      -2.792   2.532   2.314  0.00  0.00    -0.349 N 
ATOM     15  H   UNL     1      -3.808   2.679   2.277  0.00  0.00    +0.167 HD
BRANCH  12  16
ATOM     16  C   UNL     1      -0.017   1.395   0.010  0.00  0.00    +0.419 C 
ATOM     17  F   UNL     1       0.002  -0.004   0.002  0.00  0.00    -0.166 F 
ATOM     18  F   UNL     1       1.296   1.879  -0.000  0.00  0.00    -0.166 F 
ATOM     19  F   UNL     1      -0.694   1.858  -1.124  0.00  0.00    -0.166 F 
ENDBRANCH  12  16
ENDBRANCH   6   9
BRANCH   1  20
ATOM     20  C   UNL     1      -5.240   2.032   8.726  0.00  0.00    +0.222 C 
BRANCH  20  28
ATOM     21  C   UNL     1      -9.963   2.433  12.618  0.00  0.00    +0.022 A 
ATOM     22  C   UNL     1      -8.821   2.928  12.076  0.00  0.00    +0.031 A 
ATOM     23  C   UNL     1      -8.151   2.206  11.075  0.00  0.00    +0.073 A 
ATOM     24  C   UNL     1      -8.743   0.982  10.704  0.00  0.00    +0.116 A 
ATOM     25  S   UNL     1     -10.179   0.891  11.745  0.00  0.00    -0.068 S 
ATOM     26  N   UNL     1      -8.215   0.198   9.771  0.00  0.00    -0.230 NA
ATOM     27  C   UNL     1      -7.114   0.534   9.153  0.00  0.00    +0.203 A 
ATOM     28  N   UNL     1      -6.472   1.695   9.444  0.00  0.00    -0.290 N 
ATOM     29  C   UNL     1      -6.941   2.540  10.380  0.00  0.00    +0.263 A 
ATOM     30  O   UNL     1      -6.348   3.575  10.631  0.00  0.00    -0.267 OA
BRANCH  21  34
ATOM     31  C   UNL     1     -12.413   4.129  15.644  0.00  0.00    +0.000 A 
ATOM     32  C   UNL     1     -12.755   2.911  15.084  0.00  0.00    +0.001 A 
ATOM     33  C   UNL     1     -11.963   2.354  14.100  0.00  0.00    +0.009 A 
ATOM     34  C   UNL     1     -10.816   3.023  13.671  0.00  0.00    -0.011 A 
ATOM     35  C   UNL     1     -10.474   4.249  14.244  0.00  0.00    +0.009 A 
ATOM     36  C   UNL     1     -11.277   4.797  15.223  0.00  0.00    +0.001 A 
ENDBRANCH  21  34
ENDBRANCH  20  28
ENDBRANCH   1  20
TORSDOF 5
