REMARK  Name = ZINC53736290
REMARK  5 active torsions:
REMARK  status: ('A' for Active; 'I' for Inactive)
REMARK    1  A    between atoms: C_1  and  C_2
REMARK    2  A    between atoms: C_7  and  N_10
REMARK    3  A    between atoms: C_14  and  N_21
REMARK    4  A    between atoms: C_18  and  C_19
REMARK    5  A    between atoms: C_19  and  O_20
REMARK                            x       y       z     vdW  Elec       q    Type
REMARK                         _______ _______ _______ _____ _____    ______ ____
ROOT
ATOM      1  N   UNL     1      -0.594  -2.604   1.201  0.00  0.00    -0.323 N 
ATOM      2  C   UNL     1      -1.141  -3.466   2.133  0.00  0.00    +0.069 A 
ATOM      3  C   UNL     1      -0.630  -4.156   3.224  0.00  0.00    +0.030 A 
ATOM      4  C   UNL     1      -1.457  -4.961   3.977  0.00  0.00    +0.025 A 
ATOM      5  C   UNL     1      -2.806  -5.087   3.650  0.00  0.00    +0.027 A 
ATOM      6  C   UNL     1      -3.329  -4.407   2.567  0.00  0.00    +0.052 A 
ATOM      7  C   UNL     1      -2.499  -3.588   1.797  0.00  0.00    +0.091 A 
ATOM      8  N   UNL     1      -2.707  -2.811   0.702  0.00  0.00    -0.230 NA
ATOM      9  C   UNL     1      -1.594  -2.232   0.358  0.00  0.00    +0.137 A 
ENDROOT
BRANCH   1  15
ATOM     10  C   UNL     1       1.727  -3.892  -2.179  0.00  0.00    +0.007 C 
ATOM     11  C   UNL     1       1.216  -3.760  -0.742  0.00  0.00    -0.012 C 
ATOM     12  C   UNL     1       2.067  -4.632   0.184  0.00  0.00    +0.003 C 
ATOM     13  C   UNL     1       1.556  -4.499   1.620  0.00  0.00    +0.002 C 
ATOM     14  C   UNL     1       1.653  -3.038   2.063  0.00  0.00    +0.025 C 
ATOM     15  C   UNL     1       0.803  -2.166   1.137  0.00  0.00    +0.089 C 
ATOM     16  C   UNL     1       1.314  -2.299  -0.299  0.00  0.00    +0.028 C 
ENDBRANCH   1  15
BRANCH   5  17
ATOM     17  N   UNL     1      -3.636  -5.908   4.423  0.00  0.00    -0.358 N 
ATOM     18  H   UNL     1      -3.271  -6.386   5.183  0.00  0.00    +0.142 HD
ATOM     19  H   UNL     1      -4.575  -5.998   4.197  0.00  0.00    +0.142 HD
ENDBRANCH   5  17
BRANCH   9  20
ATOM     20  C   UNL     1      -1.435  -1.291  -0.808  0.00  0.00    +0.230 C 
BRANCH  20  21
ATOM     21  O   UNL     1      -1.125  -2.038  -1.986  0.00  0.00    -0.387 OA
ATOM     22  H   UNL     1      -1.008  -1.495  -2.777  0.00  0.00    +0.210 HD
ENDBRANCH  20  21
ENDBRANCH   9  20
TORSDOF 4
