REMARK  Name = ZINC66625540
REMARK  8 active torsions:
REMARK  status: ('A' for Active; 'I' for Inactive)
REMARK    1  A    between atoms: C_1  and  C_2
REMARK    2  A    between atoms: C_2  and  N_3
REMARK    3  A    between atoms: N_3  and  C_4
REMARK    4  A    between atoms: C_4  and  C_5
REMARK    5  A    between atoms: C_10  and  C_12
REMARK    6  A    between atoms: N_14  and  C_15
REMARK    7  A    between atoms: C_15  and  C_16
REMARK    8  A    between atoms: N_20  and  C_21
REMARK                            x       y       z     vdW  Elec       q    Type
REMARK                         _______ _______ _______ _____ _____    ______ ____
ROOT
ATOM      1  C   UNL     1      -5.282  -1.986   2.328  0.00  0.00    +0.264 C 
ATOM      2  O   UNL     1      -5.860  -2.208   3.374  0.00  0.00    -0.268 OA
ATOM      3  N   UNL     1      -5.904  -2.210   1.154  0.00  0.00    -0.303 N 
ATOM      4  H   UNL     1      -5.442  -2.033   0.319  0.00  0.00    +0.150 HD
ENDROOT
BRANCH   1  10
ATOM      5  N   UNL     1      -1.372  -0.511   0.012  0.00  0.00    -0.300 N 
ATOM      6  C   UNL     1      -2.010  -0.757   1.217  0.00  0.00    +0.219 A 
ATOM      7  N   UNL     1      -1.363  -0.523   2.350  0.00  0.00    -0.221 NA
ATOM      8  C   UNL     1      -1.937  -0.744   3.519  0.00  0.00    +0.136 A 
ATOM      9  C   UNL     1      -3.238  -1.230   3.555  0.00  0.00    +0.090 A 
ATOM     10  C   UNL     1      -3.892  -1.466   2.345  0.00  0.00    +0.149 A 
ATOM     11  N   UNL     1      -3.251  -1.215   1.206  0.00  0.00    -0.208 NA
ATOM     12 CL   UNL     1      -4.031  -1.536   5.069  0.00  0.00    -0.080 Cl
BRANCH   5  14
ATOM     13  C   UNL     1      -0.019   1.526   0.010  0.00  0.00    +0.024 C 
ATOM     14  C   UNL     1       0.002  -0.004   0.002  0.00  0.00    +0.104 C 
ENDBRANCH   5  14
BRANCH   5  15
ATOM     15  C   UNL     1      -2.072  -0.758  -1.251  0.00  0.00    +0.104 C 
ATOM     16  C   UNL     1      -1.816  -2.197  -1.703  0.00  0.00    +0.024 C 
ENDBRANCH   5  15
ENDBRANCH   1  10
BRANCH   3  17
ATOM     17  C   UNL     1      -7.276  -2.723   1.138  0.00  0.00    +0.181 C 
BRANCH  17  18
ATOM     18  C   UNL     1      -7.735  -2.885  -0.289  0.00  0.00    +0.149 A 
ATOM     19  N   UNL     1      -7.029  -2.621  -1.341  0.00  0.00    -0.157 NA
ATOM     20  N   UNL     1      -7.810  -2.903  -2.471  0.00  0.00    -0.254 N 
ATOM     21  C   UNL     1      -9.007  -3.345  -2.032  0.00  0.00    +0.175 A 
ATOM     22  N   UNL     1      -8.967  -3.343  -0.684  0.00  0.00    -0.309 N 
ATOM     23  C   UNL     1     -10.055  -3.756   0.206  0.00  0.00    +0.152 C 
ATOM     24  S   UNL     1     -10.329  -3.827  -3.007  0.00  0.00    -0.011 S 
ATOM     25  H   UNL     1      -7.540  -2.799  -3.397  0.00  0.00    +0.191 HD
ENDBRANCH  17  18
ENDBRANCH   3  17
TORSDOF 5
