REMARK  Name = ZINC67206402
REMARK  6 active torsions:
REMARK  status: ('A' for Active; 'I' for Inactive)
REMARK    1  A    between atoms: C_1  and  C_2
REMARK    2  A    between atoms: C_2  and  N_3
REMARK    3  A    between atoms: C_9  and  C_16
REMARK    4  A    between atoms: C_20  and  N_29
REMARK    5  A    between atoms: N_29  and  C_30
REMARK    6  A    between atoms: N_29  and  C_31
REMARK                            x       y       z     vdW  Elec       q    Type
REMARK                         _______ _______ _______ _____ _____    ______ ____
ROOT
ATOM      1  C   UNL     1      -7.353  -2.719   1.015  0.00  0.00    +0.251 C 
ATOM      2  O   UNL     1      -6.175  -2.422   1.057  0.00  0.00    -0.270 OA
ATOM      3  N   UNL     1      -8.051  -2.872   2.158  0.00  0.00    -0.269 N 
ATOM      4  C   UNL     1      -9.427  -3.384   2.130  0.00  0.00    +0.099 C 
ATOM      5  C   UNL     1      -9.561  -4.430   3.245  0.00  0.00    -0.047 C 
ATOM      6  C   UNL     1      -9.343  -3.745   4.594  0.00  0.00    +0.023 C 
ATOM      7  C   UNL     1      -8.065  -2.950   4.581  0.00  0.00    -0.027 A 
ATOM      8  C   UNL     1      -7.473  -2.551   3.393  0.00  0.00    +0.040 A 
ATOM      9  C   UNL     1      -6.292  -1.818   3.418  0.00  0.00    +0.024 A 
ATOM     10  C   UNL     1      -5.705  -1.494   4.625  0.00  0.00    +0.002 A 
ATOM     11  C   UNL     1      -6.293  -1.900   5.809  0.00  0.00    +0.000 A 
ATOM     12  C   UNL     1      -7.471  -2.617   5.786  0.00  0.00    +0.005 A 
ENDROOT
BRANCH   1  19
ATOM     13  N   UNL     1      -9.157  -3.836  -5.080  0.00  0.00    -0.261 N 
ATOM     14  C   UNL     1      -9.934  -3.464  -4.040  0.00  0.00    +0.264 A 
ATOM     15  O   UNL     1     -11.130  -3.299  -4.183  0.00  0.00    -0.267 OA
ATOM     16  C   UNL     1      -9.294  -3.265  -2.724  0.00  0.00    +0.063 A 
ATOM     17  C   UNL     1     -10.030  -2.882  -1.605  0.00  0.00    +0.016 A 
ATOM     18  C   UNL     1      -9.400  -2.708  -0.404  0.00  0.00    +0.014 A 
ATOM     19  C   UNL     1      -8.022  -2.911  -0.291  0.00  0.00    +0.039 A 
ATOM     20  C   UNL     1      -7.274  -3.294  -1.403  0.00  0.00    +0.039 A 
ATOM     21  C   UNL     1      -7.908  -3.472  -2.623  0.00  0.00    +0.056 A 
ATOM     22  N   UNL     1      -7.204  -3.853  -3.757  0.00  0.00    -0.307 N 
ATOM     23  H   UNL     1      -6.247  -4.000  -3.702  0.00  0.00    +0.170 HD
ATOM     24  C   UNL     1      -7.837  -4.026  -4.930  0.00  0.00    +0.330 A 
ATOM     25  O   UNL     1      -7.185  -4.366  -5.899  0.00  0.00    -0.246 OA
BRANCH  13  27
ATOM     26  C   UNL     1     -10.217  -5.497  -6.528  0.00  0.00    +0.027 C 
ATOM     27  C   UNL     1      -9.768  -4.041  -6.396  0.00  0.00    +0.126 C 
ENDBRANCH  13  27
ENDBRANCH   1  19
BRANCH   5  28
ATOM     28  N   UNL     1     -10.903  -5.025   3.203  0.00  0.00    +0.379 N 
ATOM     29  C   UNL     1     -11.113  -5.670   1.900  0.00  0.00    -0.096 C 
ATOM     30  C   UNL     1     -11.029  -6.026   4.271  0.00  0.00    -0.096 C 
ATOM     31  H   UNL     1     -11.595  -4.303   3.336  0.00  0.00    -0.082 HD
ENDBRANCH   5  28
TORSDOF 3
