REMARK  Name = ZINC21775022
REMARK  9 active torsions:
REMARK  status: ('A' for Active; 'I' for Inactive)
REMARK    1  A    between atoms: C_1  and  C_2
REMARK    2  A    between atoms: C_2  and  O_3
REMARK    3  A    between atoms: O_3  and  C_4
REMARK    4  A    between atoms: C_4  and  C_6
REMARK    5  A    between atoms: C_10  and  N_11
REMARK    6  A    between atoms: C_15  and  C_18
REMARK    7  A    between atoms: N_20  and  C_21
REMARK    8  A    between atoms: C_25  and  C_28
REMARK    9  A    between atoms: C_26  and  C_27
REMARK                            x       y       z     vdW  Elec       q    Type
REMARK                         _______ _______ _______ _____ _____    ______ ____
ROOT
ATOM      1  C   UNL     1      -1.271   2.075  -0.040  0.00  0.00    +0.118 A 
ATOM      2  C   UNL     1      -2.559   1.488  -0.041  0.00  0.00    +0.151 A 
ATOM      3  N   UNL     1      -3.445   2.443  -0.017  0.00  0.00    -0.171 NA
ATOM      4  N   UNL     1      -2.792   3.680  -0.008  0.00  0.00    -0.200 N 
ATOM      5  C   UNL     1      -1.452   3.457  -0.023  0.00  0.00    +0.136 A 
ATOM      6  C   UNL     1      -3.411   4.929   0.011  0.00  0.00    +0.156 A 
ATOM      7  C   UNL     1      -4.704   5.062  -0.488  0.00  0.00    +0.049 A 
ATOM      8  C   UNL     1      -5.311   6.301  -0.466  0.00  0.00    +0.018 A 
ATOM      9  C   UNL     1      -4.595   7.385   0.063  0.00  0.00    +0.055 A 
ATOM     10  C   UNL     1      -3.302   7.171   0.544  0.00  0.00    +0.126 A 
ATOM     11  N   UNL     1      -2.762   5.971   0.508  0.00  0.00    -0.235 NA
ENDROOT
BRANCH   9  12
ATOM     12  C   UNL     1      -5.199   8.731   0.109  0.00  0.00    +0.250 C 
ATOM     13  O   UNL     1      -6.325   8.906  -0.313  0.00  0.00    -0.270 OA
ATOM     14  N   UNL     1      -4.501   9.765   0.619  0.00  0.00    -0.281 N 
ATOM     15  H   UNL     1      -3.519   9.591   1.084  0.00  0.00    +0.155 HD
BRANCH  14  16
ATOM     16  C   UNL     1      -5.026  11.060   0.558  0.00  0.00    +0.037 A 
ATOM     17  C   UNL     1      -5.951  11.391  -0.424  0.00  0.00    +0.023 A 
ATOM     18  C   UNL     1      -6.467  12.670  -0.481  0.00  0.00    +0.002 A 
ATOM     19  C   UNL     1      -6.064  13.622   0.437  0.00  0.00    +0.004 A 
ATOM     20  C   UNL     1      -5.144  13.296   1.417  0.00  0.00    -0.046 A 
ATOM     21  C   UNL     1      -4.628  12.016   1.483  0.00  0.00    -0.026 A 
ATOM     22  C   UNL     1      -3.629  11.660   2.554  0.00  0.00    +0.046 C 
ATOM     23  C   UNL     1      -4.708  14.336   2.416  0.00  0.00    +0.044 C 
ENDBRANCH  14  16
ENDBRANCH   9  12
BRANCH   5  24
ATOM     24  N   UNL     1      -0.461   4.414  -0.021  0.00  0.00    -0.342 N 
ATOM     25  H   UNL     1      -0.727   5.482  -0.006  0.00  0.00    +0.144 HD
ATOM     26  H   UNL     1       0.596   4.112  -0.034  0.00  0.00    +0.144 HD
ENDBRANCH   5  24
BRANCH   1  27
ATOM     27  C   UNL     1       0.011   1.364  -0.060  0.00  0.00    +0.344 C 
ATOM     28  O   UNL     1       1.054   1.990  -0.068  0.00  0.00    -0.245 OA
BRANCH  27  29
ATOM     29  O   UNL     1       0.034   0.016  -0.075  0.00  0.00    -0.461 OA
BRANCH  29  31
ATOM     30  C   UNL     1       1.164  -2.141  -0.115  0.00  0.00    +0.048 C 
ATOM     31  C   UNL     1       1.339  -0.621  -0.101  0.00  0.00    +0.229 C 
ENDBRANCH  29  31
ENDBRANCH  27  29
ENDBRANCH   1  27
TORSDOF 6
