REMARK  Name = ZINC11873261
REMARK  8 active torsions:
REMARK  status: ('A' for Active; 'I' for Inactive)
REMARK    1  A    between atoms: C_1  and  C_2
REMARK    2  A    between atoms: C_6  and  C_8
REMARK    3  A    between atoms: C_8  and  N_9
REMARK    4  A    between atoms: C_10  and  C_12
REMARK    5  A    between atoms: C_12  and  C_13
REMARK    6  A    between atoms: C_20  and  C_21
REMARK    7  A    between atoms: C_20  and  N_62
REMARK    8  A    between atoms: C_21  and  C_22
REMARK                            x       y       z     vdW  Elec       q    Type
REMARK                         _______ _______ _______ _____ _____    ______ ____
ROOT
ATOM      1  C   UNL     1      -2.937  -3.878   4.493  0.00  0.00    +0.089 C 
ENDROOT
BRANCH   1   2
ATOM      2  C   UNL     1      -2.933  -4.742   5.755  0.00  0.00    +0.028 C 
ATOM      3  C   UNL     1      -2.051  -5.939   5.538  0.00  0.00    +0.200 C 
ATOM      4  O   UNL     1      -2.114  -6.523   4.477  0.00  0.00    -0.278 OA
ATOM      5  N   UNL     1      -1.200  -6.389   6.465  0.00  0.00    -0.318 N 
ATOM      6  C   UNL     1      -1.020  -5.738   7.759  0.00  0.00    +0.085 C 
ATOM      7  C   UNL     1      -2.207  -4.819   8.054  0.00  0.00    -0.059 C 
ATOM      8  H   UNL     1      -0.678  -7.183   6.269  0.00  0.00    +0.149 HD
ATOM      9  N   UNL     1      -2.411  -3.945   6.881  0.00  0.00    +0.389 N 
ATOM     10  H   UNL     1      -1.511  -3.532   6.610  0.00  0.00    -0.081 HD
BRANCH   9  11
ATOM     11  C   UNL     1      -3.359  -2.858   7.216  0.00  0.00    -0.073 C 
BRANCH  11  12
ATOM     12  C   UNL     1      -2.648  -1.838   8.107  0.00  0.00    +0.016 C 
BRANCH  12  13
ATOM     13  C   UNL     1      -3.598  -0.718   8.444  0.00  0.00    -0.049 A 
ATOM     14  C   UNL     1      -3.669   0.397   7.630  0.00  0.00    +0.003 A 
ATOM     15  C   UNL     1      -4.544   1.423   7.936  0.00  0.00    +0.000 A 
ATOM     16  C   UNL     1      -5.340   1.338   9.063  0.00  0.00    +0.000 A 
ATOM     17  C   UNL     1      -5.265   0.226   9.880  0.00  0.00    +0.000 A 
ATOM     18  C   UNL     1      -4.394  -0.802   9.571  0.00  0.00    +0.003 A 
ENDBRANCH  12  13
ENDBRANCH  11  12
ENDBRANCH   9  11
ENDBRANCH   1   2
BRANCH   1  20
ATOM     19  N   UNL     1      -1.281  -2.674   3.104  0.00  0.00    -0.308 N 
ATOM     20  C   UNL     1      -1.543  -3.367   4.230  0.00  0.00    +0.212 C 
ATOM     21  O   UNL     1      -0.658  -3.581   5.031  0.00  0.00    -0.276 OA
ATOM     22  H   UNL     1      -1.989  -2.503   2.464  0.00  0.00    +0.149 HD
BRANCH  19  23
ATOM     23  C   UNL     1       0.073  -2.178   2.849  0.00  0.00    +0.180 C 
BRANCH  23  29
ATOM     24  C   UNL     1      -0.418   2.008   0.371  0.00  0.00    +0.066 C 
ATOM     25  C   UNL     1      -0.135   0.528   0.382  0.00  0.00    +0.045 A 
ATOM     26  C   UNL     1       0.136  -0.144  -0.804  0.00  0.00    -0.005 A 
ATOM     27  C   UNL     1       0.399  -1.495  -0.748  0.00  0.00    +0.048 A 
ATOM     28  N   UNL     1       0.366  -2.107   0.431  0.00  0.00    -0.235 NA
ATOM     29  C   UNL     1       0.099  -1.441   1.534  0.00  0.00    +0.146 A 
ATOM     30  N   UNL     1      -0.147  -0.146   1.519  0.00  0.00    -0.235 NA
ATOM     31  C   UNL     1       0.725  -2.309  -1.971  0.00  0.00    +0.056 C 
ATOM     32  C   UNL     1       0.281  -1.569  -3.236  0.00  0.00    +0.006 C 
ATOM     33  C   UNL     1       0.856  -0.148  -3.188  0.00  0.00    +0.005 C 
ATOM     34  C   UNL     1       0.130   0.631  -2.092  0.00  0.00    +0.039 C 
ENDBRANCH  23  29
ENDBRANCH  19  23
ENDBRANCH   1  20
TORSDOF 7
