REMARK  Name = ZINC11093924
REMARK  9 active torsions:
REMARK  status: ('A' for Active; 'I' for Inactive)
REMARK    1  A    between atoms: C_1  and  C_2
REMARK    2  A    between atoms: C_2  and  C_3
REMARK    3  A    between atoms: C_2  and  C_4
REMARK    4  A    between atoms: C_4  and  C_6
REMARK    5  A    between atoms: C_4  and  N_51
REMARK    6  A    between atoms: C_16  and  C_18
REMARK    7  A    between atoms: C_16  and  C_19
REMARK    8  A    between atoms: C_16  and  N_51
REMARK    9  A    between atoms: N_21  and  C_22
REMARK                            x       y       z     vdW  Elec       q    Type
REMARK                         _______ _______ _______ _____ _____    ______ ____
ROOT
ATOM      1  N   UNL     1      -5.492  -0.989  -0.315  0.00  0.00    +0.391 N 
ATOM      2  H   UNL     1      -5.026  -0.217  -0.806  0.00  0.00    -0.084 HD
ATOM      3  H   UNL     1      -6.311  -0.629   0.189  0.00  0.00    -0.084 HD
ENDROOT
BRANCH   1   4
ATOM      4  C   UNL     1      -5.931  -1.997  -1.298  0.00  0.00    +0.014 C 
ATOM      5  C   UNL     1      -4.895  -2.103  -2.419  0.00  0.00    -0.004 C 
BRANCH   4   6
ATOM      6  C   UNL     1      -7.258  -1.579  -1.878  0.00  0.00    +0.203 C 
ATOM      7  O   UNL     1      -7.783  -0.550  -1.508  0.00  0.00    -0.277 OA
ATOM      8  N   UNL     1      -7.860  -2.347  -2.807  0.00  0.00    -0.282 N 
ATOM      9  H   UNL     1      -7.406  -3.129  -3.158  0.00  0.00    +0.155 HD
BRANCH   8  10
ATOM     10  C   UNL     1      -9.142  -2.016  -3.266  0.00  0.00    +0.105 A 
ATOM     11  C   UNL     1     -10.119  -2.999  -3.373  0.00  0.00    +0.147 A 
ATOM     12  C   UNL     1     -11.385  -2.667  -3.821  0.00  0.00    +0.040 A 
ATOM     13  C   UNL     1     -11.676  -1.362  -4.173  0.00  0.00    +0.006 A 
ATOM     14  C   UNL     1     -10.705  -0.383  -4.074  0.00  0.00    +0.040 A 
ATOM     15  C   UNL     1      -9.438  -0.705  -3.621  0.00  0.00    +0.147 A 
ATOM     16  F   UNL     1      -8.490   0.252  -3.525  0.00  0.00    -0.203 F 
ATOM     17  F   UNL     1      -9.834  -4.275  -3.034  0.00  0.00    -0.203 F 
ENDBRANCH   8  10
ENDBRANCH   4   6
ENDBRANCH   1   4
BRANCH   1  18
ATOM     18  C   UNL     1      -4.552  -1.590   0.650  0.00  0.00    -0.037 C 
BRANCH  18  19
ATOM     19  C   UNL     1      -3.662  -0.511   1.211  0.00  0.00    -0.057 A 
ATOM     20  C   UNL     1      -4.189   0.730   1.515  0.00  0.00    +0.006 A 
ATOM     21  C   UNL     1      -3.375   1.723   2.025  0.00  0.00    +0.049 A 
ATOM     22  C   UNL     1      -2.027   1.475   2.239  0.00  0.00    +0.162 A 
ATOM     23  C   UNL     1      -1.497   0.227   1.935  0.00  0.00    +0.162 A 
ATOM     24  C   UNL     1      -2.319  -0.764   1.419  0.00  0.00    +0.051 A 
ATOM     25  O   UNL     1      -0.178  -0.038   2.137  0.00  0.00    -0.485 OA
ATOM     26  C   UNL     1       0.688   1.091   2.300  0.00  0.00    +0.270 C 
ATOM     27  C   UNL     1       0.026   2.065   3.285  0.00  0.00    +0.270 C 
ATOM     28  O   UNL     1      -1.237   2.464   2.740  0.00  0.00    -0.485 OA
ENDBRANCH  18  19
BRANCH  18  30
ATOM     29  C   UNL     1      -4.373  -2.997   2.707  0.00  0.00    +0.006 C 
ATOM     30  C   UNL     1      -5.338  -2.245   1.788  0.00  0.00    -0.027 C 
ATOM     31  C   UNL     1      -6.069  -1.166   2.590  0.00  0.00    +0.006 C 
ENDBRANCH  18  30
ENDBRANCH   1  18
TORSDOF 6
