REMARK  Name = ZINC08793147
REMARK  8 active torsions:
REMARK  status: ('A' for Active; 'I' for Inactive)
REMARK    1  A    between atoms: C_1  and  C_2
REMARK    2  A    between atoms: C_2  and  C_3
REMARK    3  A    between atoms: C_2  and  N_52
REMARK    4  A    between atoms: C_9  and  N_15
REMARK    5  A    between atoms: C_10  and  C_11
REMARK    6  A    between atoms: C_11  and  O_13
REMARK    7  A    between atoms: O_13  and  C_14
REMARK    8  A    between atoms: C_16  and  C_18
REMARK                            x       y       z     vdW  Elec       q    Type
REMARK                         _______ _______ _______ _____ _____    ______ ____
ROOT
ATOM      1  C   UNL     1       9.518   9.391   0.405  0.00  0.00    -0.073 C 
ATOM      2  C   UNL     1       8.049   9.316  -0.021  0.00  0.00    +0.018 C 
ATOM      3  C   UNL     1       7.631   7.850  -0.029  0.00  0.00    -0.025 A 
ATOM      4  C   UNL     1       8.570   6.877  -0.043  0.00  0.00    -0.021 A 
ATOM      5  S   UNL     1       7.653   5.364  -0.036  0.00  0.00    -0.079 S 
ATOM      6  C   UNL     1       6.045   6.011  -0.024  0.00  0.00    +0.086 A 
ATOM      7  C   UNL     1       6.256   7.385  -0.019  0.00  0.00    +0.091 A 
ATOM      8  C   UNL     1      10.054   7.073  -0.058  0.00  0.00    -0.035 C 
ATOM      9  N   UNL     1      10.320   8.482  -0.439  0.00  0.00    +0.384 N 
ATOM     10  H   UNL     1      10.056   8.618  -1.422  0.00  0.00    -0.081 HD
ENDROOT
BRANCH   6  11
ATOM     11  N   UNL     1       4.842   5.326  -0.017  0.00  0.00    -0.275 N 
ATOM     12  C   UNL     1       4.834   3.978  -0.024  0.00  0.00    +0.256 C 
ATOM     13  O   UNL     1       5.884   3.364  -0.037  0.00  0.00    -0.270 OA
ATOM     14  H   UNL     1       4.005   5.816  -0.006  0.00  0.00    +0.156 HD
BRANCH  12  15
ATOM     15  C   UNL     1       3.555   3.249  -0.015  0.00  0.00    +0.122 A 
ATOM     16  C   UNL     1       2.353   3.936  -0.000  0.00  0.00    +0.031 A 
ATOM     17  C   UNL     1       1.145   3.193   0.008  0.00  0.00    +0.018 A 
ATOM     18  C   UNL     1      -0.091   3.857   0.023  0.00  0.00    +0.011 A 
ATOM     19  C   UNL     1      -1.250   3.137   0.030  0.00  0.00    +0.001 A 
ATOM     20  C   UNL     1      -1.216   1.749   0.017  0.00  0.00    +0.004 A 
ATOM     21  C   UNL     1      -0.013   1.076   0.008  0.00  0.00    +0.047 A 
ATOM     22  C   UNL     1       1.182   1.788   0.000  0.00  0.00    +0.139 A 
ATOM     23  O   UNL     1       2.359   1.126  -0.014  0.00  0.00    -0.422 OA
ATOM     24  C   UNL     1       3.531   1.782  -0.022  0.00  0.00    +0.350 A 
ATOM     25  O   UNL     1       4.576   1.158  -0.035  0.00  0.00    -0.244 OA
ENDBRANCH  12  15
ENDBRANCH   6  11
BRANCH   9  27
ATOM     26  C   UNL     1      12.195   8.574   1.169  0.00  0.00    -0.014 C 
ATOM     27  C   UNL     1      11.760   8.784  -0.283  0.00  0.00    -0.074 C 
ATOM     28  C   UNL     1      12.565   7.857  -1.196  0.00  0.00    -0.014 C 
ENDBRANCH   9  27
BRANCH   7  29
ATOM     29  C   UNL     1       5.136   8.327  -0.004  0.00  0.00    +0.342 C 
ATOM     30  O   UNL     1       4.679   8.712   1.056  0.00  0.00    -0.245 OA
BRANCH  29  31
ATOM     31  O   UNL     1       4.609   8.767  -1.165  0.00  0.00    -0.464 OA
ATOM     32  C   UNL     1       3.499   9.700  -1.074  0.00  0.00    +0.280 C 
ENDBRANCH  29  31
ENDBRANCH   7  29
TORSDOF 5
