REMARK  Name = ZINC39469792
REMARK  8 active torsions:
REMARK  status: ('A' for Active; 'I' for Inactive)
REMARK    1  A    between atoms: C_1  and  C_2
REMARK    2  A    between atoms: C_2  and  O_3
REMARK    3  A    between atoms: O_3  and  C_4
REMARK    4  A    between atoms: P_13  and  S_24
REMARK    5  A    between atoms: C_21  and  O_22
REMARK    6  A    between atoms: O_22  and  C_23
REMARK    7  A    between atoms: S_24  and  O_27
REMARK    8  A    between atoms: O_27  and  C_28
REMARK                            x       y       z     vdW  Elec       q    Type
REMARK                         _______ _______ _______ _____ _____    ______ ____
ROOT
ATOM      1  C   UNL     1       0.777  -1.810  -1.336  0.00  0.00    +0.158 C 
ATOM      2  C   UNL     1       0.265  -2.642  -0.425  0.00  0.00    +0.026 C 
ATOM      3  C   UNL     1       0.403  -4.128  -0.618  0.00  0.00    +0.019 C 
ATOM      4  C   UNL     1       0.288  -4.854   0.716  0.00  0.00    -0.002 C 
ATOM      5  C   UNL     1       1.454  -4.482   1.640  0.00  0.00    -0.020 C 
ATOM      6  C   UNL     1       1.271  -5.279   2.939  0.00  0.00    +0.158 C 
ATOM      7  O   UNL     1       2.315  -4.933   3.867  0.00  0.00    -0.301 OA
ATOM      8  P   UNL     1       3.850  -4.981   3.329  0.00  0.00    +0.431 P 
ATOM      9  O   UNL     1       4.352  -6.374   3.333  0.00  0.00    -0.246 OA
ATOM     10  N   UNL     1       3.786  -4.401   1.786  0.00  0.00    -0.271 NA
ATOM     11  N   UNL     1       2.730  -4.801   0.994  0.00  0.00    +0.398 N 
ATOM     12  C   UNL     1       2.866  -4.054  -0.267  0.00  0.00    -0.046 C 
ATOM     13  C   UNL     1       1.770  -4.439  -1.235  0.00  0.00    +0.008 C 
ATOM     14  C   UNL     1       1.940  -3.611  -2.486  0.00  0.00    +0.025 C 
ATOM     15  C   UNL     1       1.455  -2.367  -2.526  0.00  0.00    +0.158 C 
ATOM     16  H   UNL     1       4.469  -3.800   1.448  0.00  0.00    +0.113 HD
ATOM     17  H   UNL     1       2.786  -5.793   0.823  0.00  0.00    -0.055 HD
ENDROOT
BRANCH   8  18
ATOM     18  S   UNL     1       5.089  -3.751   4.531  0.00  0.00    +0.209 S 
ATOM     19  O   UNL     1       6.423  -3.962   4.088  0.00  0.00    -0.126 OA
ATOM     20  O   UNL     1       4.487  -2.464   4.551  0.00  0.00    -0.126 OA
BRANCH  18  21
ATOM     21  O   UNL     1       5.013  -4.289   5.953  0.00  0.00    -0.339 OA
BRANCH  21  22
ATOM     22  C   UNL     1       5.716  -5.435   6.149  0.00  0.00    +0.157 A 
ATOM     23  C   UNL     1       5.107  -6.666   5.948  0.00  0.00    +0.048 A 
ATOM     24  C   UNL     1       5.824  -7.830   6.147  0.00  0.00    +0.004 A 
ATOM     25  C   UNL     1       7.146  -7.769   6.547  0.00  0.00    +0.000 A 
ATOM     26  C   UNL     1       7.755  -6.544   6.749  0.00  0.00    +0.004 A 
ATOM     27  C   UNL     1       7.044  -5.377   6.545  0.00  0.00    +0.048 A 
ENDBRANCH  21  22
ENDBRANCH  18  21
ENDBRANCH   8  18
BRANCH  15  28
ATOM     28  O   UNL     1       1.587  -1.616  -3.651  0.00  0.00    -0.492 OA
ATOM     29  C   UNL     1       2.253  -2.221  -4.761  0.00  0.00    +0.277 C 
ENDBRANCH  15  28
BRANCH   1  30
ATOM     30  O   UNL     1       0.671  -0.465  -1.174  0.00  0.00    -0.489 OA
BRANCH  30  32
ATOM     31  C   UNL     1      -0.019   1.526   0.010  0.00  0.00    +0.048 C 
ATOM     32  C   UNL     1       0.002  -0.004   0.002  0.00  0.00    +0.226 C 
ENDBRANCH  30  32
ENDBRANCH   1  30
TORSDOF 6
