REMARK  Name = ZINC40562716
REMARK  6 active torsions:
REMARK  status: ('A' for Active; 'I' for Inactive)
REMARK    1  A    between atoms: C_3  and  C_26
REMARK    2  A    between atoms: C_5  and  S_7
REMARK    3  A    between atoms: S_7  and  N_10
REMARK    4  A    between atoms: N_10  and  C_11
REMARK    5  A    between atoms: C_11  and  C_12
REMARK    6  A    between atoms: C_20  and  C_21
REMARK                            x       y       z     vdW  Elec       q    Type
REMARK                         _______ _______ _______ _____ _____    ______ ____
ROOT
ATOM      1  C   UNL     1       0.092  -2.663   2.427  0.00  0.00    +0.182 C 
ENDROOT
BRANCH   1   2
ATOM      2  C   UNL     1       0.182  -3.515   3.667  0.00  0.00    +0.153 A 
ATOM      3  N   UNL     1      -0.321  -4.713   3.821  0.00  0.00    -0.132 NA
ATOM      4  N   UNL     1      -0.063  -5.157   5.001  0.00  0.00    -0.129 NA
ATOM      5  C   UNL     1       0.629  -4.250   5.672  0.00  0.00    +0.173 A 
ATOM      6  N   UNL     1       0.806  -3.181   4.829  0.00  0.00    -0.283 N 
ATOM      7  C   UNL     1       1.497  -2.080   5.244  0.00  0.00    +0.114 A 
ATOM      8  C   UNL     1       2.019  -2.027   6.489  0.00  0.00    +0.058 A 
ATOM      9  C   UNL     1       1.857  -3.108   7.373  0.00  0.00    +0.037 A 
ATOM     10  C   UNL     1       1.163  -4.209   6.974  0.00  0.00    +0.101 A 
ATOM     11 CL   UNL     1       2.895  -0.618   6.999  0.00  0.00    -0.082 Cl
BRANCH  10  12
ATOM     12  C   UNL     1       0.984  -5.377   7.909  0.00  0.00    +0.421 C 
ATOM     13  F   UNL     1       1.600  -5.094   9.133  0.00  0.00    -0.166 F 
ATOM     14  F   UNL     1      -0.382  -5.602   8.116  0.00  0.00    -0.166 F 
ATOM     15  F   UNL     1       1.565  -6.518   7.347  0.00  0.00    -0.166 F 
ENDBRANCH  10  12
ENDBRANCH   1   2
BRANCH   1  16
ATOM     16  N   UNL     1       1.236  -2.946   1.556  0.00  0.00    -0.183 NA
ATOM     17  H   UNL     1       2.004  -3.426   1.905  0.00  0.00    +0.148 HD
BRANCH  16  18
ATOM     18  S   UNL     1       1.218  -2.448  -0.023  0.00  0.00    +0.059 S 
ATOM     19  O   UNL     1      -0.030  -2.860  -0.564  0.00  0.00    -0.153 OA
ATOM     20  O   UNL     1       2.460  -2.843  -0.588  0.00  0.00    -0.153 OA
BRANCH  18  25
ATOM     21  C   UNL     1      -0.017   1.379   0.010  0.00  0.00    +0.003 A 
ATOM     22  C   UNL     1       1.166   2.089   0.002  0.00  0.00    +0.015 A 
ATOM     23  C   UNL     1       2.385   1.407  -0.013  0.00  0.00    +0.065 A 
ATOM     24  C   UNL     1       2.397   0.009  -0.021  0.00  0.00    +0.043 A 
ATOM     25  C   UNL     1       1.206  -0.686  -0.013  0.00  0.00    +0.106 A 
ATOM     26  C   UNL     1       0.002  -0.004   0.002  0.00  0.00    +0.028 A 
BRANCH  23  27
ATOM     27  C   UNL     1       3.655   2.158  -0.022  0.00  0.00    +0.387 C 
ATOM     28  O   UNL     1       3.642   3.381  -0.015  0.00  0.00    -0.241 OA
ATOM     29  O   UNL     1       4.721   1.558  -0.035  0.00  0.00    -0.241 OA
ENDBRANCH  23  27
ENDBRANCH  18  25
ENDBRANCH  16  18
ENDBRANCH   1  16
TORSDOF 6
