REMARK  Name = ZINC14456617
REMARK  7 active torsions:
REMARK  status: ('A' for Active; 'I' for Inactive)
REMARK    1  A    between atoms: C_1  and  C_2
REMARK    2  A    between atoms: C_5  and  C_7
REMARK    3  A    between atoms: C_20  and  C_23
REMARK    4  A    between atoms: N_25  and  C_26
REMARK    5  A    between atoms: C_26  and  C_27
REMARK    6  A    between atoms: C_26  and  C_28
REMARK    7  A    between atoms: C_26  and  C_29
REMARK                            x       y       z     vdW  Elec       q    Type
REMARK                         _______ _______ _______ _____ _____    ______ ____
ROOT
ATOM      1  C   UNL     1      -3.692  -0.923   0.070  0.00  0.00    +0.112 C 
ATOM      2  C   UNL     1      -4.773  -0.262  -0.761  0.00  0.00    +0.029 C 
ATOM      3  C   UNL     1      -6.172  -0.888  -0.749  0.00  0.00    +0.033 C 
ATOM      4  C   UNL     1      -7.057   0.339  -0.987  0.00  0.00    -0.030 C 
ATOM      5  C   UNL     1      -6.437   1.433  -0.559  0.00  0.00    -0.023 C 
ATOM      6  C   UNL     1      -5.131   1.038   0.023  0.00  0.00    +0.049 C 
ATOM      7  C   UNL     1      -3.936   1.908  -0.024  0.00  0.00    -0.019 A 
ATOM      8  C   UNL     1      -4.040   3.282  -0.055  0.00  0.00    +0.006 A 
ATOM      9  C   UNL     1      -2.908   4.079  -0.078  0.00  0.00    +0.001 A 
ATOM     10  C   UNL     1      -1.658   3.498  -0.062  0.00  0.00    +0.015 A 
ATOM     11  C   UNL     1      -1.534   2.110  -0.042  0.00  0.00    +0.058 A 
ATOM     12  C   UNL     1      -2.682   1.290  -0.027  0.00  0.00    +0.044 A 
ATOM     13  N   UNL     1      -2.490  -0.081  -0.036  0.00  0.00    -0.335 N 
ATOM     14  H   UNL     1      -1.797  -0.353   0.645  0.00  0.00    +0.147 HD
ENDROOT
BRANCH   1  19
ATOM     15  C   UNL     1      -4.957  -0.351   5.562  0.00  0.00    +0.051 C 
ATOM     16  C   UNL     1      -4.734  -0.739   4.123  0.00  0.00    -0.013 A 
ATOM     17  C   UNL     1      -5.079  -1.884   3.485  0.00  0.00    +0.011 A 
ATOM     18  C   UNL     1      -4.771  -2.024   2.144  0.00  0.00    +0.013 A 
ATOM     19  C   UNL     1      -4.133  -1.011   1.508  0.00  0.00    +0.010 A 
ATOM     20  S   UNL     1      -3.942   0.187   2.818  0.00  0.00    -0.097 S 
ENDBRANCH   1  19
BRANCH  11  21
ATOM     21  C   UNL     1      -0.195   1.495  -0.029  0.00  0.00    +0.246 C 
ATOM     22  O   UNL     1      -0.082   0.284  -0.006  0.00  0.00    -0.270 OA
ATOM     23  N   UNL     1       0.905   2.274  -0.049  0.00  0.00    -0.307 N 
ATOM     24  H   UNL     1       0.815   3.240  -0.067  0.00  0.00    +0.150 HD
BRANCH  23  25
ATOM     25  C   UNL     1       2.236   1.662  -0.042  0.00  0.00    +0.026 C 
ATOM     26  C   UNL     1       2.393   0.770  -1.275  0.00  0.00    +0.031 C 
ATOM     27  C   UNL     1       3.302   2.760  -0.068  0.00  0.00    +0.031 C 
ATOM     28  C   UNL     1       2.404   0.818   1.223  0.00  0.00    +0.031 C 
ENDBRANCH  23  25
ENDBRANCH  11  21
TORSDOF 3
