REMARK  Name = ZINC40223169
REMARK  3 active torsions:
REMARK  status: ('A' for Active; 'I' for Inactive)
REMARK    1  A    between atoms: C_6  and  C_7
REMARK    2  A    between atoms: N_12  and  S_15
REMARK    3  A    between atoms: S_15  and  N_18
REMARK                            x       y       z     vdW  Elec       q    Type
REMARK                         _______ _______ _______ _____ _____    ______ ____
ROOT
ATOM      1  C   UNL     1      -1.169  -0.887   0.009  0.00  0.00    +0.263 C 
ATOM      2  O   UNL     1      -2.285  -0.416   0.122  0.00  0.00    -0.268 OA
ATOM      3  N   UNL     1      -1.009  -2.220  -0.102  0.00  0.00    -0.294 N 
ATOM      4  C   UNL     1       0.336  -2.813  -0.113  0.00  0.00    +0.125 C 
ATOM      5  C   UNL     1       0.416  -3.869   0.997  0.00  0.00    +0.129 C 
ATOM      6  N   UNL     1      -0.751  -4.756   0.886  0.00  0.00    -0.164 NA
ATOM      7  C   UNL     1      -2.095  -4.163   0.898  0.00  0.00    +0.129 C 
ATOM      8  C   UNL     1      -2.175  -3.108  -0.207  0.00  0.00    +0.125 C 
ENDROOT
BRANCH   1  14
ATOM      9  C   UNL     1       0.197   1.106   0.787  0.00  0.00    +0.052 A 
ATOM     10  C   UNL     1       1.439   1.647   0.440  0.00  0.00    +0.059 A 
ATOM     11  C   UNL     1       1.969   0.876  -0.540  0.00  0.00    +0.103 A 
ATOM     12  N   UNL     1       1.105  -0.131  -0.821  0.00  0.00    -0.356 N 
ATOM     13  H   UNL     1       1.242  -0.825  -1.485  0.00  0.00    +0.166 HD
ATOM     14  C   UNL     1       0.001  -0.003  -0.008  0.00  0.00    +0.103 A 
ATOM     15 CL   UNL     1       2.171   3.057   1.141  0.00  0.00    -0.082 Cl
ENDBRANCH   1  14
BRANCH   6  16
ATOM     16  S   UNL     1      -0.553  -6.394   0.751  0.00  0.00    +0.095 S 
ATOM     17  O   UNL     1      -1.725  -6.894   0.120  0.00  0.00    -0.141 OA
ATOM     18  O   UNL     1       0.747  -6.604   0.217  0.00  0.00    -0.141 OA
BRANCH  16  19
ATOM     19  N   UNL     1      -0.541  -7.015   2.286  0.00  0.00    -0.193 NA
ATOM     20  H   UNL     1      -0.865  -7.915   2.448  0.00  0.00    +0.145 HD
ATOM     21  H   UNL     1      -0.210  -6.479   3.023  0.00  0.00    +0.145 HD
ENDBRANCH  16  19
ENDBRANCH   6  16
TORSDOF 3
