REMARK  Name = ZINC03104260
REMARK  8 active torsions:
REMARK  status: ('A' for Active; 'I' for Inactive)
REMARK    1  A    between atoms: C_3  and  S_10
REMARK    2  A    between atoms: C_6  and  N_7
REMARK    3  A    between atoms: S_10  and  C_11
REMARK    4  A    between atoms: N_15  and  C_20
REMARK    5  A    between atoms: C_20  and  C_21
REMARK    6  A    between atoms: C_21  and  N_22
REMARK    7  A    between atoms: N_22  and  C_23
REMARK    8  A    between atoms: C_26  and  C_28
REMARK                            x       y       z     vdW  Elec       q    Type
REMARK                         _______ _______ _______ _____ _____    ______ ____
ROOT
ATOM      1  C   UNL     1       2.885   4.172   0.148  0.00  0.00    +0.087 A 
ATOM      2  C   UNL     1       3.338   5.455   0.288  0.00  0.00    +0.103 A 
ATOM      3  C   UNL     1       4.718   5.683   0.400  0.00  0.00    +0.258 A 
ATOM      4  O   UNL     1       5.144   6.818   0.531  0.00  0.00    -0.267 OA
ATOM      5  N   UNL     1       5.570   4.640   0.356  0.00  0.00    -0.259 N 
ATOM      6  C   UNL     1       5.110   3.385   0.212  0.00  0.00    +0.330 A 
ATOM      7  O   UNL     1       5.897   2.459   0.175  0.00  0.00    -0.246 OA
ATOM      8  N   UNL     1       3.791   3.138   0.108  0.00  0.00    -0.302 N 
ATOM      9  H   UNL     1       3.477   2.226   0.005  0.00  0.00    +0.171 HD
ENDROOT
BRANCH   1  10
ATOM     10  S   UNL     1       1.159   3.848   0.011  0.00  0.00    -0.072 S 
BRANCH  10  13
ATOM     11  C   UNL     1       1.202   0.016   1.232  0.00  0.00    +0.034 A 
ATOM     12  C   UNL     1       1.188   1.397   1.227  0.00  0.00    +0.017 A 
ATOM     13  C   UNL     1       1.176   2.086   0.021  0.00  0.00    +0.014 A 
ATOM     14  C   UNL     1       1.178   1.383  -1.177  0.00  0.00    +0.017 A 
ATOM     15  C   UNL     1       1.191   0.002  -1.166  0.00  0.00    +0.034 A 
ATOM     16  C   UNL     1       1.203  -0.681   0.037  0.00  0.00    +0.126 A 
BRANCH  16  17
ATOM     17  N   UNL     1       1.217  -2.161   0.045  0.00  0.00    +0.056 N 
ATOM     18  O   UNL     1       1.228  -2.764   1.104  0.00  0.00    -0.126 OA
ATOM     19  O   UNL     1       1.218  -2.776  -1.006  0.00  0.00    -0.126 OA
ENDBRANCH  16  17
ENDBRANCH  10  13
ENDBRANCH   1  10
BRANCH   5  20
ATOM     20  C   UNL     1       7.012   4.877   0.466  0.00  0.00    +0.148 C 
BRANCH  20  21
ATOM     21  C   UNL     1       7.601   5.091  -0.929  0.00  0.00    +0.124 C 
BRANCH  21  22
ATOM     22  N   UNL     1       9.043   5.327  -0.819  0.00  0.00    -0.328 N 
ATOM     23  H   UNL     1       9.469   5.328   0.052  0.00  0.00    +0.148 HD
BRANCH  22  24
ATOM     24  C   UNL     1       9.801   5.550  -1.964  0.00  0.00    +0.115 A 
ATOM     25  C   UNL     1      11.169   5.779  -1.852  0.00  0.00    +0.079 A 
ATOM     26  C   UNL     1      11.912   5.994  -3.000  0.00  0.00    +0.037 A 
ATOM     27  C   UNL     1      11.256   5.983  -4.225  0.00  0.00    +0.072 A 
ATOM     28  C   UNL     1       9.895   5.755  -4.261  0.00  0.00    +0.096 A 
ATOM     29 CL   UNL     1      11.936   5.790  -0.294  0.00  0.00    -0.080 Cl
ATOM     30  N   UNL     1       9.135   5.535  -3.155  0.00  0.00    -0.348 N 
ATOM     31  H   UNL     1       8.124   5.367  -3.212  0.00  0.00    +0.167 HD
BRANCH  27  32
ATOM     32  C   UNL     1      12.023   6.217  -5.501  0.00  0.00    +0.419 C 
ATOM     33  F   UNL     1      11.146   6.157  -6.589  0.00  0.00    -0.166 F 
ATOM     34  F   UNL     1      12.626   7.479  -5.457  0.00  0.00    -0.166 F 
ATOM     35  F   UNL     1      13.008   5.234  -5.640  0.00  0.00    -0.166 F 
ENDBRANCH  27  32
ENDBRANCH  22  24
ENDBRANCH  21  22
ENDBRANCH  20  21
ENDBRANCH   5  20
TORSDOF 8
