REMARK  Name = ZINC38713063
REMARK  12 active torsions:
REMARK  status: ('A' for Active; 'I' for Inactive)
REMARK    1  A    between atoms: C_1  and  C_2
REMARK    2  A    between atoms: C_2  and  N_3
REMARK    3  A    between atoms: N_3  and  C_4
REMARK    4  A    between atoms: N_3  and  C_6
REMARK    5  A    between atoms: C_4  and  C_5
REMARK    6  A    between atoms: C_6  and  C_7
REMARK    7  A    between atoms: C_7  and  N_8
REMARK    8  A    between atoms: C_9  and  C_28
REMARK    9  A    between atoms: C_31  and  O_36
REMARK   10  A    between atoms: C_32  and  O_34
REMARK   11  A    between atoms: O_34  and  C_35
REMARK   12  A    between atoms: O_36  and  C_37
REMARK                            x       y       z     vdW  Elec       q    Type
REMARK                         _______ _______ _______ _____ _____    ______ ____
ROOT
ATOM      1  N   UNL     1      -0.796  -3.595   2.126  0.00  0.00    -0.285 N 
ATOM      2  C   UNL     1      -1.875  -4.290   2.847  0.00  0.00    +0.145 C 
ATOM      3  C   UNL     1      -1.459  -5.723   2.918  0.00  0.00    +0.072 A 
ATOM      4  C   UNL     1      -2.109  -6.890   3.520  0.00  0.00    +0.199 A 
ATOM      5  O   UNL     1      -3.255  -6.875   3.936  0.00  0.00    -0.287 OA
ATOM      6  C   UNL     1      -1.241  -8.092   3.573  0.00  0.00    +0.065 A 
ATOM      7  C   UNL     1      -1.650  -9.222   4.305  0.00  0.00    +0.016 A 
ATOM      8  C   UNL     1      -0.866 -10.325   4.371  0.00  0.00    +0.009 A 
ATOM      9  C   UNL     1       0.376 -10.352   3.701  0.00  0.00    -0.014 A 
ATOM     10  C   UNL     1       1.201 -11.486   3.765  0.00  0.00    +0.008 A 
ATOM     11  C   UNL     1       2.395 -11.491   3.107  0.00  0.00    +0.001 A 
ATOM     12  C   UNL     1       2.811 -10.385   2.372  0.00  0.00    +0.001 A 
ATOM     13  C   UNL     1       2.036  -9.267   2.290  0.00  0.00    +0.012 A 
ATOM     14  C   UNL     1       0.801  -9.229   2.955  0.00  0.00    +0.025 A 
ATOM     15  C   UNL     1      -0.023  -8.078   2.890  0.00  0.00    +0.147 A 
ATOM     16  O   UNL     1       0.394  -7.014   2.172  0.00  0.00    -0.449 OA
ATOM     17  C   UNL     1      -0.252  -5.838   2.287  0.00  0.00    +0.199 A 
ATOM     18  C   UNL     1       0.143  -4.506   1.798  0.00  0.00    +0.283 C 
ATOM     19  O   UNL     1       1.167  -4.263   1.191  0.00  0.00    -0.267 OA
ENDROOT
BRANCH   2  20
ATOM     20  C   UNL     1      -3.173  -4.160   2.093  0.00  0.00    -0.019 A 
ATOM     21  C   UNL     1      -3.182  -4.263   0.714  0.00  0.00    +0.009 A 
ATOM     22  C   UNL     1      -4.370  -4.145   0.017  0.00  0.00    +0.050 A 
ATOM     23  C   UNL     1      -5.555  -3.923   0.701  0.00  0.00    +0.162 A 
ATOM     24  C   UNL     1      -5.545  -3.820   2.088  0.00  0.00    +0.162 A 
ATOM     25  C   UNL     1      -4.352  -3.944   2.781  0.00  0.00    +0.055 A 
BRANCH  24  26
ATOM     26  O   UNL     1      -6.706  -3.603   2.764  0.00  0.00    -0.491 OA
ATOM     27  C   UNL     1      -6.620  -3.508   4.187  0.00  0.00    +0.277 C 
ENDBRANCH  24  26
BRANCH  23  28
ATOM     28  O   UNL     1      -6.725  -3.806   0.017  0.00  0.00    -0.491 OA
ATOM     29  C   UNL     1      -6.659  -3.922  -1.406  0.00  0.00    +0.277 C 
ENDBRANCH  23  28
ENDBRANCH   2  20
BRANCH   1  30
ATOM     30  C   UNL     1      -0.753  -2.164   1.812  0.00  0.00    +0.090 C 
BRANCH  30  31
ATOM     31  C   UNL     1      -1.417  -1.919   0.456  0.00  0.00    -0.060 C 
BRANCH  31  32
ATOM     32  N   UNL     1      -1.374  -0.485   0.142  0.00  0.00    +0.380 N 
ATOM     33  H   UNL     1      -1.794   0.038   0.896  0.00  0.00    -0.082 HD
BRANCH  32  35
ATOM     34  C   UNL     1       0.077   1.455  -0.215  0.00  0.00    -0.017 C 
ATOM     35  C   UNL     1       0.023  -0.062  -0.028  0.00  0.00    -0.082 C 
ENDBRANCH  32  35
BRANCH  32  36
ATOM     36  C   UNL     1      -2.116  -0.233  -1.101  0.00  0.00    -0.082 C 
ATOM     37  C   UNL     1      -3.600  -0.533  -0.879  0.00  0.00    -0.017 C 
ENDBRANCH  32  36
ENDBRANCH  31  32
ENDBRANCH  30  31
ENDBRANCH   1  30
TORSDOF 8
