REMARK  Name = ZINC21657822
REMARK  6 active torsions:
REMARK  status: ('A' for Active; 'I' for Inactive)
REMARK    1  A    between atoms: C_1  and  C_2
REMARK    2  A    between atoms: C_2  and  C_3
REMARK    3  A    between atoms: C_7  and  N_9
REMARK    4  A    between atoms: N_12  and  C_22
REMARK    5  A    between atoms: C_22  and  C_23
REMARK    6  A    between atoms: N_25  and  C_26
REMARK                            x       y       z     vdW  Elec       q    Type
REMARK                         _______ _______ _______ _____ _____    ______ ____
ROOT
ATOM      1  N   UNL     1      -1.976   1.805  -7.649  0.00  0.00    -0.123 N 
ATOM      2  C   UNL     1      -1.159   1.590  -6.591  0.00  0.00    +0.333 C 
ATOM      3  O   UNL     1      -0.513   2.541  -6.195  0.00  0.00    -0.250 OA
ATOM      4  N   UNL     1      -0.995   0.447  -5.945  0.00  0.00    -0.243 N 
ATOM      5  C   UNL     1      -1.572  -0.797  -6.153  0.00  0.00    +0.065 A 
ATOM      6  C   UNL     1      -1.258  -1.884  -5.345  0.00  0.00    +0.025 A 
ATOM      7  C   UNL     1      -1.855  -3.108  -5.576  0.00  0.00    +0.002 A 
ATOM      8  C   UNL     1      -2.768  -3.271  -6.601  0.00  0.00    +0.002 A 
ATOM      9  C   UNL     1      -3.093  -2.191  -7.412  0.00  0.00    +0.031 A 
ATOM     10  C   UNL     1      -2.501  -0.983  -7.179  0.00  0.00    +0.131 A 
ATOM     11  S   UNL     1      -2.844   0.459  -8.155  0.00  0.00    +0.084 S 
ATOM     12  O   UNL     1      -4.210   0.769  -7.916  0.00  0.00    -0.149 OA
ATOM     13  O   UNL     1      -2.366   0.160  -9.460  0.00  0.00    -0.149 OA
ENDROOT
BRANCH   1  18
ATOM     14  C   UNL     1      -1.155   5.194  -8.817  0.00  0.00    -0.046 A 
ATOM     15  C   UNL     1      -2.309   5.519  -9.508  0.00  0.00    +0.004 A 
ATOM     16  C   UNL     1      -3.352   4.614  -9.582  0.00  0.00    +0.002 A 
ATOM     17  C   UNL     1      -3.242   3.380  -8.972  0.00  0.00    +0.025 A 
ATOM     18  C   UNL     1      -2.088   3.053  -8.273  0.00  0.00    +0.062 A 
ATOM     19  C   UNL     1      -1.042   3.963  -8.200  0.00  0.00    +0.029 A 
BRANCH  14  21
ATOM     20  C   UNL     1       0.929   5.965  -9.918  0.00  0.00    +0.009 C 
ATOM     21  C   UNL     1      -0.021   6.183  -8.738  0.00  0.00    +0.032 C 
ENDBRANCH  14  21
ENDBRANCH   1  18
BRANCH   4  22
ATOM     22  C   UNL     1      -0.043   0.503  -4.832  0.00  0.00    +0.211 C 
BRANCH  22  23
ATOM     23  C   UNL     1      -0.790   0.739  -3.544  0.00  0.00    +0.231 C 
ATOM     24  O   UNL     1      -1.997   0.849  -3.555  0.00  0.00    -0.274 OA
ATOM     25  N   UNL     1      -0.115   0.827  -2.381  0.00  0.00    -0.311 N 
ATOM     26  H   UNL     1       0.980   0.727  -2.371  0.00  0.00    +0.149 HD
BRANCH  25  27
ATOM     27  C   UNL     1      -0.841   1.057  -1.129  0.00  0.00    +0.073 C 
ATOM     28  C   UNL     1      -0.020   0.515   0.043  0.00  0.00    +0.022 C 
ATOM     29  C   UNL     1      -0.778   0.755   1.350  0.00  0.00    +0.002 C 
ATOM     30  C   UNL     1      -1.008   2.256   1.539  0.00  0.00    +0.000 C 
ATOM     31  C   UNL     1      -1.829   2.797   0.367  0.00  0.00    +0.002 C 
ATOM     32  C   UNL     1      -1.071   2.558  -0.941  0.00  0.00    +0.022 C 
ENDBRANCH  25  27
ENDBRANCH  22  23
ENDBRANCH   4  22
TORSDOF 5
