REMARK  Name = ZINC35341684
REMARK  4 active torsions:
REMARK  status: ('A' for Active; 'I' for Inactive)
REMARK    1  A    between atoms: C_1  and  N_2
REMARK    2  A    between atoms: C_3  and  S_7
REMARK    3  A    between atoms: S_7  and  C_8
REMARK    4  A    between atoms: C_13  and  N_14
REMARK                            x       y       z     vdW  Elec       q    Type
REMARK                         _______ _______ _______ _____ _____    ______ ____
ROOT
ATOM      1  C   UNL     1      -0.031  -1.762  -3.782  0.00  0.00    +0.037 A 
ATOM      2  C   UNL     1      -0.112  -3.019  -3.201  0.00  0.00    +0.022 A 
ATOM      3  C   UNL     1      -0.130  -4.149  -3.995  0.00  0.00    -0.025 A 
ATOM      4  C   UNL     1      -0.068  -4.030  -5.378  0.00  0.00    +0.038 A 
ATOM      5  C   UNL     1       0.012  -2.775  -5.965  0.00  0.00    +0.047 A 
ATOM      6  C   UNL     1       0.026  -1.639  -5.171  0.00  0.00    +0.040 A 
ATOM      7  N   UNL     1      -0.087  -5.179  -6.178  0.00  0.00    -0.285 N 
ATOM      8  C   UNL     1      -0.530  -6.349  -5.682  0.00  0.00    +0.218 C 
ATOM      9  O   UNL     1      -0.527  -7.338  -6.384  0.00  0.00    -0.275 OA
ATOM     10  C   UNL     1      -1.030  -6.444  -4.265  0.00  0.00    +0.101 C 
ATOM     11  C   UNL     1      -0.217  -5.514  -3.364  0.00  0.00    +0.046 C 
ATOM     12  H   UNL     1       0.221  -5.132  -7.097  0.00  0.00    +0.155 HD
ENDROOT
BRANCH   6  13
ATOM     13  N   UNL     1       0.102  -0.372  -5.760  0.00  0.00    -0.357 N 
ATOM     14  H   UNL     1       0.115   0.422  -5.203  0.00  0.00    +0.142 HD
ATOM     15  H   UNL     1       0.141  -0.288  -6.726  0.00  0.00    +0.142 HD
ENDBRANCH   6  13
BRANCH   1  16
ATOM     16  S   UNL     1      -0.007  -0.321  -2.768  0.00  0.00    -0.047 S 
BRANCH  16  19
ATOM     17  C   UNL     1       1.458   2.350  -1.498  0.00  0.00    +0.177 C 
ATOM     18  N   UNL     1       2.186   1.318  -2.240  0.00  0.00    -0.223 N 
ATOM     19  C   UNL     1       1.678   0.193  -2.797  0.00  0.00    +0.214 A 
ATOM     20  N   UNL     1       2.680  -0.444  -3.364  0.00  0.00    -0.101 NA
ATOM     21  N   UNL     1       3.776   0.205  -3.199  0.00  0.00    -0.022 NA
ATOM     22  N   UNL     1       3.561   1.287  -2.533  0.00  0.00    -0.043 NA
ENDBRANCH  16  19
ENDBRANCH   1  16
TORSDOF 3
