REMARK  Name = ZINC35894874
REMARK  8 active torsions:
REMARK  status: ('A' for Active; 'I' for Inactive)
REMARK    1  A    between atoms: C_1  and  C_2
REMARK    2  A    between atoms: C_7  and  C_10
REMARK    3  A    between atoms: C_11  and  C_13
REMARK    4  A    between atoms: C_18  and  N_38
REMARK    5  A    between atoms: N_26  and  C_29
REMARK    6  A    between atoms: C_29  and  C_30
REMARK    7  A    between atoms: C_30  and  O_31
REMARK    8  A    between atoms: O_31  and  C_32
REMARK                            x       y       z     vdW  Elec       q    Type
REMARK                         _______ _______ _______ _____ _____    ______ ____
ROOT
ATOM      1  C   UNL     1       0.811  -4.251  -2.072  0.00  0.00    +0.098 C 
ATOM      2  C   UNL     1       2.305  -4.466  -1.830  0.00  0.00    +0.051 C 
ATOM      3  C   UNL     1       3.080  -3.988  -3.031  0.00  0.00    -0.023 A 
ATOM      4  C   UNL     1       4.393  -3.582  -2.870  0.00  0.00    +0.038 A 
ATOM      5  C   UNL     1       5.120  -3.136  -3.958  0.00  0.00    +0.127 A 
ATOM      6  C   UNL     1       4.536  -3.093  -5.211  0.00  0.00    +0.034 A 
ATOM      7  C   UNL     1       3.228  -3.500  -5.378  0.00  0.00    +0.025 A 
ATOM      8  C   UNL     1       2.495  -3.952  -4.285  0.00  0.00    +0.033 A 
ATOM      9  N   UNL     1       1.170  -4.369  -4.488  0.00  0.00    -0.329 N 
ATOM     10  C   UNL     1       0.404  -4.928  -3.385  0.00  0.00    +0.069 C 
ATOM     11  C   UNL     1      -1.100  -4.793  -3.564  0.00  0.00    -0.055 C 
ATOM     12  N   UNL     1      -1.507  -5.005  -4.952  0.00  0.00    +0.384 N 
ATOM     13  C   UNL     1      -0.876  -3.979  -5.795  0.00  0.00    -0.059 C 
ATOM     14  C   UNL     1       0.626  -4.249  -5.843  0.00  0.00    +0.087 C 
ATOM     15  H   UNL     1      -1.210  -5.921  -5.255  0.00  0.00    -0.082 HD
ENDROOT
BRANCH   1  24
ATOM     16  C   UNL     1      -1.125   1.301  -0.118  0.00  0.00    +0.039 C 
ATOM     17  C   UNL     1      -1.030  -0.221  -0.239  0.00  0.00    +0.133 C 
ATOM     18  C   UNL     1       0.195  -0.592  -1.083  0.00  0.00    +0.139 C 
ATOM     19  N   UNL     1       0.371  -2.052  -1.029  0.00  0.00    -0.296 N 
ATOM     20  C   UNL     1       0.377  -2.700   0.293  0.00  0.00    +0.139 C 
ATOM     21  C   UNL     1      -0.857  -2.226   1.069  0.00  0.00    +0.133 C 
ATOM     22  O   UNL     1      -0.899  -0.797   1.062  0.00  0.00    -0.371 OA
ATOM     23  C   UNL     1      -0.778  -2.730   2.511  0.00  0.00    +0.039 C 
ATOM     24  C   UNL     1       0.523  -2.775  -2.156  0.00  0.00    +0.221 C 
ATOM     25  O   UNL     1       0.427  -2.237  -3.239  0.00  0.00    -0.275 OA
ENDBRANCH   1  24
BRANCH   5  26
ATOM     26  N   UNL     1       6.524  -2.703  -3.781  0.00  0.00    +0.056 N 
ATOM     27  O   UNL     1       7.034  -2.740  -2.686  0.00  0.00    -0.126 OA
ATOM     28  O   UNL     1       7.160  -2.312  -4.732  0.00  0.00    -0.126 OA
ENDBRANCH   5  26
BRANCH  12  29
ATOM     29  C   UNL     1      -2.968  -4.900  -5.058  0.00  0.00    -0.037 C 
BRANCH  29  30
ATOM     30  C   UNL     1      -3.402  -5.245  -6.484  0.00  0.00    +0.210 C 
BRANCH  30  31
ATOM     31  O   UNL     1      -3.102  -6.616  -6.755  0.00  0.00    -0.494 OA
BRANCH  31  32
ATOM     32  C   UNL     1      -3.427  -7.087  -7.987  0.00  0.00    +0.120 A 
ATOM     33  C   UNL     1      -4.017  -6.245  -8.919  0.00  0.00    +0.045 A 
ATOM     34  C   UNL     1      -4.346  -6.726 -10.172  0.00  0.00    +0.004 A 
ATOM     35  C   UNL     1      -4.087  -8.045 -10.497  0.00  0.00    +0.000 A 
ATOM     36  C   UNL     1      -3.500  -8.886  -9.570  0.00  0.00    +0.004 A 
ATOM     37  C   UNL     1      -3.163  -8.408  -8.318  0.00  0.00    +0.045 A 
ENDBRANCH  31  32
ENDBRANCH  30  31
ENDBRANCH  29  30
ENDBRANCH  12  29
TORSDOF 6
