REMARK  Name = ZINC37478680
REMARK  5 active torsions:
REMARK  status: ('A' for Active; 'I' for Inactive)
REMARK    1  A    between atoms: C_1  and  C_2
REMARK    2  A    between atoms: C_2  and  C_3
REMARK    3  A    between atoms: C_2  and  C_6
REMARK    4  A    between atoms: C_2  and  N_15
REMARK    5  A    between atoms: N_8  and  C_9
REMARK                            x       y       z     vdW  Elec       q    Type
REMARK                         _______ _______ _______ _____ _____    ______ ____
ROOT
ATOM      1  C   UNL     1      -1.412  -0.526   0.013  0.00  0.00    +0.202 C 
ATOM      2  O   UNL     1      -1.939  -0.827   1.062  0.00  0.00    -0.277 OA
ATOM      3  N   UNL     1      -2.090  -0.657  -1.144  0.00  0.00    -0.314 N 
ATOM      4  H   UNL     1      -1.669  -0.416  -1.984  0.00  0.00    +0.149 HD
ENDROOT
BRANCH   3   5
ATOM      5  C   UNL     1      -3.465  -1.164  -1.134  0.00  0.00    +0.073 C 
ATOM      6  C   UNL     1      -4.432  -0.009  -0.868  0.00  0.00    +0.022 C 
ATOM      7  C   UNL     1      -5.868  -0.539  -0.857  0.00  0.00    +0.002 C 
ATOM      8  C   UNL     1      -6.188  -1.171  -2.213  0.00  0.00    +0.000 C 
ATOM      9  C   UNL     1      -5.221  -2.326  -2.479  0.00  0.00    +0.002 C 
ATOM     10  C   UNL     1      -3.785  -1.796  -2.490  0.00  0.00    +0.022 C 
ENDBRANCH   3   5
BRANCH   1  12
ATOM     11  C   UNL     1      -0.019   1.526   0.010  0.00  0.00    -0.001 C 
ATOM     12  C   UNL     1       0.002  -0.004   0.002  0.00  0.00    +0.007 C 
BRANCH  12  13
ATOM     13  N   UNL     1       0.690  -0.478  -1.207  0.00  0.00    +0.388 N 
ATOM     14  H   UNL     1       1.636  -0.129  -1.214  0.00  0.00    -0.089 HD
ATOM     15  H   UNL     1       0.703  -1.487  -1.212  0.00  0.00    -0.089 HD
ATOM     16  H   UNL     1       0.202  -0.144  -2.024  0.00  0.00    -0.089 HD
ENDBRANCH  12  13
BRANCH  12  17
ATOM     17  C   UNL     1       0.742  -0.511   1.242  0.00  0.00    -0.014 C 
ATOM     18  C   UNL     1       1.015   0.495   2.362  0.00  0.00    +0.003 C 
ATOM     19  C   UNL     1       2.163   0.006   1.476  0.00  0.00    +0.003 C 
ENDBRANCH  12  17
ENDBRANCH   1  12
TORSDOF 4
