REMARK  Name = ZINC33518770
REMARK  6 active torsions:
REMARK  status: ('A' for Active; 'I' for Inactive)
REMARK    1  A    between atoms: N_11  and  C_15
REMARK    2  A    between atoms: C_15  and  C_16
REMARK    3  A    between atoms: C_16  and  C_17
REMARK    4  A    between atoms: N_22  and  C_23
REMARK    5  A    between atoms: C_23  and  C_24
REMARK    6  A    between atoms: N_26  and  C_27
REMARK                            x       y       z     vdW  Elec       q    Type
REMARK                         _______ _______ _______ _____ _____    ______ ____
ROOT
ATOM      1  C   UNL     1      -8.065  -6.502  -1.040  0.00  0.00    +0.001 A 
ATOM      2  C   UNL     1      -8.512  -6.757  -2.327  0.00  0.00    +0.002 A 
ATOM      3  C   UNL     1      -7.797  -6.311  -3.421  0.00  0.00    +0.024 A 
ATOM      4  C   UNL     1      -6.617  -5.599  -3.241  0.00  0.00    +0.045 A 
ATOM      5  C   UNL     1      -6.168  -5.343  -1.938  0.00  0.00    +0.010 A 
ATOM      6  C   UNL     1      -6.896  -5.797  -0.841  0.00  0.00    +0.010 A 
ATOM      7  C   UNL     1      -4.909  -4.580  -2.071  0.00  0.00    +0.065 C 
ATOM      8  C   UNL     1      -4.103  -4.105  -1.056  0.00  0.00    +0.089 C 
ATOM      9  C   UNL     1      -2.831  -3.334  -1.135  0.00  0.00    +0.259 C 
ATOM     10  O   UNL     1      -2.336  -3.022  -2.200  0.00  0.00    -0.269 OA
ATOM     11  N   UNL     1      -2.270  -3.009   0.018  0.00  0.00    -0.255 N 
ATOM     12  C   UNL     1      -2.821  -3.363   1.196  0.00  0.00    +0.121 C 
ATOM     13  S   UNL     1      -2.244  -3.042   2.775  0.00  0.00    -0.027 S 
ATOM     14  S   UNL     1      -4.298  -4.244   0.716  0.00  0.00    -0.060 S 
ATOM     15  C   UNL     1      -4.705  -4.431  -3.527  0.00  0.00    +0.253 C 
ATOM     16  O   UNL     1      -3.778  -3.856  -4.064  0.00  0.00    -0.270 OA
ATOM     17  N   UNL     1      -5.723  -5.047  -4.152  0.00  0.00    -0.258 N 
ENDROOT
BRANCH  11  18
ATOM     18  C   UNL     1      -1.017  -2.251   0.014  0.00  0.00    +0.126 C 
BRANCH  18  19
ATOM     19  C   UNL     1      -1.327  -0.753   0.027  0.00  0.00    +0.144 C 
BRANCH  19  20
ATOM     20  C   UNL     1      -0.038   0.027   0.023  0.00  0.00    +0.358 C 
ATOM     21  O   UNL     1       1.021  -0.555   0.011  0.00  0.00    -0.246 OA
ATOM     22  O   UNL     1      -0.065   1.369   0.033  0.00  0.00    -0.246 OA
ENDBRANCH  19  20
ENDBRANCH  18  19
ENDBRANCH  11  18
BRANCH  17  23
ATOM     23  C   UNL     1      -5.875  -5.121  -5.607  0.00  0.00    +0.210 C 
BRANCH  23  24
ATOM     24  C   UNL     1      -6.662  -3.931  -6.091  0.00  0.00    +0.235 C 
ATOM     25  O   UNL     1      -7.058  -3.103  -5.298  0.00  0.00    -0.274 OA
ATOM     26  N   UNL     1      -6.927  -3.788  -7.405  0.00  0.00    -0.284 N 
ATOM     27  H   UNL     1      -6.505  -4.497  -8.132  0.00  0.00    +0.155 HD
BRANCH  26  28
ATOM     28  C   UNL     1      -7.740  -2.736  -7.844  0.00  0.00    +0.034 A 
ATOM     29  C   UNL     1      -8.590  -2.920  -8.926  0.00  0.00    +0.025 A 
ATOM     30  C   UNL     1      -9.395  -1.882  -9.354  0.00  0.00    +0.022 A 
ATOM     31  C   UNL     1      -9.345  -0.656  -8.713  0.00  0.00    +0.041 A 
ATOM     32  C   UNL     1      -8.495  -0.469  -7.638  0.00  0.00    +0.022 A 
ATOM     33  C   UNL     1      -7.692  -1.506  -7.202  0.00  0.00    +0.025 A 
ATOM     34 CL   UNL     1     -10.352   0.648  -9.258  0.00  0.00    -0.084 Cl
ENDBRANCH  26  28
ENDBRANCH  23  24
ENDBRANCH  17  23
TORSDOF 6
