REMARK  Name = ZINC26523420
REMARK  9 active torsions:
REMARK  status: ('A' for Active; 'I' for Inactive)
REMARK    1  A    between atoms: C_1  and  C_2
REMARK    2  A    between atoms: C_3  and  N_11
REMARK    3  A    between atoms: C_7  and  N_8
REMARK    4  A    between atoms: C_12  and  C_14
REMARK    5  A    between atoms: C_14  and  C_16
REMARK    6  A    between atoms: C_14  and  S_17
REMARK    7  A    between atoms: S_17  and  C_18
REMARK    8  A    between atoms: C_19  and  C_28
REMARK    9  A    between atoms: C_20  and  C_27
REMARK                            x       y       z     vdW  Elec       q    Type
REMARK                         _______ _______ _______ _____ _____    ______ ____
ROOT
ATOM      1  C   UNL     1       3.531   1.128   3.581  0.00  0.00    +0.136 C 
ATOM      2  C   UNL     1       4.392   2.337   3.207  0.00  0.00    +0.029 C 
ENDROOT
BRANCH   1   4
ATOM      3  N   UNL     1       1.392   1.483   2.392  0.00  0.00    -0.284 N 
ATOM      4  C   UNL     1       2.076   1.518   3.553  0.00  0.00    +0.230 C 
ATOM      5  O   UNL     1       1.521   1.864   4.574  0.00  0.00    -0.274 OA
ATOM      6  H   UNL     1       1.914   1.250   1.452  0.00  0.00    +0.155 HD
BRANCH   3   9
ATOM      7  C   UNL     1       0.182   2.224  -0.075  0.00  0.00    +0.048 C 
ATOM      8  C   UNL     1      -0.614   2.108   1.200  0.00  0.00    +0.001 A 
ATOM      9  C   UNL     1       0.017   1.744   2.382  0.00  0.00    +0.039 A 
ATOM     10  C   UNL     1      -0.719   1.638   3.554  0.00  0.00    +0.024 A 
ATOM     11  C   UNL     1      -2.076   1.895   3.542  0.00  0.00    +0.004 A 
ATOM     12  C   UNL     1      -2.701   2.257   2.363  0.00  0.00    +0.033 A 
ATOM     13  C   UNL     1      -1.970   2.369   1.194  0.00  0.00    +0.131 A 
BRANCH  13  14
ATOM     14  N   UNL     1      -2.642   2.764  -0.064  0.00  0.00    +0.057 N 
ATOM     15  O   UNL     1      -3.804   3.128  -0.045  0.00  0.00    -0.126 OA
ATOM     16  O   UNL     1      -2.032   2.726  -1.118  0.00  0.00    -0.126 OA
ENDBRANCH  13  14
ENDBRANCH   3   9
ENDBRANCH   1   4
BRANCH   1  17
ATOM     17  S   UNL     1       3.972   0.565   5.244  0.00  0.00    -0.092 S 
BRANCH  17  18
ATOM     18  C   UNL     1       5.631   0.043   4.961  0.00  0.00    +0.116 A 
ATOM     19  C   UNL     1       6.389  -0.486   6.021  0.00  0.00    +0.087 A 
ATOM     20  C   UNL     1       7.703  -0.892   5.767  0.00  0.00    -0.026 A 
ATOM     21  C   UNL     1       8.202  -0.756   4.482  0.00  0.00    -0.022 A 
ATOM     22  C   UNL     1       7.398  -0.227   3.487  0.00  0.00    +0.046 A 
ATOM     23  N   UNL     1       6.155   0.145   3.751  0.00  0.00    -0.244 NA
ATOM     24  C   UNL     1       8.168  -0.184   2.183  0.00  0.00    +0.056 C 
ATOM     25  C   UNL     1       9.651  -0.329   2.583  0.00  0.00    +0.011 C 
ATOM     26  C   UNL     1       9.561  -1.102   3.916  0.00  0.00    +0.037 C 
ATOM     27  C   UNL     1       8.558  -1.465   6.868  0.00  0.00    +0.045 C 
BRANCH  19  28
ATOM     28  C   UNL     1       5.827  -0.605   7.333  0.00  0.00    +0.102 C 
ATOM     29  N   UNL     1       5.382  -0.700   8.374  0.00  0.00    -0.191 NA
ENDBRANCH  19  28
ENDBRANCH  17  18
ENDBRANCH   1  17
TORSDOF 6
