REMARK  Name = ZINC66453967
REMARK  5 active torsions:
REMARK  status: ('A' for Active; 'I' for Inactive)
REMARK    1  A    between atoms: C_1  and  C_2
REMARK    2  A    between atoms: C_2  and  C_4
REMARK    3  A    between atoms: C_2  and  N_12
REMARK    4  A    between atoms: N_6  and  C_7
REMARK    5  A    between atoms: C_13  and  C_15
REMARK                            x       y       z     vdW  Elec       q    Type
REMARK                         _______ _______ _______ _____ _____    ______ ____
ROOT
ATOM      1  N   UNL     1       0.711  -0.489   1.189  0.00  0.00    -0.300 N 
ATOM      2  C   UNL     1       2.054  -0.600   1.174  0.00  0.00    +0.246 C 
ATOM      3  O   UNL     1       2.678  -0.296   0.174  0.00  0.00    -0.270 OA
ATOM      4  H   UNL     1       0.213  -0.731   1.986  0.00  0.00    +0.150 HD
ENDROOT
BRANCH   2   5
ATOM      5  C   UNL     1       2.766  -1.088   2.367  0.00  0.00    +0.051 C 
ATOM      6  C   UNL     1       4.135  -1.199   2.366  0.00  0.00    +0.089 C 
ATOM      7  N   UNL     1       4.814  -1.649   3.454  0.00  0.00    -0.288 N 
ATOM      8  C   UNL     1       6.264  -1.788   3.282  0.00  0.00    +0.136 C 
ATOM      9  C   UNL     1       6.997  -1.394   4.568  0.00  0.00    +0.212 C 
ATOM     10  S   UNL     1       6.358  -2.466   5.894  0.00  0.00    +0.073 S 
ATOM     11  O   UNL     1       6.658  -1.911   7.167  0.00  0.00    -0.151 OA
ATOM     12  O   UNL     1       6.638  -3.829   5.607  0.00  0.00    -0.151 OA
ATOM     13  N   UNL     1       4.718  -2.319   5.736  0.00  0.00    -0.118 NA
ATOM     14  C   UNL     1       4.150  -1.954   4.610  0.00  0.00    +0.147 C 
ATOM     15  C   UNL     1       2.724  -1.880   4.652  0.00  0.00    +0.046 C 
ATOM     16  C   UNL     1       2.027  -1.456   3.576  0.00  0.00    +0.018 C 
ENDBRANCH   2   5
BRANCH   1  18
ATOM     17  C   UNL     1      -0.019   1.526   0.010  0.00  0.00    +0.038 C 
ATOM     18  C   UNL     1       0.002  -0.004   0.002  0.00  0.00    +0.156 C 
BRANCH  18  19
ATOM     19  C   UNL     1      -1.412  -0.526   0.013  0.00  0.00    +0.233 C 
ATOM     20  O   UNL     1      -1.790  -1.233   0.922  0.00  0.00    -0.274 OA
ATOM     21  N   UNL     1      -2.256  -0.206  -0.988  0.00  0.00    -0.311 N 
ATOM     22  H   UNL     1      -1.953   0.360  -1.716  0.00  0.00    +0.149 HD
BRANCH  21  23
ATOM     23  C   UNL     1      -3.630  -0.713  -0.978  0.00  0.00    +0.073 C 
ATOM     24  C   UNL     1      -3.689  -2.095  -1.662  0.00  0.00    +0.022 C 
ATOM     25  C   UNL     1      -5.036  -2.084  -2.425  0.00  0.00    +0.002 C 
ATOM     26  C   UNL     1      -5.123  -0.627  -2.944  0.00  0.00    +0.002 C 
ATOM     27  C   UNL     1      -4.542   0.220  -1.794  0.00  0.00    +0.022 C 
ENDBRANCH  21  23
ENDBRANCH  18  19
ENDBRANCH   1  18
TORSDOF 4
