REMARK  Name = ZINC24214655
REMARK  9 active torsions:
REMARK  status: ('A' for Active; 'I' for Inactive)
REMARK    1  A    between atoms: C_1  and  C_2
REMARK    2  A    between atoms: C_3  and  N_11
REMARK    3  A    between atoms: C_7  and  N_8
REMARK    4  A    between atoms: C_12  and  C_14
REMARK    5  A    between atoms: C_14  and  N_15
REMARK    6  A    between atoms: C_21  and  C_23
REMARK    7  A    between atoms: C_24  and  C_35
REMARK    8  A    between atoms: N_26  and  C_29
REMARK    9  A    between atoms: C_27  and  C_28
REMARK                            x       y       z     vdW  Elec       q    Type
REMARK                         _______ _______ _______ _____ _____    ______ ____
ROOT
ATOM      1  N   UNL     1       3.724  -0.075   0.973  0.00  0.00    +0.397 N 
ATOM      2  C   UNL     1       5.108  -0.564   0.861  0.00  0.00    -0.058 C 
ATOM      3  C   UNL     1       5.271  -1.276  -0.483  0.00  0.00    +0.085 C 
ATOM      4  N   UNL     1       4.771  -0.429  -1.562  0.00  0.00    -0.318 N 
ATOM      5  C   UNL     1       3.950   0.606  -1.353  0.00  0.00    +0.204 C 
ATOM      6  O   UNL     1       3.558   1.238  -2.311  0.00  0.00    -0.277 OA
ATOM      7  C   UNL     1       3.493   1.017   0.018  0.00  0.00    +0.054 C 
ATOM      8  H   UNL     1       5.069  -0.630  -2.602  0.00  0.00    +0.149 HD
ATOM      9  H   UNL     1       3.039  -0.901   0.727  0.00  0.00    -0.079 HD
ENDROOT
BRANCH   7  10
ATOM     10  C   UNL     1       2.023   1.345  -0.022  0.00  0.00    -0.009 A 
ATOM     11  C   UNL     1       0.975   0.420  -0.086  0.00  0.00    +0.063 A 
ATOM     12  N   UNL     1      -0.154   1.081  -0.105  0.00  0.00    -0.171 NA
ATOM     13  N   UNL     1       0.139   2.450  -0.052  0.00  0.00    -0.237 N 
ATOM     14  C   UNL     1       1.483   2.586  -0.002  0.00  0.00    +0.044 A 
ATOM     15  C   UNL     1       2.244   3.885   0.064  0.00  0.00    +0.066 C 
ATOM     16  C   UNL     1       1.121  -1.079  -0.128  0.00  0.00    +0.068 C 
BRANCH  13  17
ATOM     17  C   UNL     1      -0.796   3.495  -0.057  0.00  0.00    +0.066 A 
ATOM     18  C   UNL     1      -0.556   4.646   0.681  0.00  0.00    +0.028 A 
ATOM     19  C   UNL     1      -1.477   5.676   0.669  0.00  0.00    +0.002 A 
ATOM     20  C   UNL     1      -2.641   5.556  -0.067  0.00  0.00    +0.000 A 
ATOM     21  C   UNL     1      -2.885   4.409  -0.798  0.00  0.00    +0.002 A 
ATOM     22  C   UNL     1      -1.966   3.378  -0.796  0.00  0.00    +0.028 A 
ENDBRANCH  13  17
ENDBRANCH   7  10
BRANCH   1  23
ATOM     23  C   UNL     1       3.425   0.354   2.345  0.00  0.00    +0.020 C 
BRANCH  23  25
ATOM     24  N   UNL     1       4.399   1.882   4.029  0.00  0.00    -0.287 N 
ATOM     25  C   UNL     1       4.408   1.417   2.764  0.00  0.00    +0.201 C 
ATOM     26  O   UNL     1       5.207   1.853   1.963  0.00  0.00    -0.278 OA
ATOM     27  H   UNL     1       3.725   1.435   4.775  0.00  0.00    +0.155 HD
BRANCH  24  30
ATOM     28  C   UNL     1       3.482   3.729   5.990  0.00  0.00    +0.048 C 
ATOM     29  C   UNL     1       4.838   3.858   5.347  0.00  0.00    +0.001 A 
ATOM     30  C   UNL     1       5.246   2.934   4.393  0.00  0.00    +0.038 A 
ATOM     31  C   UNL     1       6.499   3.053   3.807  0.00  0.00    +0.024 A 
ATOM     32  C   UNL     1       7.332   4.096   4.165  0.00  0.00    +0.004 A 
ATOM     33  C   UNL     1       6.923   5.014   5.115  0.00  0.00    +0.033 A 
ATOM     34  C   UNL     1       5.677   4.895   5.704  0.00  0.00    +0.131 A 
BRANCH  34  35
ATOM     35  N   UNL     1       5.243   5.881   6.720  0.00  0.00    +0.057 N 
ATOM     36  O   UNL     1       5.931   6.859   6.952  0.00  0.00    -0.126 OA
ATOM     37  O   UNL     1       4.199   5.713   7.323  0.00  0.00    -0.126 OA
ENDBRANCH  34  35
ENDBRANCH  24  30
ENDBRANCH  23  25
ENDBRANCH   1  23
TORSDOF 6
