REMARK  Name = ZINC11290506
REMARK  8 active torsions:
REMARK  status: ('A' for Active; 'I' for Inactive)
REMARK    1  A    between atoms: C_1  and  C_2
REMARK    2  A    between atoms: C_4  and  C_26
REMARK    3  A    between atoms: C_6  and  N_13
REMARK    4  A    between atoms: C_14  and  C_16
REMARK    5  A    between atoms: C_16  and  N_45
REMARK    6  A    between atoms: C_17  and  N_45
REMARK    7  A    between atoms: C_18  and  C_19
REMARK    8  A    between atoms: C_18  and  N_45
REMARK                            x       y       z     vdW  Elec       q    Type
REMARK                         _______ _______ _______ _____ _____    ______ ____
ROOT
ATOM      1  N   UNL     1       0.774   0.453  -0.025  0.00  0.00    -0.257 N 
ATOM      2  C   UNL     1       0.504   1.773  -0.002  0.00  0.00    +0.203 C 
ATOM      3  O   UNL     1       1.411   2.578  -0.036  0.00  0.00    -0.277 OA
ATOM      4  H   UNL     1       0.050  -0.191   0.002  0.00  0.00    +0.158 HD
ENDROOT
BRANCH   1  10
ATOM      5  C   UNL     1       6.210  -2.532  -0.296  0.00  0.00    +0.068 C 
ATOM      6  C   UNL     1       4.704  -2.519  -0.228  0.00  0.00    +0.070 A 
ATOM      7  C   UNL     1       3.980  -1.245  -0.185  0.00  0.00    +0.053 A 
ATOM      8  C   UNL     1       4.303   0.066  -0.189  0.00  0.00    +0.114 A 
ATOM      9  O   UNL     1       3.176   0.798  -0.137  0.00  0.00    -0.445 OA
ATOM     10  C   UNL     1       2.087   0.015  -0.088  0.00  0.00    +0.206 A 
ATOM     11  C   UNL     1       2.499  -1.295  -0.118  0.00  0.00    +0.110 A 
ATOM     12  C   UNL     1       1.868  -2.610  -0.100  0.00  0.00    +0.277 A 
ATOM     13  O   UNL     1       0.655  -2.717  -0.045  0.00  0.00    -0.266 OA
ATOM     14  N   UNL     1       2.654  -3.707  -0.144  0.00  0.00    -0.242 N 
ATOM     15  H   UNL     1       2.233  -4.581  -0.132  0.00  0.00    +0.192 HD
ATOM     16  N   UNL     1       4.043  -3.635  -0.207  0.00  0.00    -0.175 NA
ATOM     17  C   UNL     1       5.703   0.620  -0.248  0.00  0.00    +0.087 C 
ENDBRANCH   1  10
BRANCH   2  18
ATOM     18  C   UNL     1      -0.924   2.249   0.060  0.00  0.00    +0.019 C 
BRANCH  18  20
ATOM     19  C   UNL     1      -0.455   4.266  -1.194  0.00  0.00    -0.095 C 
ATOM     20  N   UNL     1      -0.933   3.726   0.096  0.00  0.00    +0.386 N 
ATOM     21  H   UNL     1      -0.307   4.046   0.844  0.00  0.00    -0.081 HD
BRANCH  20  22
ATOM     22  C   UNL     1      -2.300   4.216   0.373  0.00  0.00    -0.042 C 
BRANCH  22  23
ATOM     23  C   UNL     1      -2.586   4.046   1.842  0.00  0.00    -0.050 A 
ATOM     24  C   UNL     1      -3.430   3.038   2.270  0.00  0.00    +0.003 A 
ATOM     25  C   UNL     1      -3.689   2.879   3.618  0.00  0.00    +0.000 A 
ATOM     26  C   UNL     1      -3.111   3.733   4.539  0.00  0.00    +0.001 A 
ATOM     27  C   UNL     1      -2.271   4.744   4.112  0.00  0.00    +0.015 A 
ATOM     28  C   UNL     1      -2.008   4.901   2.763  0.00  0.00    +0.019 A 
ATOM     29 BR   UNL     1      -0.859   6.284   2.178  0.00  0.00    -0.050 Br
ENDBRANCH  22  23
ENDBRANCH  20  22
ENDBRANCH  18  20
ENDBRANCH   2  18
TORSDOF 5
