REMARK  Name = ZINC16489002
REMARK  5 active torsions:
REMARK  status: ('A' for Active; 'I' for Inactive)
REMARK    1  A    between atoms: C_4  and  N_7
REMARK    2  A    between atoms: N_10  and  C_25
REMARK    3  A    between atoms: C_11  and  C_12
REMARK    4  A    between atoms: C_12  and  C_13
REMARK    5  A    between atoms: N_17  and  C_18
REMARK                            x       y       z     vdW  Elec       q    Type
REMARK                         _______ _______ _______ _____ _____    ______ ____
ROOT
ATOM      1  N   UNL     1       3.176   4.349   0.328  0.00  0.00    -0.309 N 
ATOM      2  C   UNL     1       3.666   5.755   0.345  0.00  0.00    +0.126 C 
ATOM      3  C   UNL     1       3.761   6.085  -1.165  0.00  0.00    +0.126 C 
ATOM      4  N   UNL     1       4.219   4.812  -1.771  0.00  0.00    -0.309 N 
ATOM      5  C   UNL     1       3.856   3.733  -0.832  0.00  0.00    +0.169 C 
ENDROOT
BRANCH   1   9
ATOM      6  C   UNL     1       4.170   2.379   3.859  0.00  0.00    +0.000 A 
ATOM      7  C   UNL     1       5.151   2.655   2.923  0.00  0.00    +0.002 A 
ATOM      8  C   UNL     1       4.824   3.308   1.751  0.00  0.00    +0.023 A 
ATOM      9  C   UNL     1       3.510   3.688   1.512  0.00  0.00    +0.031 A 
ATOM     10  C   UNL     1       2.529   3.414   2.457  0.00  0.00    +0.023 A 
ATOM     11  C   UNL     1       2.861   2.756   3.624  0.00  0.00    +0.002 A 
ENDBRANCH   1   9
BRANCH   4  12
ATOM     12  C   UNL     1       3.626   4.611  -3.019  0.00  0.00    +0.031 A 
ATOM     13  C   UNL     1       4.389   4.154  -4.086  0.00  0.00    +0.023 A 
ATOM     14  C   UNL     1       3.799   3.951  -5.318  0.00  0.00    +0.002 A 
ATOM     15  C   UNL     1       2.452   4.212  -5.493  0.00  0.00    +0.000 A 
ATOM     16  C   UNL     1       1.691   4.671  -4.434  0.00  0.00    +0.002 A 
ATOM     17  C   UNL     1       2.273   4.871  -3.198  0.00  0.00    +0.023 A 
ENDBRANCH   4  12
BRANCH   5  18
ATOM     18  C   UNL     1       2.912   2.745  -1.520  0.00  0.00    +0.120 C 
BRANCH  18  19
ATOM     19  C   UNL     1       2.623   1.595  -0.590  0.00  0.00    +0.160 A 
ATOM     20  N   UNL     1       3.456   0.648  -0.246  0.00  0.00    -0.113 NA
ATOM     21  N   UNL     1       2.895  -0.178   0.562  0.00  0.00    -0.023 NA
ATOM     22  N   UNL     1       1.679   0.183   0.793  0.00  0.00    -0.039 NA
ATOM     23  N   UNL     1       1.456   1.352   0.044  0.00  0.00    -0.197 N 
BRANCH  23  24
ATOM     24  C   UNL     1       0.275   2.106  -0.026  0.00  0.00    +0.069 A 
ATOM     25  C   UNL     1      -0.954   1.467  -0.115  0.00  0.00    +0.029 A 
ATOM     26  C   UNL     1      -2.115   2.212  -0.188  0.00  0.00    +0.016 A 
ATOM     27  C   UNL     1      -2.054   3.594  -0.163  0.00  0.00    +0.014 A 
ATOM     28  C   UNL     1      -0.830   4.233  -0.074  0.00  0.00    +0.016 A 
ATOM     29  C   UNL     1       0.334   3.493  -0.006  0.00  0.00    +0.029 A 
ATOM     30  I   UNL     1      -3.817   4.721  -0.268  0.00  0.00    -0.044 I 
ENDBRANCH  23  24
ENDBRANCH  18  19
ENDBRANCH   5  18
TORSDOF 5
