REMARK  Name = ZINC39943301
REMARK  7 active torsions:
REMARK  status: ('A' for Active; 'I' for Inactive)
REMARK    1  A    between atoms: C_1  and  C_2
REMARK    2  A    between atoms: C_5  and  C_19
REMARK    3  A    between atoms: C_6  and  C_18
REMARK    4  A    between atoms: N_8  and  C_9
REMARK    5  A    between atoms: C_13  and  N_15
REMARK    6  A    between atoms: C_20  and  C_21
REMARK    7  A    between atoms: C_20  and  C_23
REMARK                            x       y       z     vdW  Elec       q    Type
REMARK                         _______ _______ _______ _____ _____    ______ ____
ROOT
ATOM      1  C   UNL     1       0.505   2.172  -0.909  0.00  0.00    +0.032 C 
ATOM      2  C   UNL     1       0.249   0.667  -0.806  0.00  0.00    +0.094 C 
ATOM      3  C   UNL     1       1.099  -0.066  -1.810  0.00  0.00    +0.000 C 
ATOM      4  C   UNL     1       1.915  -0.905  -1.179  0.00  0.00    -0.028 C 
ATOM      5  C   UNL     1       1.688  -0.813   0.307  0.00  0.00    +0.101 C 
ATOM      6  N   UNL     1       0.629   0.185   0.528  0.00  0.00    -0.317 N 
ATOM      7  C   UNL     1       1.245  -2.173   0.850  0.00  0.00    +0.033 C 
ENDROOT
BRANCH   6   8
ATOM      8  C   UNL     1       0.096   0.593   1.753  0.00  0.00    +0.033 A 
ATOM      9  C   UNL     1       0.570   0.042   2.937  0.00  0.00    +0.023 A 
ATOM     10  C   UNL     1       0.041   0.447   4.146  0.00  0.00    +0.004 A 
ATOM     11  C   UNL     1      -0.961   1.400   4.180  0.00  0.00    +0.033 A 
ATOM     12  C   UNL     1      -1.436   1.950   3.003  0.00  0.00    +0.128 A 
ATOM     13  C   UNL     1      -0.907   1.553   1.791  0.00  0.00    +0.055 A 
BRANCH  12  14
ATOM     14  N   UNL     1      -2.508   2.969   3.044  0.00  0.00    +0.056 N 
ATOM     15  O   UNL     1      -2.969   3.320   4.106  0.00  0.00    -0.126 OA
ATOM     16  O   UNL     1      -2.924   3.450   2.016  0.00  0.00    -0.126 OA
ENDBRANCH  12  14
ENDBRANCH   6   8
BRANCH   4  17
ATOM     17  C   UNL     1       2.886  -1.785  -1.831  0.00  0.00    +0.023 C 
ATOM     18  C   UNL     1       2.478  -2.654  -2.782  0.00  0.00    +0.072 C 
BRANCH  18  19
ATOM     19  C   UNL     1       1.009  -2.817  -3.075  0.00  0.00    +0.216 C 
ATOM     20  N   UNL     1       0.658  -4.242  -3.115  0.00  0.00    -0.359 N 
ATOM     21  C   UNL     1       0.202  -4.498  -4.307  0.00  0.00    +0.060 A 
ATOM     22  C   UNL     1      -0.299  -5.725  -4.942  0.00  0.00    +0.027 A 
ATOM     23  C   UNL     1      -0.715  -5.688  -6.224  0.00  0.00    +0.002 A 
ATOM     24  C   UNL     1      -0.691  -4.513  -6.995  0.00  0.00    +0.002 A 
ATOM     25  C   UNL     1      -0.250  -3.334  -6.511  0.00  0.00    +0.027 A 
ATOM     26  C   UNL     1       0.227  -3.254  -5.123  0.00  0.00    +0.060 A 
ATOM     27  N   UNL     1       0.698  -2.276  -4.404  0.00  0.00    -0.359 N 
ATOM     28  H   UNL     1       0.749  -4.876  -2.387  0.00  0.00    +0.162 HD
ATOM     29  H   UNL     1       0.819  -1.358  -4.694  0.00  0.00    +0.162 HD
ENDBRANCH  18  19
BRANCH  18  30
ATOM     30  C   UNL     1       3.443  -3.421  -3.512  0.00  0.00    +0.099 C 
ATOM     31  N   UNL     1       4.208  -4.029  -4.091  0.00  0.00    -0.191 NA
ENDBRANCH  18  30
ENDBRANCH   4  17
TORSDOF 5
