REMARK  Name = ZINC02365643
REMARK  11 active torsions:
REMARK  status: ('A' for Active; 'I' for Inactive)
REMARK    1  A    between atoms: C_1  and  C_2
REMARK    2  A    between atoms: C_2  and  C_3
REMARK    3  A    between atoms: C_2  and  C_4
REMARK    4  A    between atoms: C_10  and  N_14
REMARK    5  A    between atoms: N_14  and  C_15
REMARK    6  A    between atoms: C_15  and  C_16
REMARK    7  A    between atoms: C_16  and  N_57
REMARK    8  A    between atoms: C_17  and  N_57
REMARK    9  A    between atoms: C_18  and  N_57
REMARK   10  A    between atoms: C_23  and  C_26
REMARK   11  A    between atoms: C_23  and  C_27
REMARK                            x       y       z     vdW  Elec       q    Type
REMARK                         _______ _______ _______ _____ _____    ______ ____
ROOT
ATOM      1  C   UNL     1       0.000   1.080   2.488  0.00  0.00    +0.053 A 
ATOM      2  C   UNL     1       0.522   1.998   3.388  0.00  0.00    +0.004 A 
ATOM      3  C   UNL     1       1.181   1.538   4.508  0.00  0.00    -0.023 A 
ATOM      4  C   UNL     1       1.308   0.161   4.682  0.00  0.00    +0.070 A 
ATOM      5  C   UNL     1       1.926  -0.696   5.706  0.00  0.00    +0.124 A 
ATOM      6  C   UNL     1       1.700  -2.010   5.282  0.00  0.00    +0.196 A 
ATOM      7  C   UNL     1       2.188  -3.049   6.084  0.00  0.00    +0.165 A 
ATOM      8  N   UNL     1       2.839  -2.742   7.201  0.00  0.00    -0.217 NA
ATOM      9  C   UNL     1       3.030  -1.487   7.561  0.00  0.00    +0.224 A 
ATOM     10  N   UNL     1       2.588  -0.478   6.839  0.00  0.00    -0.231 NA
ATOM     11  O   UNL     1       1.016  -1.980   4.120  0.00  0.00    -0.432 OA
ATOM     12  C   UNL     1       0.762  -0.713   3.728  0.00  0.00    +0.231 A 
ATOM     13  N   UNL     1       0.131  -0.216   2.672  0.00  0.00    -0.216 NA
ATOM     14  C   UNL     1       1.757   2.483   5.527  0.00  0.00    +0.070 C 
ATOM     15  C   UNL     1       1.863   3.887   4.928  0.00  0.00    +0.068 C 
ATOM     16  O   UNL     1       0.610   4.216   4.317  0.00  0.00    -0.369 OA
ATOM     17  C   UNL     1       0.350   3.470   3.127  0.00  0.00    +0.197 C 
ATOM     18  C   UNL     1       2.176   4.896   6.034  0.00  0.00    +0.041 C 
ATOM     19  C   UNL     1       2.974   3.915   3.877  0.00  0.00    +0.041 C 
ENDROOT
BRANCH   1  21
ATOM     20  C   UNL     1      -0.013   1.086   0.008  0.00  0.00    +0.014 C 
ATOM     21  C   UNL     1      -0.729   1.579   1.267  0.00  0.00    +0.032 C 
ATOM     22  C   UNL     1      -2.164   1.050   1.278  0.00  0.00    +0.014 C 
ENDBRANCH   1  21
BRANCH   7  23
ATOM     23  N   UNL     1       1.995  -4.373   5.719  0.00  0.00    -0.328 N 
ATOM     24  H   UNL     1       1.518  -4.586   4.902  0.00  0.00    +0.147 HD
BRANCH  23  25
ATOM     25  C   UNL     1       2.512  -5.449   6.568  0.00  0.00    +0.084 C 
BRANCH  25  26
ATOM     26  C   UNL     1       2.167  -6.802   5.943  0.00  0.00    -0.061 C 
BRANCH  26  29
ATOM     27  C   UNL     1       2.173  -9.187   6.359  0.00  0.00    -0.097 C 
ATOM     28  C   UNL     1       4.153  -7.872   6.820  0.00  0.00    -0.097 C 
ATOM     29  N   UNL     1       2.675  -7.877   6.822  0.00  0.00    +0.377 N 
ATOM     30  H   UNL     1       2.342  -7.711   7.779  0.00  0.00    -0.083 HD
ENDBRANCH  26  29
ENDBRANCH  25  26
ENDBRANCH  23  25
ENDBRANCH   7  23
TORSDOF 5
