REMARK  Name = ZINC35396485
REMARK  11 active torsions:
REMARK  status: ('A' for Active; 'I' for Inactive)
REMARK    1  A    between atoms: C_1  and  C_2
REMARK    2  A    between atoms: C_2  and  O_3
REMARK    3  A    between atoms: O_3  and  C_4
REMARK    4  A    between atoms: C_4  and  C_6
REMARK    5  A    between atoms: C_7  and  C_25
REMARK    6  A    between atoms: C_8  and  C_24
REMARK    7  A    between atoms: C_10  and  N_11
REMARK    8  A    between atoms: C_12  and  C_13
REMARK    9  A    between atoms: C_15  and  N_21
REMARK   10  A    between atoms: C_17  and  C_20
REMARK   11  A    between atoms: C_18  and  O_19
REMARK                            x       y       z     vdW  Elec       q    Type
REMARK                         _______ _______ _______ _____ _____    ______ ____
ROOT
ATOM      1  N   UNL     1      -0.576  -2.470  -3.954  0.00  0.00    -0.247 NA
ATOM      2  C   UNL     1      -1.054  -2.795  -5.128  0.00  0.00    +0.123 C 
ENDROOT
BRANCH   1   7
ATOM      3  C   UNL     1       1.449  -2.344  -2.517  0.00  0.00    +0.095 A 
ATOM      4  C   UNL     1       2.818  -2.608  -2.513  0.00  0.00    -0.024 A 
ATOM      5  C   UNL     1       3.399  -3.109  -3.623  0.00  0.00    -0.008 A 
ATOM      6  S   UNL     1       2.031  -3.244  -4.761  0.00  0.00    -0.073 S 
ATOM      7  C   UNL     1       0.740  -2.627  -3.695  0.00  0.00    +0.116 A 
ATOM      8  C   UNL     1       4.846  -3.466  -3.847  0.00  0.00    +0.052 C 
ATOM      9  C   UNL     1       3.642  -2.334  -1.281  0.00  0.00    +0.045 C 
BRANCH   3  10
ATOM     10  C   UNL     1       0.776  -1.800  -1.335  0.00  0.00    +0.342 C 
ATOM     11  O   UNL     1       0.312  -2.552  -0.499  0.00  0.00    -0.245 OA
BRANCH  10  12
ATOM     12  O   UNL     1       0.671  -0.465  -1.174  0.00  0.00    -0.461 OA
BRANCH  12  14
ATOM     13  C   UNL     1      -0.019   1.526   0.010  0.00  0.00    +0.048 C 
ATOM     14  C   UNL     1       0.002  -0.004   0.002  0.00  0.00    +0.229 C 
ENDBRANCH  12  14
ENDBRANCH  10  12
ENDBRANCH   3  10
ENDBRANCH   1   7
BRANCH   2  15
ATOM     15  C   UNL     1      -2.485  -2.625  -5.410  0.00  0.00    +0.037 A 
ATOM     16  C   UNL     1      -3.002  -2.976  -6.663  0.00  0.00    +0.045 A 
ATOM     17  C   UNL     1      -4.346  -2.814  -6.920  0.00  0.00    +0.127 A 
ATOM     18  C   UNL     1      -5.189  -2.305  -5.944  0.00  0.00    +0.039 A 
ATOM     19  C   UNL     1      -4.692  -1.954  -4.704  0.00  0.00    -0.006 A 
ATOM     20  C   UNL     1      -3.344  -2.115  -4.424  0.00  0.00    +0.128 A 
ATOM     21  C   UNL     1      -5.618  -1.401  -3.652  0.00  0.00    +0.047 C 
BRANCH  17  22
ATOM     22  N   UNL     1      -4.893  -3.186  -8.244  0.00  0.00    +0.056 N 
ATOM     23  O   UNL     1      -4.160  -3.630  -9.097  0.00  0.00    -0.126 OA
ATOM     24  O   UNL     1      -6.071  -3.045  -8.473  0.00  0.00    -0.126 OA
ENDBRANCH  17  22
BRANCH  20  25
ATOM     25  O   UNL     1      -2.857  -1.775  -3.204  0.00  0.00    -0.506 OA
ATOM     26  H   UNL     1      -2.561  -0.857  -3.140  0.00  0.00    +0.292 HD
ENDBRANCH  20  25
ENDBRANCH   2  15
TORSDOF 7
