REMARK  Name = ZINC20155558
REMARK  8 active torsions:
REMARK  status: ('A' for Active; 'I' for Inactive)
REMARK    1  A    between atoms: C_1  and  C_2
REMARK    2  A    between atoms: C_2  and  O_3
REMARK    3  A    between atoms: O_3  and  C_4
REMARK    4  A    between atoms: C_9  and  O_10
REMARK    5  A    between atoms: O_10  and  C_11
REMARK    6  A    between atoms: C_11  and  C_12
REMARK    7  A    between atoms: C_15  and  C_28
REMARK    8  A    between atoms: N_33  and  C_36
REMARK                            x       y       z     vdW  Elec       q    Type
REMARK                         _______ _______ _______ _____ _____    ______ ____
ROOT
ATOM      1  C   UNL     1       2.538   2.910  -5.680  0.00  0.00    +0.162 A 
ATOM      2  C   UNL     1       1.836   4.017  -5.240  0.00  0.00    +0.053 A 
ATOM      3  C   UNL     1       2.095   4.566  -3.991  0.00  0.00    -0.037 A 
ATOM      4  C   UNL     1       3.061   4.011  -3.183  0.00  0.00    -0.019 A 
ATOM      5  C   UNL     1       3.768   2.897  -3.622  0.00  0.00    +0.055 A 
ATOM      6  C   UNL     1       3.512   2.345  -4.863  0.00  0.00    +0.162 A 
ATOM      7  C   UNL     1       3.397   4.560  -1.824  0.00  0.00    +0.123 C 
ATOM      8  C   UNL     1       3.183   3.455  -0.788  0.00  0.00    +0.131 C 
ATOM      9  C   UNL     1       3.406   3.991   0.601  0.00  0.00    -0.021 A 
ATOM     10  C   UNL     1       3.931   3.191   1.592  0.00  0.00    +0.005 A 
ATOM     11  C   UNL     1       4.114   3.701   2.866  0.00  0.00    +0.000 A 
ATOM     12  C   UNL     1       3.770   5.011   3.152  0.00  0.00    +0.001 A 
ATOM     13  C   UNL     1       3.248   5.823   2.165  0.00  0.00    +0.013 A 
ATOM     14  C   UNL     1       3.068   5.316   0.879  0.00  0.00    +0.041 A 
ATOM     15  C   UNL     1       2.528   6.159  -0.204  0.00  0.00    +0.247 C 
ATOM     16  O   UNL     1       1.984   7.214   0.059  0.00  0.00    -0.270 OA
ATOM     17  N   UNL     1       2.640   5.755  -1.494  0.00  0.00    -0.289 N 
ATOM     18  C   UNL     1       2.009   6.584  -2.516  0.00  0.00    +0.113 C 
ATOM     19  C   UNL     1       1.293   5.762  -3.566  0.00  0.00    +0.054 C 
ENDROOT
BRANCH   8  20
ATOM     20  C   UNL     1       1.774   2.932  -0.900  0.00  0.00    +0.225 C 
ATOM     21  O   UNL     1       0.899   3.640  -1.352  0.00  0.00    -0.275 OA
ATOM     22  N   UNL     1       1.487   1.678  -0.499  0.00  0.00    -0.298 N 
ATOM     23  C   UNL     1       0.100   1.187  -0.492  0.00  0.00    +0.123 C 
ATOM     24  C   UNL     1       0.054  -0.150  -1.239  0.00  0.00    +0.103 C 
ATOM     25  N   UNL     1       1.041  -1.068  -0.655  0.00  0.00    -0.296 NA
ATOM     26  C   UNL     1       2.408  -0.556  -0.820  0.00  0.00    +0.103 C 
ATOM     27  C   UNL     1       2.551   0.765  -0.056  0.00  0.00    +0.123 C 
BRANCH  25  28
ATOM     28  C   UNL     1       0.911  -2.415  -1.228  0.00  0.00    +0.057 C 
ATOM     29  C   UNL     1      -0.445  -3.006  -0.837  0.00  0.00    +0.019 C 
ATOM     30  C   UNL     1      -0.580  -4.409  -1.433  0.00  0.00    +0.002 C 
ATOM     31  C   UNL     1       0.540  -5.302  -0.895  0.00  0.00    +0.000 C 
ATOM     32  C   UNL     1       1.896  -4.710  -1.286  0.00  0.00    +0.002 C 
ATOM     33  C   UNL     1       2.031  -3.308  -0.690  0.00  0.00    +0.019 C 
ENDBRANCH  25  28
ENDBRANCH   8  20
BRANCH   1  34
ATOM     34  O   UNL     1       2.278   2.377  -6.904  0.00  0.00    -0.489 OA
BRANCH  34  36
ATOM     35  C   UNL     1       1.115   2.277  -9.020  0.00  0.00    +0.048 C 
ATOM     36  C   UNL     1       1.264   3.011  -7.686  0.00  0.00    +0.226 C 
ENDBRANCH  34  36
ENDBRANCH   1  34
BRANCH   6  37
ATOM     37  O   UNL     1       4.208   1.254  -5.282  0.00  0.00    -0.489 OA
BRANCH  37  38
ATOM     38  C   UNL     1       5.192   0.729  -4.389  0.00  0.00    +0.226 C 
ATOM     39  C   UNL     1       5.865  -0.486  -5.029  0.00  0.00    +0.048 C 
ENDBRANCH  37  38
ENDBRANCH   6  37
TORSDOF 6
