REMARK  Name = ZINC06135189
REMARK  7 active torsions:
REMARK  status: ('A' for Active; 'I' for Inactive)
REMARK    1  A    between atoms: C_1  and  C_2
REMARK    2  A    between atoms: C_2  and  C_3
REMARK    3  A    between atoms: C_10  and  C_15
REMARK    4  A    between atoms: C_15  and  C_17
REMARK    5  A    between atoms: C_15  and  N_69
REMARK    6  A    between atoms: N_21  and  C_22
REMARK    7  A    between atoms: N_29  and  C_32
REMARK                            x       y       z     vdW  Elec       q    Type
REMARK                         _______ _______ _______ _____ _____    ______ ____
ROOT
ATOM      1  C   UNL     1      -6.203  -0.532  -1.033  0.00  0.00    +0.039 C 
ENDROOT
BRANCH   1   9
ATOM      2  C   UNL     1      -7.057  -5.542  -4.564  0.00  0.00    -0.047 A 
ATOM      3  C   UNL     1      -6.814  -4.918  -5.780  0.00  0.00    +0.005 A 
ATOM      4  C   UNL     1      -6.503  -3.576  -5.833  0.00  0.00    +0.026 A 
ATOM      5  C   UNL     1      -6.430  -2.838  -4.656  0.00  0.00    +0.049 A 
ATOM      6  C   UNL     1      -6.677  -3.473  -3.425  0.00  0.00    -0.001 A 
ATOM      7  C   UNL     1      -6.992  -4.836  -3.396  0.00  0.00    +0.013 A 
ATOM      8  C   UNL     1      -6.599  -2.687  -2.192  0.00  0.00    +0.017 A 
ATOM      9  C   UNL     1      -6.291  -1.370  -2.283  0.00  0.00    +0.011 A 
ATOM     10  C   UNL     1      -6.058  -0.779  -3.543  0.00  0.00    +0.251 A 
ATOM     11  O   UNL     1      -5.787   0.407  -3.602  0.00  0.00    -0.268 OA
ATOM     12  N   UNL     1      -6.122  -1.494  -4.680  0.00  0.00    -0.322 N 
ATOM     13  H   UNL     1      -5.943  -1.045  -5.556  0.00  0.00    +0.169 HD
BRANCH   2  15
ATOM     14  C   UNL     1      -8.912  -7.186  -4.636  0.00  0.00    +0.009 C 
ATOM     15  C   UNL     1      -7.395  -7.010  -4.531  0.00  0.00    +0.032 C 
ENDBRANCH   2  15
ENDBRANCH   1   9
BRANCH   1  21
ATOM     16  C   UNL     1      -4.700   0.784   0.336  0.00  0.00    -0.058 C 
ATOM     17  C   UNL     1      -3.313   1.429   0.378  0.00  0.00    +0.086 C 
ATOM     18  N   UNL     1      -2.286   0.384   0.260  0.00  0.00    -0.333 N 
ATOM     19  C   UNL     1      -2.440  -0.361  -0.998  0.00  0.00    +0.086 C 
ATOM     20  C   UNL     1      -3.828  -1.006  -1.040  0.00  0.00    -0.058 C 
ATOM     21  N   UNL     1      -4.850   0.058  -0.942  0.00  0.00    +0.391 N 
ATOM     22  H   UNL     1      -4.721   0.717  -1.718  0.00  0.00    -0.080 HD
BRANCH  18  23
ATOM     23  C   UNL     1      -1.004   0.927   0.366  0.00  0.00    +0.031 A 
ATOM     24  C   UNL     1       0.111   0.103   0.280  0.00  0.00    +0.023 A 
ATOM     25  C   UNL     1       1.377   0.643   0.379  0.00  0.00    +0.003 A 
ATOM     26  C   UNL     1       1.538   2.004   0.570  0.00  0.00    +0.020 A 
ATOM     27  C   UNL     1       0.429   2.828   0.662  0.00  0.00    +0.043 A 
ATOM     28  C   UNL     1      -0.841   2.292   0.563  0.00  0.00    +0.043 A 
ATOM     29 CL   UNL     1       0.635   4.535   0.901  0.00  0.00    -0.083 Cl
ENDBRANCH  18  23
ENDBRANCH   1  21
BRANCH   1  30
ATOM     30  C   UNL     1      -6.484  -1.394   0.171  0.00  0.00    +0.143 A 
ATOM     31  N   UNL     1      -5.676  -2.274   0.709  0.00  0.00    -0.115 NA
ATOM     32  N   UNL     1      -6.279  -2.803   1.718  0.00  0.00    -0.023 NA
ATOM     33  N   UNL     1      -7.450  -2.282   1.837  0.00  0.00    -0.044 NA
ATOM     34  N   UNL     1      -7.612  -1.405   0.905  0.00  0.00    -0.227 N 
BRANCH  34  35
ATOM     35  C   UNL     1      -8.802  -0.580   0.684  0.00  0.00    +0.111 C 
ATOM     36  C   UNL     1      -9.105   0.258   1.943  0.00  0.00    +0.027 C 
ATOM     37  C   UNL     1     -10.652   0.277   2.023  0.00  0.00    +0.002 C 
ATOM     38  C   UNL     1     -11.036  -1.154   1.570  0.00  0.00    +0.002 C 
ATOM     39  C   UNL     1     -10.030  -1.477   0.447  0.00  0.00    +0.027 C 
ENDBRANCH  34  35
ENDBRANCH   1  30
TORSDOF 6
