REMARK  Name = ZINC15776868
REMARK  5 active torsions:
REMARK  status: ('A' for Active; 'I' for Inactive)
REMARK    1  A    between atoms: C_1  and  C_2
REMARK    2  A    between atoms: N_9  and  N_10
REMARK    3  A    between atoms: N_21  and  C_22
REMARK    4  A    between atoms: N_30  and  C_31
REMARK    5  A    between atoms: C_31  and  C_32
REMARK                            x       y       z     vdW  Elec       q    Type
REMARK                         _______ _______ _______ _____ _____    ______ ____
ROOT
ATOM      1  N   UNL     1      -0.933  -4.024   4.623  0.00  0.00    -0.205 N 
ATOM      2  C   UNL     1      -0.427  -3.808   5.886  0.00  0.00    +0.223 A 
ATOM      3  N   UNL     1      -0.379  -2.581   6.336  0.00  0.00    -0.214 NA
ATOM      4  C   UNL     1       0.106  -2.296   7.568  0.00  0.00    +0.080 A 
ATOM      5  C   UNL     1       0.157  -0.985   8.050  0.00  0.00    +0.028 A 
ATOM      6  C   UNL     1       0.653  -0.740   9.299  0.00  0.00    +0.002 A 
ATOM      7  C   UNL     1       1.111  -1.776  10.103  0.00  0.00    +0.001 A 
ATOM      8  C   UNL     1       1.074  -3.078   9.656  0.00  0.00    +0.015 A 
ATOM      9  C   UNL     1       0.571  -3.352   8.384  0.00  0.00    +0.065 A 
ATOM     10  C   UNL     1       0.506  -4.721   7.854  0.00  0.00    +0.267 A 
ATOM     11  O   UNL     1       0.891  -5.671   8.510  0.00  0.00    -0.267 OA
ATOM     12  N   UNL     1      -0.004  -4.886   6.611  0.00  0.00    -0.247 N 
ATOM     13  H   UNL     1      -0.910  -4.914   4.237  0.00  0.00    +0.177 HD
ENDROOT
BRANCH   1  22
ATOM     14  C   UNL     1      -3.688   1.347   0.958  0.00  0.00    +0.044 C 
ATOM     15  C   UNL     1      -3.420  -0.132   0.846  0.00  0.00    -0.050 A 
ATOM     16  C   UNL     1      -3.776  -0.814  -0.305  0.00  0.00    +0.005 A 
ATOM     17  C   UNL     1      -3.537  -2.168  -0.422  0.00  0.00    +0.024 A 
ATOM     18  C   UNL     1      -2.933  -2.863   0.620  0.00  0.00    +0.046 A 
ATOM     19  C   UNL     1      -2.573  -2.169   1.783  0.00  0.00    +0.029 A 
ATOM     20  C   UNL     1      -2.813  -0.803   1.889  0.00  0.00    +0.015 A 
ATOM     21  C   UNL     1      -1.962  -3.165   2.692  0.00  0.00    +0.153 C 
ATOM     22  N   UNL     1      -1.480  -2.959   3.895  0.00  0.00    -0.174 NA
ATOM     23  C   UNL     1      -2.012  -4.439   1.951  0.00  0.00    +0.272 C 
ATOM     24  O   UNL     1      -1.607  -5.516   2.349  0.00  0.00    -0.268 OA
ATOM     25  N   UNL     1      -2.585  -4.202   0.759  0.00  0.00    -0.262 N 
BRANCH  25  26
ATOM     26  C   UNL     1      -2.813  -5.224  -0.266  0.00  0.00    +0.140 C 
BRANCH  26  27
ATOM     27  C   UNL     1      -1.613  -5.300  -1.175  0.00  0.00    -0.015 C 
ATOM     28  C   UNL     1      -1.002  -6.444  -1.359  0.00  0.00    +0.005 C 
ENDBRANCH  26  27
ENDBRANCH  25  26
ENDBRANCH   1  22
BRANCH  12  29
ATOM     29  C   UNL     1      -0.092  -6.171   6.062  0.00  0.00    +0.053 A 
ATOM     30  C   UNL     1       0.971  -6.693   5.336  0.00  0.00    +0.026 A 
ATOM     31  C   UNL     1       0.880  -7.960   4.795  0.00  0.00    +0.002 A 
ATOM     32  C   UNL     1      -0.267  -8.711   4.977  0.00  0.00    +0.000 A 
ATOM     33  C   UNL     1      -1.327  -8.194   5.699  0.00  0.00    +0.002 A 
ATOM     34  C   UNL     1      -1.241  -6.930   6.247  0.00  0.00    +0.026 A 
ENDBRANCH  12  29
TORSDOF 4
