REMARK  Name = ZINC12866682
REMARK  5 active torsions:
REMARK  status: ('A' for Active; 'I' for Inactive)
REMARK    1  A    between atoms: C_8  and  C_10
REMARK    2  A    between atoms: C_15  and  C_16
REMARK    3  A    between atoms: C_15  and  N_56
REMARK    4  A    between atoms: N_18  and  C_19
REMARK    5  A    between atoms: N_23  and  C_24
REMARK                            x       y       z     vdW  Elec       q    Type
REMARK                         _______ _______ _______ _____ _____    ______ ____
ROOT
ATOM      1  C   UNL     1       1.667   3.232   0.003  0.00  0.00    +0.072 C 
ATOM      2  C   UNL     1       2.496   3.530  -1.249  0.00  0.00    -0.006 C 
ATOM      3  C   UNL     1       2.963   4.987  -1.210  0.00  0.00    -0.077 C 
ATOM      4  C   UNL     1       2.980   4.977   1.213  0.00  0.00    -0.077 C 
ATOM      5  C   UNL     1       2.513   3.520   1.246  0.00  0.00    -0.006 C 
ATOM      6  N   UNL     1       3.792   5.193  -0.003  0.00  0.00    +0.385 N 
ATOM      7  H   UNL     1       4.565   4.517  -0.011  0.00  0.00    -0.081 HD
ENDROOT
BRANCH   1  15
ATOM      8  C   UNL     1       0.706  -2.687  -0.018  0.00  0.00    +0.002 A 
ATOM      9  C   UNL     1      -0.630  -2.313  -0.003  0.00  0.00    +0.004 A 
ATOM     10  C   UNL     1      -0.983  -0.980   0.007  0.00  0.00    +0.048 A 
ATOM     11  C   UNL     1       0.002  -0.004   0.002  0.00  0.00    +0.155 A 
ATOM     12  C   UNL     1       1.354  -0.378  -0.013  0.00  0.00    +0.110 A 
ATOM     13  C   UNL     1       1.697  -1.731  -0.023  0.00  0.00    +0.031 A 
ATOM     14  N   UNL     1       2.075   0.776  -0.014  0.00  0.00    -0.213 NA
ATOM     15  C   UNL     1       1.253   1.783  -0.000  0.00  0.00    +0.200 A 
ATOM     16  O   UNL     1      -0.016   1.347   0.009  0.00  0.00    -0.439 OA
ENDBRANCH   1  15
BRANCH   6  17
ATOM     17  C   UNL     1       4.350   6.561  -0.001  0.00  0.00    +0.019 C 
BRANCH  17  18
ATOM     18  C   UNL     1       5.343   6.682  -1.128  0.00  0.00    +0.202 C 
ATOM     19  O   UNL     1       5.546   5.737  -1.861  0.00  0.00    -0.278 OA
ATOM     20  N   UNL     1       6.004   7.840  -1.322  0.00  0.00    -0.272 N 
ATOM     21  H   UNL     1       5.842   8.595  -0.736  0.00  0.00    +0.156 HD
BRANCH  20  22
ATOM     22  C   UNL     1       6.923   7.952  -2.366  0.00  0.00    +0.123 A 
ATOM     23  C   UNL     1       7.247   6.978  -3.260  0.00  0.00    +0.065 A 
ATOM     24  C   UNL     1       8.203   7.501  -4.135  0.00  0.00    +0.136 A 
ATOM     25  N   UNL     1       8.446   8.739  -3.786  0.00  0.00    -0.178 NA
ATOM     26  N   UNL     1       7.649   9.050  -2.677  0.00  0.00    -0.247 N 
BRANCH  26  27
ATOM     27  C   UNL     1       7.611  10.335  -1.976  0.00  0.00    +0.109 C 
ATOM     28  C   UNL     1       7.227  11.461  -2.958  0.00  0.00    +0.027 C 
ATOM     29  C   UNL     1       8.085  12.669  -2.504  0.00  0.00    +0.002 C 
ATOM     30  C   UNL     1       9.427  12.006  -2.105  0.00  0.00    +0.002 C 
ATOM     31  C   UNL     1       9.009  10.682  -1.434  0.00  0.00    +0.027 C 
ENDBRANCH  26  27
ENDBRANCH  20  22
ENDBRANCH  17  18
ENDBRANCH   6  17
TORSDOF 5
