REMARK  Name = ZINC24214618
REMARK  9 active torsions:
REMARK  status: ('A' for Active; 'I' for Inactive)
REMARK    1  A    between atoms: C_1  and  C_2
REMARK    2  A    between atoms: C_3  and  C_14
REMARK    3  A    between atoms: C_4  and  C_13
REMARK    4  A    between atoms: N_5  and  C_7
REMARK    5  A    between atoms: N_21  and  C_22
REMARK    6  A    between atoms: C_22  and  C_23
REMARK    7  A    between atoms: N_25  and  C_26
REMARK    8  A    between atoms: C_31  and  S_32
REMARK    9  A    between atoms: S_32  and  C_33
REMARK                            x       y       z     vdW  Elec       q    Type
REMARK                         _______ _______ _______ _____ _____    ______ ____
ROOT
ATOM      1  C   UNL     1       0.864   1.875  -0.172  0.00  0.00    +0.054 C 
ATOM      2  C   UNL     1      -0.585   1.512  -0.011  0.00  0.00    +0.204 C 
ATOM      3  O   UNL     1      -0.911   0.351  -0.146  0.00  0.00    -0.277 OA
ATOM      4  N   UNL     1      -1.530   2.415   0.269  0.00  0.00    -0.318 N 
ATOM      5  C   UNL     1      -1.237   3.828   0.492  0.00  0.00    +0.085 C 
ATOM      6  C   UNL     1       0.138   4.173  -0.083  0.00  0.00    -0.058 C 
ATOM      7  N   UNL     1       1.119   3.196   0.418  0.00  0.00    +0.397 N 
ATOM      8  H   UNL     1      -2.567   2.052   0.329  0.00  0.00    +0.149 HD
ATOM      9  H   UNL     1       1.009   3.117   1.510  0.00  0.00    -0.079 HD
ENDROOT
BRANCH   1  12
ATOM     10  C   UNL     1       1.272   1.596   2.958  0.00  0.00    +0.068 C 
ATOM     11  C   UNL     1       1.899   0.721   1.904  0.00  0.00    +0.063 A 
ATOM     12  C   UNL     1       1.718   0.845   0.522  0.00  0.00    -0.009 A 
ATOM     13  C   UNL     1       2.441  -0.127  -0.082  0.00  0.00    +0.044 A 
ATOM     14  N   UNL     1       3.065  -0.837   0.885  0.00  0.00    -0.237 N 
ATOM     15  N   UNL     1       2.705  -0.286   2.123  0.00  0.00    -0.171 NA
ATOM     16  C   UNL     1       2.537  -0.372  -1.566  0.00  0.00    +0.066 C 
BRANCH  14  17
ATOM     17  C   UNL     1       3.916  -1.933   0.686  0.00  0.00    +0.066 A 
ATOM     18  C   UNL     1       3.877  -3.011   1.559  0.00  0.00    +0.028 A 
ATOM     19  C   UNL     1       4.713  -4.092   1.358  0.00  0.00    +0.002 A 
ATOM     20  C   UNL     1       5.596  -4.095   0.293  0.00  0.00    +0.000 A 
ATOM     21  C   UNL     1       5.640  -3.021  -0.576  0.00  0.00    +0.002 A 
ATOM     22  C   UNL     1       4.803  -1.939  -0.382  0.00  0.00    +0.028 A 
ENDBRANCH  14  17
ENDBRANCH   1  12
BRANCH   7  23
ATOM     23  C   UNL     1       2.492   3.640   0.142  0.00  0.00    +0.020 C 
BRANCH  23  24
ATOM     24  C   UNL     1       2.662   3.855  -1.339  0.00  0.00    +0.201 C 
ATOM     25  O   UNL     1       1.762   3.570  -2.101  0.00  0.00    -0.278 OA
ATOM     26  N   UNL     1       3.815   4.364  -1.818  0.00  0.00    -0.286 N 
ATOM     27  H   UNL     1       4.654   4.563  -1.135  0.00  0.00    +0.155 HD
BRANCH  26  28
ATOM     28  C   UNL     1       3.944   4.639  -3.186  0.00  0.00    +0.047 A 
ATOM     29  C   UNL     1       3.199   3.926  -4.113  0.00  0.00    +0.024 A 
ATOM     30  C   UNL     1       3.329   4.198  -5.462  0.00  0.00    +0.002 A 
ATOM     31  C   UNL     1       4.200   5.182  -5.892  0.00  0.00    +0.001 A 
ATOM     32  C   UNL     1       4.947   5.898  -4.976  0.00  0.00    +0.016 A 
ATOM     33  C   UNL     1       4.820   5.635  -3.620  0.00  0.00    +0.029 A 
BRANCH  33  34
ATOM     34  S   UNL     1       5.765   6.551  -2.449  0.00  0.00    -0.127 S 
ATOM     35  C   UNL     1       6.729   7.702  -3.468  0.00  0.00    +0.090 C 
ENDBRANCH  33  34
ENDBRANCH  26  28
ENDBRANCH  23  24
ENDBRANCH   7  23
TORSDOF 6
