REMARK  Name = ZINC16391771
REMARK  7 active torsions:
REMARK  status: ('A' for Active; 'I' for Inactive)
REMARK    1  A    between atoms: C_1  and  C_2
REMARK    2  A    between atoms: C_2  and  O_3
REMARK    3  A    between atoms: O_3  and  C_4
REMARK    4  A    between atoms: C_7  and  N_13
REMARK    5  A    between atoms: C_8  and  N_10
REMARK    6  A    between atoms: C_14  and  C_16
REMARK    7  A    between atoms: C_17  and  C_26
REMARK                            x       y       z     vdW  Elec       q    Type
REMARK                         _______ _______ _______ _____ _____    ______ ____
ROOT
ATOM      1  N   UNL     1       4.834   3.950  -0.005  0.00  0.00    -0.277 N 
ATOM      2  C   UNL     1       5.954   3.205  -0.100  0.00  0.00    +0.284 C 
ATOM      3  O   UNL     1       5.873   2.004  -0.277  0.00  0.00    -0.266 OA
ATOM      4  H   UNL     1       4.898   4.915   0.059  0.00  0.00    +0.155 HD
ENDROOT
BRANCH   2   5
ATOM      5  C   UNL     1       7.272   3.845   0.009  0.00  0.00    +0.194 A 
ATOM      6  C   UNL     1       8.464   3.197  -0.066  0.00  0.00    +0.008 A 
ATOM      7  C   UNL     1       9.494   4.223   0.092  0.00  0.00    +0.025 A 
ATOM      8  C   UNL     1      10.891   4.207   0.107  0.00  0.00    +0.027 A 
ATOM      9  C   UNL     1      11.580   5.373   0.286  0.00  0.00    +0.019 A 
ATOM     10  C   UNL     1      10.900   6.574   0.454  0.00  0.00    +0.019 A 
ATOM     11  C   UNL     1       9.523   6.610   0.442  0.00  0.00    +0.048 A 
ATOM     12  C   UNL     1       8.800   5.436   0.261  0.00  0.00    +0.136 A 
ATOM     13  O   UNL     1       7.482   5.163   0.205  0.00  0.00    -0.450 OA
ATOM     14 BR   UNL     1      13.471   5.354   0.307  0.00  0.00    -0.050 Br
ATOM     15  C   UNL     1       8.681   1.720  -0.273  0.00  0.00    +0.048 C 
ENDBRANCH   2   5
BRANCH   1  19
ATOM     16  C   UNL     1       1.098   2.100   0.016  0.00  0.00    +0.123 A 
ATOM     17  C   UNL     1       2.180   1.483   0.626  0.00  0.00    +0.047 A 
ATOM     18  C   UNL     1       3.419   2.092   0.615  0.00  0.00    +0.029 A 
ATOM     19  C   UNL     1       3.579   3.328   0.002  0.00  0.00    +0.064 A 
ATOM     20  C   UNL     1       2.494   3.948  -0.603  0.00  0.00    +0.151 A 
ATOM     21  C   UNL     1       1.257   3.335  -0.596  0.00  0.00    +0.080 A 
BRANCH  20  22
ATOM     22  N   UNL     1       2.664   5.266  -1.256  0.00  0.00    +0.058 N 
ATOM     23  O   UNL     1       1.736   5.768  -1.864  0.00  0.00    -0.126 OA
ATOM     24  O   UNL     1       3.731   5.848  -1.185  0.00  0.00    -0.126 OA
ENDBRANCH  20  22
BRANCH  16  25
ATOM     25  O   UNL     1      -0.121   1.498   0.023  0.00  0.00    -0.492 OA
BRANCH  25  27
ATOM     26  C   UNL     1      -1.649  -0.291   0.578  0.00  0.00    +0.048 C 
ATOM     27  C   UNL     1      -0.212   0.227   0.671  0.00  0.00    +0.225 C 
ENDBRANCH  25  27
ENDBRANCH  16  25
ENDBRANCH   1  19
TORSDOF 5
