REMARK  Name = ZINC40005565
REMARK  11 active torsions:
REMARK  status: ('A' for Active; 'I' for Inactive)
REMARK    1  A    between atoms: C_1  and  C_2
REMARK    2  A    between atoms: C_2  and  O_3
REMARK    3  A    between atoms: O_3  and  C_4
REMARK    4  A    between atoms: C_4  and  C_6
REMARK    5  A    between atoms: C_7  and  C_27
REMARK    6  A    between atoms: C_10  and  N_12
REMARK    7  A    between atoms: C_13  and  C_15
REMARK    8  A    between atoms: C_15  and  C_17
REMARK    9  A    between atoms: C_15  and  S_18
REMARK   10  A    between atoms: S_18  and  C_19
REMARK   11  A    between atoms: C_23  and  C_26
REMARK                            x       y       z     vdW  Elec       q    Type
REMARK                         _______ _______ _______ _____ _____    ______ ____
ROOT
ATOM      1  C   UNL     1       1.448  -2.344  -2.515  0.00  0.00    +0.071 C 
ATOM      2  C   UNL     1       1.558  -3.655  -2.696  0.00  0.00    -0.018 C 
ATOM      3  C   UNL     1       2.268  -4.146  -3.944  0.00  0.00    +0.107 C 
ATOM      4  S   UNL     1       2.307  -2.607  -4.960  0.00  0.00    -0.129 S 
ATOM      5  C   UNL     1       2.035  -1.426  -3.572  0.00  0.00    +0.169 C 
ENDROOT
BRANCH   2   6
ATOM      6  C   UNL     1       1.007  -4.604  -1.715  0.00  0.00    -0.021 A 
ATOM      7  C   UNL     1       1.529  -4.658  -0.419  0.00  0.00    +0.008 A 
ATOM      8  C   UNL     1       1.008  -5.549   0.494  0.00  0.00    +0.001 A 
ATOM      9  C   UNL     1      -0.030  -6.390   0.131  0.00  0.00    +0.000 A 
ATOM     10  C   UNL     1      -0.552  -6.343  -1.150  0.00  0.00    +0.001 A 
ATOM     11  C   UNL     1      -0.045  -5.453  -2.073  0.00  0.00    +0.008 A 
ENDBRANCH   2   6
BRANCH   5  12
ATOM     12  N   UNL     1       3.303  -0.846  -3.121  0.00  0.00    -0.298 N 
ATOM     13  C   UNL     1       4.361  -0.809  -3.955  0.00  0.00    +0.227 C 
ATOM     14  O   UNL     1       4.264  -1.255  -5.078  0.00  0.00    -0.275 OA
ATOM     15  H   UNL     1       3.381  -0.489  -2.222  0.00  0.00    +0.150 HD
BRANCH  13  16
ATOM     16  C   UNL     1       5.665  -0.212  -3.491  0.00  0.00    +0.137 C 
ATOM     17  C   UNL     1       6.476  -1.275  -2.746  0.00  0.00    +0.029 C 
BRANCH  16  18
ATOM     18  S   UNL     1       6.608   0.371  -4.927  0.00  0.00    -0.072 S 
BRANCH  18  19
ATOM     19  C   UNL     1       8.014   1.163  -4.220  0.00  0.00    +0.213 A 
ATOM     20  N   UNL     1       8.927   1.710  -5.014  0.00  0.00    -0.180 NA
ATOM     21  C   UNL     1       9.985   2.306  -4.476  0.00  0.00    +0.295 A 
ATOM     22  O   UNL     1      10.932   2.874  -5.261  0.00  0.00    -0.264 OA
ATOM     23  C   UNL     1      10.102   2.336  -3.086  0.00  0.00    +0.126 A 
ATOM     24  N   UNL     1       9.163   1.774  -2.348  0.00  0.00    -0.146 NA
ATOM     25  N   UNL     1       8.147   1.209  -2.900  0.00  0.00    -0.122 NA
ATOM     26  C   UNL     1      11.287   3.001  -2.434  0.00  0.00    +0.073 C 
ENDBRANCH  18  19
ENDBRANCH  16  18
ENDBRANCH  13  16
ENDBRANCH   5  12
BRANCH   1  27
ATOM     27  C   UNL     1       0.776  -1.800  -1.335  0.00  0.00    +0.338 C 
ATOM     28  O   UNL     1       0.312  -2.552  -0.499  0.00  0.00    -0.245 OA
BRANCH  27  29
ATOM     29  O   UNL     1       0.671  -0.465  -1.174  0.00  0.00    -0.462 OA
BRANCH  29  31
ATOM     30  C   UNL     1      -0.019   1.526   0.010  0.00  0.00    +0.048 C 
ATOM     31  C   UNL     1       0.002  -0.004   0.002  0.00  0.00    +0.229 C 
ENDBRANCH  29  31
ENDBRANCH  27  29
ENDBRANCH   1  27
TORSDOF 8
