REMARK  Name = ZINC41055665
REMARK  3 active torsions:
REMARK  status: ('A' for Active; 'I' for Inactive)
REMARK    1  A    between atoms: C_10  and  C_13
REMARK    2  A    between atoms: N_15  and  C_16
REMARK    3  A    between atoms: C_19  and  N_23
REMARK                            x       y       z     vdW  Elec       q    Type
REMARK                         _______ _______ _______ _____ _____    ______ ____
ROOT
ATOM      1  C   UNL     1       6.211   2.047   0.266  0.00  0.00    +0.253 C 
ATOM      2  O   UNL     1       7.210   1.450   0.622  0.00  0.00    -0.270 OA
ATOM      3  N   UNL     1       6.302   3.328  -0.143  0.00  0.00    -0.280 N 
ATOM      4  H   UNL     1       5.498   3.826  -0.359  0.00  0.00    +0.155 HD
ENDROOT
BRANCH   1  14
ATOM      5  C   UNL     1       0.094   1.105  -0.662  0.00  0.00    +0.004 A 
ATOM      6  C   UNL     1       1.264   1.829  -0.730  0.00  0.00    +0.014 A 
ATOM      7  C   UNL     1       2.443   1.283  -0.222  0.00  0.00    +0.049 A 
ATOM      8  C   UNL     1       2.438   0.003   0.356  0.00  0.00    +0.086 A 
ATOM      9  C   UNL     1       1.242  -0.712   0.415  0.00  0.00    +0.147 A 
ATOM     10  C   UNL     1       0.085  -0.159  -0.092  0.00  0.00    +0.040 A 
ATOM     11  F   UNL     1       1.218  -1.944   0.968  0.00  0.00    -0.203 F 
ATOM     12  N   UNL     1       3.603  -0.538   0.858  0.00  0.00    -0.358 N 
ATOM     13  C   UNL     1       4.776   0.108   0.825  0.00  0.00    +0.100 A 
ATOM     14  C   UNL     1       4.905   1.370   0.283  0.00  0.00    +0.100 A 
ATOM     15  C   UNL     1       3.715   2.029  -0.278  0.00  0.00    +0.202 A 
ATOM     16  O   UNL     1       3.777   3.142  -0.769  0.00  0.00    -0.286 OA
ATOM     17  H   UNL     1       3.571  -1.423   1.252  0.00  0.00    +0.165 HD
ENDBRANCH   1  14
BRANCH   3  18
ATOM     18  C   UNL     1       7.555   3.939  -0.257  0.00  0.00    +0.052 A 
ATOM     19  C   UNL     1       8.700   3.162  -0.383  0.00  0.00    +0.027 A 
ATOM     20  C   UNL     1       9.935   3.768  -0.495  0.00  0.00    +0.034 A 
ATOM     21  C   UNL     1      10.035   5.147  -0.483  0.00  0.00    +0.128 A 
ATOM     22  C   UNL     1       8.898   5.925  -0.358  0.00  0.00    +0.054 A 
ATOM     23  C   UNL     1       7.657   5.325  -0.251  0.00  0.00    +0.064 A 
ATOM     24 CL   UNL     1       6.230   6.301  -0.103  0.00  0.00    -0.082 Cl
BRANCH  21  25
ATOM     25  N   UNL     1      11.361   5.793  -0.604  0.00  0.00    +0.056 N 
ATOM     26  O   UNL     1      12.356   5.115  -0.712  0.00  0.00    -0.126 OA
ATOM     27  O   UNL     1      11.450   6.999  -0.593  0.00  0.00    -0.126 OA
ENDBRANCH  21  25
ENDBRANCH   3  18
TORSDOF 3
