REMARK  Name = ZINC27595805
REMARK  15 active torsions:
REMARK  status: ('A' for Active; 'I' for Inactive)
REMARK    1  A    between atoms: C_1  and  C_2
REMARK    2  A    between atoms: C_2  and  C_3
REMARK    3  A    between atoms: C_2  and  C_4
REMARK    4  A    between atoms: C_4  and  C_6
REMARK    5  A    between atoms: C_4  and  N_23
REMARK    6  A    between atoms: N_8  and  C_9
REMARK    7  A    between atoms: C_9  and  C_10
REMARK    8  A    between atoms: C_10  and  C_12
REMARK    9  A    between atoms: C_10  and  N_20
REMARK   10  A    between atoms: C_16  and  O_18
REMARK   11  A    between atoms: O_18  and  C_19
REMARK   12  A    between atoms: N_20  and  C_21
REMARK   13  A    between atoms: N_20  and  C_22
REMARK   14  A    between atoms: N_23  and  S_24
REMARK   15  A    between atoms: S_24  and  C_27
REMARK                            x       y       z     vdW  Elec       q    Type
REMARK                         _______ _______ _______ _____ _____    ______ ____
ROOT
ATOM      1  C   UNL     1      -1.122   1.503   0.665  0.00  0.00    +0.165 C 
ENDROOT
BRANCH   1   2
ATOM      2  C   UNL     1      -1.702   2.078  -0.602  0.00  0.00    +0.232 C 
ATOM      3  O   UNL     1      -2.662   2.817  -0.548  0.00  0.00    -0.274 OA
ATOM      4  N   UNL     1      -1.153   1.772  -1.794  0.00  0.00    -0.315 N 
ATOM      5  H   UNL     1      -0.282   1.102  -1.843  0.00  0.00    +0.149 HD
BRANCH   4   6
ATOM      6  C   UNL     1      -1.717   2.331  -3.025  0.00  0.00    +0.093 C 
BRANCH   6   7
ATOM      7  C   UNL     1      -0.914   1.829  -4.227  0.00  0.00    -0.021 C 
BRANCH   7   8
ATOM      8  C   UNL     1      -1.566   2.304  -5.500  0.00  0.00    -0.056 A 
ATOM      9  C   UNL     1      -0.789   2.788  -6.536  0.00  0.00    +0.002 A 
ATOM     10  C   UNL     1      -1.384   3.223  -7.705  0.00  0.00    +0.004 A 
ATOM     11  C   UNL     1      -2.758   3.176  -7.841  0.00  0.00    +0.045 A 
ATOM     12  C   UNL     1      -3.541   2.692  -6.803  0.00  0.00    +0.120 A 
ATOM     13  C   UNL     1      -2.940   2.251  -5.633  0.00  0.00    +0.047 A 
BRANCH  12  14
ATOM     14  O   UNL     1      -4.892   2.645  -6.935  0.00  0.00    -0.495 OA
ATOM     15  C   UNL     1      -5.441   3.110  -8.170  0.00  0.00    +0.277 C 
ENDBRANCH  12  14
ENDBRANCH   7   8
BRANCH   7  16
ATOM     16  N   UNL     1      -0.878   0.361  -4.214  0.00  0.00    +0.382 N 
ATOM     17  C   UNL     1      -2.204  -0.201  -4.506  0.00  0.00    -0.096 C 
ATOM     18  C   UNL     1       0.129  -0.150  -5.154  0.00  0.00    -0.096 C 
ATOM     19  H   UNL     1      -0.591   0.039  -3.202  0.00  0.00    -0.082 HD
ENDBRANCH   7  16
ENDBRANCH   6   7
ENDBRANCH   4   6
ENDBRANCH   1   2
BRANCH   1  21
ATOM     20  C   UNL     1       0.394   3.463   0.987  0.00  0.00    +0.009 C 
ATOM     21  C   UNL     1       0.336   1.945   0.805  0.00  0.00    +0.010 C 
ATOM     22  C   UNL     1       0.962   1.261   2.022  0.00  0.00    +0.009 C 
ENDBRANCH   1  21
BRANCH   1  23
ATOM     23  N   UNL     1      -1.890   1.983   1.816  0.00  0.00    -0.178 NA
ATOM     24  H   UNL     1      -1.511   2.821   2.420  0.00  0.00    +0.149 HD
BRANCH  23  25
ATOM     25  S   UNL     1      -3.194   1.119   2.360  0.00  0.00    +0.059 S 
ATOM     26  O   UNL     1      -3.747   1.857   3.441  0.00  0.00    -0.153 OA
ATOM     27  O   UNL     1      -3.953   0.765   1.212  0.00  0.00    -0.153 OA
BRANCH  25  28
ATOM     28  C   UNL     1      -2.576  -0.384   3.040  0.00  0.00    +0.106 A 
ATOM     29  C   UNL     1      -2.413  -1.495   2.214  0.00  0.00    +0.029 A 
ATOM     30  C   UNL     1      -1.933  -2.669   2.706  0.00  0.00    +0.010 A 
ATOM     31  C   UNL     1      -1.607  -2.771   4.069  0.00  0.00    -0.018 A 
ATOM     32  C   UNL     1      -1.115  -3.969   4.615  0.00  0.00    +0.008 A 
ATOM     33  C   UNL     1      -0.810  -4.030   5.939  0.00  0.00    +0.001 A 
ATOM     34  C   UNL     1      -0.978  -2.921   6.767  0.00  0.00    +0.001 A 
ATOM     35  C   UNL     1      -1.452  -1.744   6.273  0.00  0.00    +0.008 A 
ATOM     36  C   UNL     1      -1.778  -1.643   4.910  0.00  0.00    -0.016 A 
ATOM     37  C   UNL     1      -2.271  -0.445   4.364  0.00  0.00    +0.037 A 
ENDBRANCH  25  28
ENDBRANCH  23  25
ENDBRANCH   1  23
TORSDOF 10
