REMARK  Name = ZINC20177803
REMARK  6 active torsions:
REMARK  status: ('A' for Active; 'I' for Inactive)
REMARK    1  A    between atoms: C_1  and  C_2
REMARK    2  A    between atoms: C_2  and  O_3
REMARK    3  A    between atoms: O_3  and  C_4
REMARK    4  A    between atoms: C_8  and  N_10
REMARK    5  A    between atoms: C_14  and  N_18
REMARK    6  A    between atoms: C_21  and  C_24
REMARK                            x       y       z     vdW  Elec       q    Type
REMARK                         _______ _______ _______ _____ _____    ______ ____
ROOT
ATOM      1  N   UNL     1      -0.797   3.109  -1.161  0.00  0.00    +0.388 N 
ATOM      2  C   UNL     1      -0.763   1.642  -1.122  0.00  0.00    -0.077 C 
ATOM      3  C   UNL     1      -0.024   1.181   0.136  0.00  0.00    -0.008 C 
ATOM      4  C   UNL     1      -0.742   1.727   1.374  0.00  0.00    +0.052 C 
ATOM      5  C   UNL     1      -0.808   3.254   1.284  0.00  0.00    -0.008 C 
ATOM      6  C   UNL     1      -1.524   3.655  -0.008  0.00  0.00    -0.077 C 
ATOM      7  H   UNL     1       0.240   3.470  -1.105  0.00  0.00    -0.081 HD
ENDROOT
BRANCH   4   8
ATOM      8  C   UNL     1       0.016   1.327   2.613  0.00  0.00    +0.111 A 
ATOM      9  N   UNL     1       1.076   2.005   3.132  0.00  0.00    -0.342 N 
ATOM     10  H   UNL     1       1.440   2.917   2.637  0.00  0.00    +0.167 HD
ATOM     11  C   UNL     1       1.485   1.325   4.262  0.00  0.00    +0.066 A 
ATOM     12  C   UNL     1       2.491   1.523   5.198  0.00  0.00    +0.028 A 
ATOM     13  C   UNL     1       2.642   0.630   6.237  0.00  0.00    +0.002 A 
ATOM     14  C   UNL     1       1.796  -0.464   6.352  0.00  0.00    +0.002 A 
ATOM     15  C   UNL     1       0.801  -0.675   5.441  0.00  0.00    +0.030 A 
ATOM     16  C   UNL     1       0.629   0.217   4.379  0.00  0.00    +0.089 A 
ATOM     17  N   UNL     1      -0.244   0.280   3.340  0.00  0.00    -0.232 NA
ENDBRANCH   4   8
BRANCH   1  22
ATOM     18  N   UNL     1      -3.583   4.311  -2.594  0.00  0.00    -0.212 N 
ATOM     19  C   UNL     1      -2.884   5.452  -2.566  0.00  0.00    +0.225 C 
ATOM     20  O   UNL     1      -3.356   6.567  -2.620  0.00  0.00    -0.275 OA
ATOM     21  C   UNL     1      -1.409   5.130  -2.455  0.00  0.00    +0.090 C 
ATOM     22  C   UNL     1      -1.377   3.588  -2.423  0.00  0.00    +0.029 C 
ATOM     23  C   UNL     1      -2.837   3.201  -2.519  0.00  0.00    +0.213 C 
ATOM     24  O   UNL     1      -3.264   2.067  -2.528  0.00  0.00    -0.277 OA
BRANCH  18  29
ATOM     25  C   UNL     1      -6.969   3.751  -3.929  0.00  0.00    +0.122 A 
ATOM     26  C   UNL     1      -7.744   4.222  -2.879  0.00  0.00    +0.046 A 
ATOM     27  C   UNL     1      -7.140   4.720  -1.741  0.00  0.00    +0.005 A 
ATOM     28  C   UNL     1      -5.762   4.750  -1.644  0.00  0.00    +0.024 A 
ATOM     29  C   UNL     1      -4.981   4.280  -2.692  0.00  0.00    +0.047 A 
ATOM     30  C   UNL     1      -5.586   3.785  -3.838  0.00  0.00    +0.069 A 
BRANCH  25  31
ATOM     31  O   UNL     1      -7.564   3.261  -5.048  0.00  0.00    -0.492 OA
BRANCH  31  33
ATOM     32  C   UNL     1      -9.478   2.679  -6.405  0.00  0.00    +0.048 C 
ATOM     33  C   UNL     1      -8.993   3.262  -5.076  0.00  0.00    +0.225 C 
ENDBRANCH  31  33
ENDBRANCH  25  31
ENDBRANCH  18  29
ENDBRANCH   1  22
TORSDOF 5
