REMARK  Name = ZINC33069129
REMARK  6 active torsions:
REMARK  status: ('A' for Active; 'I' for Inactive)
REMARK    1  A    between atoms: C_1  and  N_2
REMARK    2  A    between atoms: C_5  and  C_8
REMARK    3  A    between atoms: C_10  and  C_13
REMARK    4  A    between atoms: C_13  and  C_14
REMARK    5  A    between atoms: C_14  and  C_15
REMARK    6  A    between atoms: N_17  and  C_18
REMARK                            x       y       z     vdW  Elec       q    Type
REMARK                         _______ _______ _______ _____ _____    ______ ____
ROOT
ATOM      1  C   UNL     1       6.703   0.201  -0.633  0.00  0.00    +0.198 A 
ATOM      2  N   UNL     1       5.592   0.816  -1.101  0.00  0.00    -0.192 NA
ATOM      3  C   UNL     1       4.926   1.194  -0.039  0.00  0.00    +0.228 A 
ATOM      4  O   UNL     1       5.629   0.801   1.028  0.00  0.00    -0.338 OA
ATOM      5  N   UNL     1       6.641   0.234   0.674  0.00  0.00    -0.056 NA
ENDROOT
BRANCH   1  10
ATOM      6  C   UNL     1      10.951  -1.868  -3.795  0.00  0.00    -0.096 C 
ATOM      7  N   UNL     1       9.971  -1.178  -2.945  0.00  0.00    +0.380 N 
ATOM      8  C   UNL     1       9.704  -1.946  -1.718  0.00  0.00    -0.074 C 
ATOM      9  C   UNL     1       8.942  -1.045  -0.740  0.00  0.00    +0.020 C 
ATOM     10  C   UNL     1       7.781  -0.402  -1.446  0.00  0.00    -0.007 C 
ATOM     11  C   UNL     1       7.688  -0.349  -2.756  0.00  0.00    -0.038 C 
ATOM     12  C   UNL     1       8.721  -0.934  -3.675  0.00  0.00    -0.051 C 
ATOM     13  H   UNL     1      10.402  -0.206  -2.663  0.00  0.00    -0.082 HD
ENDBRANCH   1  10
BRANCH   3  14
ATOM     14  C   UNL     1       3.611   1.930  -0.022  0.00  0.00    +0.108 C 
BRANCH  14  15
ATOM     15  C   UNL     1       2.462   0.920  -0.017  0.00  0.00    +0.105 C 
BRANCH  15  16
ATOM     16  C   UNL     1       1.147   1.655   0.000  0.00  0.00    +0.214 C 
ATOM     17  O   UNL     1       1.130   2.868   0.007  0.00  0.00    -0.276 OA
ATOM     18  N   UNL     1      -0.011   0.966   0.007  0.00  0.00    -0.312 N 
ATOM     19  H   UNL     1       0.004  -0.134   0.006  0.00  0.00    +0.149 HD
BRANCH  18  20
ATOM     20  C   UNL     1      -1.290   1.681   0.017  0.00  0.00    +0.073 C 
ATOM     21  C   UNL     1      -1.621   2.092   1.467  0.00  0.00    +0.022 C 
ATOM     22  C   UNL     1      -2.612   3.223   1.428  0.00  0.00    +0.002 C 
ATOM     23  C   UNL     1      -4.069   2.734   1.537  0.00  0.00    +0.000 C 
ATOM     24  C   UNL     1      -4.340   1.470   0.698  0.00  0.00    +0.000 C 
ATOM     25  C   UNL     1      -3.684   1.526  -0.655  0.00  0.00    +0.002 C 
ATOM     26  C   UNL     1      -2.313   0.825  -0.564  0.00  0.00    +0.022 C 
ENDBRANCH  18  20
ENDBRANCH  15  16
ENDBRANCH  14  15
ENDBRANCH   3  14
TORSDOF 5
