REMARK  Name = ZINC08143916
REMARK  10 active torsions:
REMARK  status: ('A' for Active; 'I' for Inactive)
REMARK    1  A    between atoms: C_1  and  C_2
REMARK    2  A    between atoms: C_4  and  C_8
REMARK    3  A    between atoms: C_5  and  C_7
REMARK    4  A    between atoms: N_10  and  N_11
REMARK    5  A    between atoms: C_12  and  C_14
REMARK    6  A    between atoms: C_17  and  C_20
REMARK    7  A    between atoms: C_20  and  N_21
REMARK    8  A    between atoms: N_24  and  C_25
REMARK    9  A    between atoms: C_25  and  C_26
REMARK   10  A    between atoms: C_25  and  C_27
REMARK                            x       y       z     vdW  Elec       q    Type
REMARK                         _______ _______ _______ _____ _____    ______ ____
ROOT
ATOM      1  C   UNL     1      -4.502  -1.141   0.017  0.00  0.00    +0.038 A 
ATOM      2  C   UNL     1      -3.970  -0.685   1.224  0.00  0.00    +0.013 A 
ATOM      3  C   UNL     1      -2.933   0.225   1.217  0.00  0.00    +0.006 A 
ATOM      4  C   UNL     1      -2.422   0.686   0.017  0.00  0.00    -0.030 A 
ATOM      5  C   UNL     1      -2.949   0.242  -1.183  0.00  0.00    +0.006 A 
ATOM      6  C   UNL     1      -3.982  -0.672  -1.190  0.00  0.00    +0.013 A 
ENDROOT
BRANCH   1   8
ATOM      7  N   UNL     1      -6.125  -2.555  -1.150  0.00  0.00    -0.230 N 
ATOM      8  C   UNL     1      -5.613  -2.117   0.017  0.00  0.00    +0.260 C 
ATOM      9  O   UNL     1      -6.064  -2.524   1.070  0.00  0.00    -0.269 OA
ATOM     10  H   UNL     1      -5.765  -2.230  -1.990  0.00  0.00    +0.173 HD
BRANCH   7  13
ATOM     11  C   UNL     1      -7.689  -3.918  -2.317  0.00  0.00    +0.263 C 
ATOM     12  O   UNL     1      -7.238  -3.511  -3.370  0.00  0.00    -0.269 OA
ATOM     13  N   UNL     1      -7.178  -3.480  -1.150  0.00  0.00    -0.230 N 
ATOM     14  H   UNL     1      -7.538  -3.805  -0.310  0.00  0.00    +0.173 HD
BRANCH  11  18
ATOM     15  C   UNL     1     -11.342  -7.143  -0.804  0.00  0.00    +0.086 C 
ATOM     16  C   UNL     1     -10.400  -6.307  -1.632  0.00  0.00    +0.103 A 
ATOM     17  C   UNL     1      -9.454  -5.489  -1.146  0.00  0.00    +0.057 A 
ATOM     18  C   UNL     1      -8.797  -4.891  -2.317  0.00  0.00    +0.079 A 
ATOM     19  C   UNL     1      -9.421  -5.429  -3.404  0.00  0.00    +0.114 A 
ATOM     20  O   UNL     1     -10.370  -6.266  -2.973  0.00  0.00    -0.464 OA
ATOM     21  C   UNL     1      -9.098  -5.130  -4.845  0.00  0.00    +0.087 C 
ENDBRANCH  11  18
ENDBRANCH   7  13
ENDBRANCH   1   8
BRANCH   4  22
ATOM     22  C   UNL     1      -1.290   1.681   0.017  0.00  0.00    +0.141 C 
BRANCH  22  23
ATOM     23  N   UNL     1      -0.011   0.966   0.007  0.00  0.00    -0.295 N 
ATOM     24  C   UNL     1       1.147   1.655   0.000  0.00  0.00    +0.300 C 
ATOM     25  O   UNL     1       1.130   2.871   0.007  0.00  0.00    -0.253 OA
ATOM     26  N   UNL     1       2.323   0.998  -0.015  0.00  0.00    -0.297 N 
ATOM     27  H   UNL     1       0.002  -0.004   0.002  0.00  0.00    +0.151 HD
ATOM     28  H   UNL     1       2.336   0.028  -0.020  0.00  0.00    +0.150 HD
BRANCH  26  29
ATOM     29  C   UNL     1       3.582   1.747  -0.023  0.00  0.00    +0.068 C 
ATOM     30  C   UNL     1       4.694   0.882   0.572  0.00  0.00    +0.027 C 
ATOM     31  C   UNL     1       3.942   2.124  -1.461  0.00  0.00    +0.027 C 
ENDBRANCH  26  29
ENDBRANCH  22  23
ENDBRANCH   4  22
TORSDOF 6
