REMARK  Name = ZINC63830752
REMARK  9 active torsions:
REMARK  status: ('A' for Active; 'I' for Inactive)
REMARK    1  A    between atoms: C_1  and  C_2
REMARK    2  A    between atoms: N_11  and  C_15
REMARK    3  A    between atoms: C_15  and  C_16
REMARK    4  A    between atoms: N_18  and  C_19
REMARK    5  A    between atoms: C_19  and  C_20
REMARK    6  A    between atoms: C_20  and  C_22
REMARK    7  A    between atoms: C_20  and  C_30
REMARK    8  A    between atoms: C_25  and  O_28
REMARK    9  A    between atoms: O_28  and  C_29
REMARK                            x       y       z     vdW  Elec       q    Type
REMARK                         _______ _______ _______ _____ _____    ______ ____
ROOT
ATOM      1  C   UNL     1       4.430   5.077   1.963  0.00  0.00    +0.116 C 
ENDROOT
BRANCH   1   4
ATOM      2  C   UNL     1       3.425   2.876   2.253  0.00  0.00    +0.231 C 
ATOM      3  O   UNL     1       2.503   3.237   1.554  0.00  0.00    -0.274 OA
ATOM      4  N   UNL     1       4.441   3.721   2.519  0.00  0.00    -0.313 N 
ATOM      5  H   UNL     1       5.178   3.433   3.078  0.00  0.00    +0.149 HD
BRANCH   2   6
ATOM      6  C   UNL     1       3.436   1.482   2.825  0.00  0.00    +0.213 C 
BRANCH   6  16
ATOM      7  C   UNL     1      -0.019   1.526   0.010  0.00  0.00    +0.010 C 
ATOM      8  C   UNL     1       0.002  -0.004   0.002  0.00  0.00    +0.018 C 
ATOM      9  C   UNL     1      -1.434  -0.534   0.012  0.00  0.00    +0.006 C 
ATOM     10  C   UNL     1      -1.412  -2.064   0.024  0.00  0.00    +0.000 C 
ATOM     11  C   UNL     1      -0.687  -2.556   1.279  0.00  0.00    +0.003 C 
ATOM     12  C   UNL     1       0.752  -2.033   1.273  0.00  0.00    +0.035 C 
ATOM     13  C   UNL     1       0.740  -0.509   1.237  0.00  0.00    +0.115 C 
ATOM     14  C   UNL     1       2.151   0.030   1.266  0.00  0.00    +0.247 C 
ATOM     15  O   UNL     1       3.026  -0.158   0.448  0.00  0.00    -0.273 OA
ATOM     16  N   UNL     1       2.233   0.767   2.394  0.00  0.00    -0.215 N 
ATOM     17  C   UNL     1       1.077   0.763   3.069  0.00  0.00    +0.310 C 
ATOM     18  O   UNL     1       0.904   1.356   4.116  0.00  0.00    -0.252 OA
ATOM     19  N   UNL     1       0.127   0.030   2.458  0.00  0.00    -0.285 N 
ATOM     20  H   UNL     1      -0.782  -0.114   2.764  0.00  0.00    +0.151 HD
ENDBRANCH   6  16
ENDBRANCH   2   6
ENDBRANCH   1   4
BRANCH   1  21
ATOM     21  C   UNL     1       5.687   5.823   2.414  0.00  0.00    +0.064 C 
BRANCH  21  22
ATOM     22  C   UNL     1       5.654   6.005   3.909  0.00  0.00    -0.033 C 
ATOM     23  C   UNL     1       6.559   5.549   4.805  0.00  0.00    -0.000 A 
ATOM     24  C   UNL     1       7.797   4.775   4.660  0.00  0.00    +0.010 A 
ATOM     25  C   UNL     1       8.508   4.460   5.767  0.00  0.00    +0.001 A 
ATOM     26  C   UNL     1       8.091   4.853   7.046  0.00  0.00    +0.002 A 
ATOM     27  C   UNL     1       6.965   5.566   7.259  0.00  0.00    +0.026 A 
ATOM     28  C   UNL     1       6.141   5.952   6.166  0.00  0.00    +0.043 A 
ATOM     29  N   UNL     1       5.021   6.632   6.115  0.00  0.00    -0.380 N 
ATOM     30  C   UNL     1       4.604   6.742   4.712  0.00  0.00    +0.145 C 
ATOM     31  H   UNL     1       4.549   7.004   6.876  0.00  0.00    +0.160 HD
ENDBRANCH  21  22
BRANCH  21  32
ATOM     32  C   UNL     1       5.737   7.172   1.744  0.00  0.00    -0.038 A 
ATOM     33  C   UNL     1       4.720   8.084   1.952  0.00  0.00    +0.008 A 
ATOM     34  C   UNL     1       4.763   9.322   1.339  0.00  0.00    +0.046 A 
ATOM     35  C   UNL     1       5.830   9.649   0.514  0.00  0.00    +0.120 A 
ATOM     36  C   UNL     1       6.851   8.732   0.308  0.00  0.00    +0.046 A 
ATOM     37  C   UNL     1       6.805   7.497   0.927  0.00  0.00    +0.008 A 
BRANCH  35  38
ATOM     38  O   UNL     1       5.875  10.865  -0.090  0.00  0.00    -0.495 OA
ATOM     39  C   UNL     1       7.003  11.133  -0.925  0.00  0.00    +0.277 C 
ENDBRANCH  35  38
ENDBRANCH  21  32
ENDBRANCH   1  21
TORSDOF 7
