REMARK  Name = ZINC64566853
REMARK  10 active torsions:
REMARK  status: ('A' for Active; 'I' for Inactive)
REMARK    1  A    between atoms: C_1  and  C_2
REMARK    2  A    between atoms: C_3  and  S_9
REMARK    3  A    between atoms: C_4  and  C_8
REMARK    4  A    between atoms: N_5  and  C_7
REMARK    5  A    between atoms: S_9  and  N_12
REMARK    6  A    between atoms: C_17  and  C_21
REMARK    7  A    between atoms: N_19  and  C_20
REMARK    8  A    between atoms: C_21  and  N_22
REMARK    9  A    between atoms: N_22  and  C_23
REMARK   10  A    between atoms: C_29  and  C_31
REMARK                            x       y       z     vdW  Elec       q    Type
REMARK                         _______ _______ _______ _____ _____    ______ ____
ROOT
ATOM      1  N   UNL     1       7.188  -1.024  -3.004  0.00  0.00    -0.172 NA
ATOM      2  C   UNL     1       8.425  -1.654  -2.522  0.00  0.00    +0.116 C 
ATOM      3  C   UNL     1       8.068  -2.873  -1.661  0.00  0.00    +0.072 C 
ATOM      4  C   UNL     1       7.001  -3.671  -2.368  0.00  0.00    +0.045 A 
ATOM      5  C   UNL     1       6.219  -3.192  -3.369  0.00  0.00    +0.014 A 
ATOM      6  C   UNL     1       5.353  -4.207  -3.765  0.00  0.00    +0.085 A 
ATOM      7  N   UNL     1       5.604  -5.264  -3.032  0.00  0.00    -0.174 NA
ATOM      8  N   UNL     1       6.643  -4.947  -2.144  0.00  0.00    -0.271 N 
ATOM      9  C   UNL     1       7.233  -5.846  -1.150  0.00  0.00    +0.172 C 
ATOM     10  C   UNL     1       6.319  -1.792  -3.915  0.00  0.00    +0.148 C 
ENDROOT
BRANCH   1  11
ATOM     11  S   UNL     1       6.776   0.509  -2.531  0.00  0.00    +0.065 S 
ATOM     12  O   UNL     1       5.856   0.999  -3.497  0.00  0.00    -0.153 OA
ATOM     13  O   UNL     1       7.991   1.180  -2.226  0.00  0.00    -0.153 OA
BRANCH  11  16
ATOM     14  C   UNL     1       7.920   0.315   0.586  0.00  0.00    +0.069 C 
ATOM     15  C   UNL     1       6.448   0.289   0.263  0.00  0.00    +0.086 A 
ATOM     16  C   UNL     1       5.887   0.365  -1.016  0.00  0.00    +0.148 A 
ATOM     17  C   UNL     1       4.542   0.309  -0.885  0.00  0.00    +0.062 A 
ATOM     18  N   UNL     1       4.261   0.202   0.430  0.00  0.00    -0.269 N 
ATOM     19  N   UNL     1       5.474   0.186   1.131  0.00  0.00    -0.174 NA
ATOM     20  C   UNL     1       2.923   0.113   1.022  0.00  0.00    +0.172 C 
ATOM     21  C   UNL     1       3.537   0.359  -2.007  0.00  0.00    +0.067 C 
ENDBRANCH  11  16
ENDBRANCH   1  11
BRANCH   6  22
ATOM     22  C   UNL     1       4.310  -4.109  -4.848  0.00  0.00    +0.171 C 
BRANCH  22  23
ATOM     23  N   UNL     1       4.836  -3.316  -5.962  0.00  0.00    -0.262 N 
ATOM     24  C   UNL     1       4.048  -2.411  -6.577  0.00  0.00    +0.251 C 
ATOM     25  O   UNL     1       4.450  -1.825  -7.563  0.00  0.00    -0.270 OA
BRANCH  23  26
ATOM     26  C   UNL     1       6.156  -3.497  -6.388  0.00  0.00    +0.037 A 
ATOM     27  C   UNL     1       6.907  -4.556  -5.895  0.00  0.00    +0.023 A 
ATOM     28  C   UNL     1       8.210  -4.732  -6.317  0.00  0.00    +0.002 A 
ATOM     29  C   UNL     1       8.767  -3.855  -7.230  0.00  0.00    +0.000 A 
ATOM     30  C   UNL     1       8.022  -2.799  -7.723  0.00  0.00    +0.002 A 
ATOM     31  C   UNL     1       6.716  -2.621  -7.309  0.00  0.00    +0.023 A 
ENDBRANCH  23  26
BRANCH  24  32
ATOM     32  C   UNL     1       2.695  -2.132  -6.051  0.00  0.00    +0.037 A 
ATOM     33  C   UNL     1       2.450  -2.191  -4.678  0.00  0.00    +0.013 A 
ATOM     34  C   UNL     1       1.185  -1.930  -4.194  0.00  0.00    +0.001 A 
ATOM     35  C   UNL     1       0.159  -1.610  -5.067  0.00  0.00    +0.000 A 
ATOM     36  C   UNL     1       0.395  -1.550  -6.429  0.00  0.00    +0.001 A 
ATOM     37  C   UNL     1       1.657  -1.804  -6.925  0.00  0.00    +0.013 A 
ENDBRANCH  24  32
ENDBRANCH  22  23
ENDBRANCH   6  22
TORSDOF 6
