REMARK  Name = ZINC49717200
REMARK  5 active torsions:
REMARK  status: ('A' for Active; 'I' for Inactive)
REMARK    1  A    between atoms: C_3  and  N_21
REMARK    2  A    between atoms: C_4  and  S_9
REMARK    3  A    between atoms: C_6  and  N_7
REMARK    4  A    between atoms: N_7  and  N_8
REMARK    5  A    between atoms: S_9  and  N_12
REMARK                            x       y       z     vdW  Elec       q    Type
REMARK                         _______ _______ _______ _____ _____    ______ ____
ROOT
ATOM      1  C   UNL     1       0.228   1.291  -0.234  0.00  0.00    +0.026 A 
ATOM      2  C   UNL     1       0.577   0.660   0.944  0.00  0.00    +0.036 A 
ATOM      3  C   UNL     1       1.784  -0.007   1.042  0.00  0.00    +0.153 A 
ATOM      4  C   UNL     1       2.646  -0.044  -0.039  0.00  0.00    +0.137 A 
ATOM      5  C   UNL     1       2.304   0.585  -1.220  0.00  0.00    +0.055 A 
ATOM      6  C   UNL     1       1.091   1.255  -1.321  0.00  0.00    +0.043 A 
ENDROOT
BRANCH   4   7
ATOM      7  S   UNL     1       4.184  -0.894   0.091  0.00  0.00    +0.063 S 
ATOM      8  O   UNL     1       4.841  -0.372   1.238  0.00  0.00    -0.153 OA
ATOM      9  O   UNL     1       3.897  -2.278  -0.059  0.00  0.00    -0.153 OA
BRANCH   7  10
ATOM     10  N   UNL     1       5.098  -0.456  -1.219  0.00  0.00    -0.173 NA
ATOM     11  C   UNL     1       5.054  -1.060  -2.567  0.00  0.00    +0.113 C 
ATOM     12  C   UNL     1       6.128  -0.289  -3.397  0.00  0.00    +0.006 C 
ATOM     13  C   UNL     1       5.497   1.123  -3.608  0.00  0.00    +0.006 C 
ATOM     14  C   UNL     1       5.465   1.739  -2.190  0.00  0.00    +0.021 C 
ATOM     15  C   UNL     1       6.120   0.629  -1.268  0.00  0.00    +0.080 C 
ATOM     16  C   UNL     1       7.171   0.006  -2.259  0.00  0.00    +0.025 C 
ENDBRANCH   7  10
ENDBRANCH   4   7
BRANCH   3  17
ATOM     17  N   UNL     1       2.155  -0.681   2.306  0.00  0.00    +0.058 N 
ATOM     18  O   UNL     1       1.465  -0.544   3.289  0.00  0.00    -0.126 OA
ATOM     19  O   UNL     1       3.147  -1.370   2.355  0.00  0.00    -0.126 OA
ENDBRANCH   3  17
BRANCH   6  20
ATOM     20  N   UNL     1       0.741   1.892  -2.514  0.00  0.00    -0.283 N 
ATOM     21  H   UNL     1       1.345   1.866  -3.273  0.00  0.00    +0.166 HD
BRANCH  20  22
ATOM     22  N   UNL     1      -0.452   2.551  -2.612  0.00  0.00    -0.257 NA
ATOM     23  H   UNL     1      -0.538   3.251  -1.891  0.00  0.00    +0.140 HD
ATOM     24  H   UNL     1      -0.565   2.959  -3.528  0.00  0.00    +0.140 HD
ENDBRANCH  20  22
ENDBRANCH   6  20
TORSDOF 5
