REMARK  Name = ZINC12007232
REMARK  6 active torsions:
REMARK  status: ('A' for Active; 'I' for Inactive)
REMARK    1  A    between atoms: C_1  and  C_2
REMARK    2  A    between atoms: C_2  and  C_3
REMARK    3  A    between atoms: C_3  and  C_4
REMARK    4  A    between atoms: C_13  and  N_22
REMARK    5  A    between atoms: C_15  and  C_17
REMARK    6  A    between atoms: C_23  and  C_25
REMARK                            x       y       z     vdW  Elec       q    Type
REMARK                         _______ _______ _______ _____ _____    ______ ____
ROOT
ATOM      1  C   UNL     1       3.426   4.638  -0.007  0.00  0.00    +0.050 A 
ATOM      2  C   UNL     1       2.531   5.667   0.007  0.00  0.00    +0.093 A 
ATOM      3  C   UNL     1       1.155   5.371   0.019  0.00  0.00    +0.253 A 
ATOM      4  O   UNL     1       0.326   6.266   0.031  0.00  0.00    -0.268 OA
ATOM      5  N   UNL     1       0.770   4.076   0.011  0.00  0.00    -0.291 N 
ATOM      6  H   UNL     1      -0.172   3.849   0.015  0.00  0.00    +0.172 HD
ATOM      7  C   UNL     1       1.710   3.093   0.002  0.00  0.00    +0.234 A 
ATOM      8  N   UNL     1       2.994   3.378  -0.009  0.00  0.00    -0.217 NA
ATOM      9  N   UNL     1       1.308   1.772  -0.001  0.00  0.00    -0.184 N 
ATOM     10  C   UNL     1       2.131   0.682  -0.015  0.00  0.00    +0.133 A 
ATOM     11  C   UNL     1       1.348  -0.427  -0.013  0.00  0.00    +0.077 A 
ATOM     12  C   UNL     1       0.002  -0.004   0.002  0.00  0.00    +0.130 A 
ATOM     13  N   UNL     1      -0.016   1.313   0.009  0.00  0.00    -0.159 NA
ENDROOT
BRANCH  12  14
ATOM     14  C   UNL     1      -1.183  -0.887   0.009  0.00  0.00    +0.155 A 
ATOM     15  C   UNL     1      -2.481  -0.480   0.029  0.00  0.00    +0.051 A 
ATOM     16  C   UNL     1      -3.271  -1.647   0.025  0.00  0.00    +0.042 A 
ATOM     17  C   UNL     1      -2.426  -2.696   0.012  0.00  0.00    +0.196 A 
ATOM     18  O   UNL     1      -1.166  -2.233   0.003  0.00  0.00    -0.461 OA
ENDBRANCH  12  14
BRANCH  10  19
ATOM     19  N   UNL     1       3.523   0.704  -0.027  0.00  0.00    -0.266 N 
ATOM     20  C   UNL     1       4.216  -0.452  -0.039  0.00  0.00    +0.250 C 
ATOM     21  O   UNL     1       3.625  -1.515  -0.039  0.00  0.00    -0.270 OA
ATOM     22  H   UNL     1       3.995   1.552  -0.028  0.00  0.00    +0.157 HD
BRANCH  20  23
ATOM     23  C   UNL     1       5.693  -0.428  -0.053  0.00  0.00    +0.051 A 
ATOM     24  C   UNL     1       6.375   0.790  -0.059  0.00  0.00    +0.014 A 
ATOM     25  C   UNL     1       7.754   0.805  -0.066  0.00  0.00    +0.001 A 
ATOM     26  C   UNL     1       8.463  -0.384  -0.078  0.00  0.00    +0.001 A 
ATOM     27  C   UNL     1       7.795  -1.595  -0.078  0.00  0.00    +0.016 A 
ATOM     28  C   UNL     1       6.414  -1.625  -0.065  0.00  0.00    +0.030 A 
ATOM     29 BR   UNL     1       5.502  -3.281  -0.065  0.00  0.00    -0.050 Br
ENDBRANCH  20  23
ENDBRANCH  10  19
BRANCH   1  30
ATOM     30  C   UNL     1       4.905   4.926  -0.020  0.00  0.00    +0.055 C 
BRANCH  30  32
ATOM     31  C   UNL     1       6.945   5.186   1.398  0.00  0.00    +0.004 C 
ATOM     32  C   UNL     1       5.443   4.893   1.412  0.00  0.00    +0.003 C 
ENDBRANCH  30  32
ENDBRANCH   1  30
TORSDOF 5
