REMARK  Name = ZINC12475169
REMARK  7 active torsions:
REMARK  status: ('A' for Active; 'I' for Inactive)
REMARK    1  A    between atoms: C_1  and  C_2
REMARK    2  A    between atoms: C_3  and  C_11
REMARK    3  A    between atoms: N_13  and  N_14
REMARK    4  A    between atoms: C_15  and  C_16
REMARK    5  A    between atoms: C_15  and  C_17
REMARK    6  A    between atoms: C_20  and  O_24
REMARK    7  A    between atoms: C_22  and  O_23
REMARK                            x       y       z     vdW  Elec       q    Type
REMARK                         _______ _______ _______ _____ _____    ______ ____
ROOT
ATOM      1  C   UNL     1      -0.004  -0.381  -2.476  0.00  0.00    +0.282 C 
ATOM      2  O   UNL     1      -0.117   0.804  -2.738  0.00  0.00    -0.267 OA
ATOM      3  N   UNL     1       0.105  -1.283  -3.471  0.00  0.00    -0.201 N 
ATOM      4  H   UNL     1       0.118  -2.231  -3.266  0.00  0.00    +0.178 HD
ENDROOT
BRANCH   1   7
ATOM      5  C   UNL     1      -2.528  -0.800  -0.692  0.00  0.00    +0.068 C 
ATOM      6  C   UNL     1      -1.087  -1.006  -0.304  0.00  0.00    +0.069 A 
ATOM      7  C   UNL     1       0.012  -0.810  -1.125  0.00  0.00    +0.133 A 
ATOM      8  N   UNL     1       1.127  -1.115  -0.366  0.00  0.00    -0.295 N 
ATOM      9  C   UNL     1       2.457  -1.104  -0.646  0.00  0.00    +0.093 A 
ATOM     10  C   UNL     1       3.362  -1.455   0.295  0.00  0.00    +0.018 A 
ATOM     11  C   UNL     1       2.935  -1.836   1.575  0.00  0.00    +0.005 A 
ATOM     12  C   UNL     1       1.603  -1.850   1.864  0.00  0.00    +0.047 A 
ATOM     13  C   UNL     1       0.678  -1.482   0.871  0.00  0.00    +0.138 A 
ATOM     14  N   UNL     1      -0.651  -1.402   0.882  0.00  0.00    -0.232 NA
ENDBRANCH   1   7
BRANCH   3  15
ATOM     15  N   UNL     1       0.198  -0.852  -4.801  0.00  0.00    -0.184 NA
ATOM     16  C   UNL     1       0.303  -1.722  -5.759  0.00  0.00    +0.067 C 
ATOM     17  C   UNL     1       0.325  -3.195  -5.441  0.00  0.00    +0.068 C 
BRANCH  16  18
ATOM     18  C   UNL     1       0.401  -1.268  -7.157  0.00  0.00    +0.039 A 
ATOM     19  C   UNL     1       0.508  -2.202  -8.192  0.00  0.00    +0.017 A 
ATOM     20  C   UNL     1       0.600  -1.774  -9.498  0.00  0.00    +0.046 A 
ATOM     21  C   UNL     1       0.586  -0.415  -9.792  0.00  0.00    +0.120 A 
ATOM     22  C   UNL     1       0.480   0.519  -8.772  0.00  0.00    +0.091 A 
ATOM     23  C   UNL     1       0.381   0.101  -7.456  0.00  0.00    +0.129 A 
BRANCH  23  24
ATOM     24  O   UNL     1       0.271   1.015  -6.458  0.00  0.00    -0.506 OA
ATOM     25  H   UNL     1       1.119   1.308  -6.097  0.00  0.00    +0.292 HD
ENDBRANCH  23  24
BRANCH  21  26
ATOM     26  O   UNL     1       0.676  -0.001 -11.082  0.00  0.00    -0.507 OA
ATOM     27  H   UNL     1      -0.178   0.094 -11.525  0.00  0.00    +0.292 HD
ENDBRANCH  21  26
ENDBRANCH  16  18
ENDBRANCH   3  15
TORSDOF 5
