REMARK  Name = ZINC34749304
REMARK  10 active torsions:
REMARK  status: ('A' for Active; 'I' for Inactive)
REMARK    1  A    between atoms: C_1  and  C_2
REMARK    2  A    between atoms: C_2  and  C_3
REMARK    3  A    between atoms: C_4  and  C_35
REMARK    4  A    between atoms: N_10  and  C_25
REMARK    5  A    between atoms: N_16  and  C_19
REMARK    6  A    between atoms: C_19  and  C_20
REMARK    7  A    between atoms: N_22  and  C_23
REMARK    8  A    between atoms: N_22  and  C_24
REMARK    9  A    between atoms: C_25  and  C_26
REMARK   10  A    between atoms: N_28  and  C_29
REMARK                            x       y       z     vdW  Elec       q    Type
REMARK                         _______ _______ _______ _____ _____    ______ ____
ROOT
ATOM      1  C   UNL     1       0.777  -0.447   1.260  0.00  0.00    -0.023 A 
ATOM      2  C   UNL     1       2.113  -0.575   1.268  0.00  0.00    -0.007 A 
ATOM      3  S   UNL     1       2.467  -1.119   2.928  0.00  0.00    -0.073 S 
ATOM      4  C   UNL     1       0.811  -1.159   3.564  0.00  0.00    +0.117 A 
ATOM      5  C   UNL     1       0.030  -0.743   2.470  0.00  0.00    +0.076 A 
ATOM      6  C   UNL     1      -1.381  -0.676   2.702  0.00  0.00    +0.264 A 
ATOM      7  O   UNL     1      -2.137  -0.331   1.811  0.00  0.00    -0.267 OA
ATOM      8  N   UNL     1      -1.860  -1.000   3.917  0.00  0.00    -0.271 N 
ATOM      9  C   UNL     1      -1.029  -1.389   4.926  0.00  0.00    +0.202 A 
ATOM     10  N   UNL     1       0.272  -1.470   4.737  0.00  0.00    -0.208 NA
ATOM     11  N   UNL     1      -1.557  -1.711   6.151  0.00  0.00    -0.304 N 
ATOM     12  C   UNL     1      -1.952  -3.093   6.465  0.00  0.00    +0.089 C 
ATOM     13  C   UNL     1      -1.319  -3.488   7.803  0.00  0.00    -0.059 C 
ATOM     14  N   UNL     1      -1.688  -2.504   8.828  0.00  0.00    +0.387 N 
ATOM     15  C   UNL     1      -1.118  -1.194   8.492  0.00  0.00    -0.059 C 
ATOM     16  C   UNL     1      -1.737  -0.686   7.191  0.00  0.00    +0.089 C 
ATOM     17  C   UNL     1       3.081  -0.319   0.142  0.00  0.00    +0.052 C 
ATOM     18  H   UNL     1      -2.694  -2.430   8.874  0.00  0.00    -0.081 HD
ENDROOT
BRANCH   1  20
ATOM     19  C   UNL     1      -0.046   1.530   0.010  0.00  0.00    +0.009 C 
ATOM     20  C   UNL     1       0.062   0.003   0.013  0.00  0.00    +0.033 C 
ENDBRANCH   1  20
BRANCH  14  21
ATOM     21  C   UNL     1      -1.173  -2.941  10.132  0.00  0.00    +0.019 C 
BRANCH  21  22
ATOM     22  C   UNL     1      -1.655  -1.998  11.205  0.00  0.00    +0.199 C 
ATOM     23  O   UNL     1      -2.358  -1.056  10.911  0.00  0.00    -0.278 OA
ATOM     24  N   UNL     1      -1.303  -2.203  12.490  0.00  0.00    -0.309 N 
ATOM     25  C   UNL     1      -1.772  -1.287  13.532  0.00  0.00    +0.131 C 
ATOM     26  C   UNL     1      -0.453  -3.343  12.844  0.00  0.00    +0.131 C 
ENDBRANCH  21  22
ENDBRANCH  14  21
BRANCH   8  27
ATOM     27  C   UNL     1      -3.303  -0.934   4.161  0.00  0.00    +0.223 C 
BRANCH  27  28
ATOM     28  C   UNL     1      -3.944  -2.233   3.744  0.00  0.00    +0.233 C 
ATOM     29  O   UNL     1      -3.262  -3.126   3.288  0.00  0.00    -0.274 OA
ATOM     30  N   UNL     1      -5.274  -2.402   3.877  0.00  0.00    -0.311 N 
ATOM     31  H   UNL     1      -5.820  -1.687   4.242  0.00  0.00    +0.149 HD
BRANCH  30  32
ATOM     32  C   UNL     1      -5.896  -3.664   3.472  0.00  0.00    +0.073 C 
ATOM     33  C   UNL     1      -5.801  -4.671   4.620  0.00  0.00    +0.022 C 
ATOM     34  C   UNL     1      -6.452  -5.990   4.197  0.00  0.00    +0.002 C 
ATOM     35  C   UNL     1      -7.922  -5.747   3.853  0.00  0.00    +0.000 C 
ATOM     36  C   UNL     1      -8.017  -4.739   2.705  0.00  0.00    +0.002 C 
ATOM     37  C   UNL     1      -7.367  -3.421   3.128  0.00  0.00    +0.022 C 
ENDBRANCH  30  32
ENDBRANCH  27  28
ENDBRANCH   8  27
TORSDOF 6
