REMARK  Name = ZINC43569851
REMARK  5 active torsions:
REMARK  status: ('A' for Active; 'I' for Inactive)
REMARK    1  A    between atoms: C_1  and  C_2
REMARK    2  A    between atoms: C_4  and  N_9
REMARK    3  A    between atoms: C_7  and  N_8
REMARK    4  A    between atoms: C_10  and  C_12
REMARK    5  A    between atoms: C_12  and  C_13
REMARK                            x       y       z     vdW  Elec       q    Type
REMARK                         _______ _______ _______ _____ _____    ______ ____
ROOT
ATOM      1  N   UNL     1       0.029  -2.770  -2.423  0.00  0.00    -0.285 N 
ATOM      2  C   UNL     1       0.149  -4.112  -2.433  0.00  0.00    +0.222 C 
ATOM      3  O   UNL     1       0.163  -4.728  -1.388  0.00  0.00    -0.275 OA
ATOM      4  H   UNL     1      -0.059  -2.285  -3.258  0.00  0.00    +0.155 HD
ENDROOT
BRANCH   1   8
ATOM      5  C   UNL     1       1.622  -2.362   2.211  0.00  0.00    +0.046 C 
ATOM      6  C   UNL     1       0.795  -1.857   1.057  0.00  0.00    -0.028 A 
ATOM      7  C   UNL     1       0.793  -2.541  -0.142  0.00  0.00    +0.028 A 
ATOM      8  C   UNL     1       0.031  -2.076  -1.206  0.00  0.00    +0.034 A 
ATOM      9  C   UNL     1      -0.729  -0.922  -1.063  0.00  0.00    +0.025 A 
ATOM     10  C   UNL     1      -0.727  -0.238   0.136  0.00  0.00    +0.025 A 
ATOM     11  C   UNL     1       0.031  -0.706   1.202  0.00  0.00    +0.028 A 
BRANCH  11  12
ATOM     12  N   UNL     1       0.028  -0.016   2.418  0.00  0.00    -0.358 N 
ATOM     13  H   UNL     1       0.560  -0.341   3.161  0.00  0.00    +0.142 HD
ATOM     14  H   UNL     1      -0.506   0.787   2.519  0.00  0.00    +0.142 HD
ENDBRANCH  11  12
ENDBRANCH   1   8
BRANCH   2  15
ATOM     15  C   UNL     1       0.267  -4.848  -3.743  0.00  0.00    +0.131 C 
BRANCH  15  16
ATOM     16  C   UNL     1       0.389  -6.327  -3.479  0.00  0.00    -0.039 A 
ATOM     17  C   UNL     1       1.636  -6.898  -3.305  0.00  0.00    +0.005 A 
ATOM     18  C   UNL     1       1.748  -8.254  -3.063  0.00  0.00    +0.015 A 
ATOM     19  C   UNL     1       0.612  -9.040  -2.994  0.00  0.00    +0.018 A 
ATOM     20  C   UNL     1      -0.636  -8.469  -3.168  0.00  0.00    +0.015 A 
ATOM     21  C   UNL     1      -0.747  -7.112  -3.405  0.00  0.00    +0.005 A 
ATOM     22 BR   UNL     1       0.765 -10.896  -2.663  0.00  0.00    -0.050 Br
ENDBRANCH  15  16
ENDBRANCH   2  15
TORSDOF 4
