REMARK  Name = ZINC11816200
REMARK  7 active torsions:
REMARK  status: ('A' for Active; 'I' for Inactive)
REMARK    1  A    between atoms: C_1  and  C_2
REMARK    2  A    between atoms: C_2  and  C_3
REMARK    3  A    between atoms: C_2  and  C_4
REMARK    4  A    between atoms: C_4  and  C_5
REMARK    5  A    between atoms: C_5  and  N_48
REMARK    6  A    between atoms: C_11  and  C_13
REMARK    7  A    between atoms: C_13  and  C_14
REMARK                            x       y       z     vdW  Elec       q    Type
REMARK                         _______ _______ _______ _____ _____    ______ ____
ROOT
ATOM      1  C   UNL     1       5.513   5.227  -3.426  0.00  0.00    -0.059 C 
ATOM      2  C   UNL     1       5.310   6.588  -2.758  0.00  0.00    +0.085 C 
ATOM      3  N   UNL     1       3.884   6.859  -2.598  0.00  0.00    -0.318 N 
ATOM      4  C   UNL     1       2.951   5.903  -2.657  0.00  0.00    +0.200 C 
ATOM      5  O   UNL     1       1.791   6.211  -2.483  0.00  0.00    -0.278 OA
ATOM      6  C   UNL     1       3.280   4.462  -2.931  0.00  0.00    +0.028 C 
ATOM      7  H   UNL     1       3.601   7.774  -2.442  0.00  0.00    +0.149 HD
ATOM      8  N   UNL     1       4.715   4.230  -2.684  0.00  0.00    +0.389 N 
ATOM      9  H   UNL     1       4.904   4.329  -1.680  0.00  0.00    -0.081 HD
ENDROOT
BRANCH   8  10
ATOM     10  C   UNL     1       5.088   2.862  -3.111  0.00  0.00    -0.077 C 
BRANCH  10  11
ATOM     11  C   UNL     1       4.930   2.718  -4.626  0.00  0.00    -0.016 C 
BRANCH  11  13
ATOM     12  C   UNL     1       4.997   1.107  -6.535  0.00  0.00    +0.007 C 
ATOM     13  C   UNL     1       5.274   1.286  -5.041  0.00  0.00    -0.019 C 
ATOM     14  C   UNL     1       6.754   1.016  -4.761  0.00  0.00    +0.007 C 
ENDBRANCH  11  13
ENDBRANCH  10  11
ENDBRANCH   8  10
BRANCH   6  15
ATOM     15  C   UNL     1       2.463   3.568  -1.996  0.00  0.00    +0.092 C 
BRANCH  15  16
ATOM     16  C   UNL     1       2.844   3.856  -0.567  0.00  0.00    +0.237 C 
ATOM     17  O   UNL     1       3.756   4.617  -0.324  0.00  0.00    -0.274 OA
ATOM     18  N   UNL     1       2.170   3.267   0.441  0.00  0.00    -0.181 N 
ATOM     19  C   UNL     1       2.527   3.535   1.843  0.00  0.00    +0.140 C 
ATOM     20  C   UNL     1       2.692   2.192   2.565  0.00  0.00    +0.024 C 
ATOM     21  C   UNL     1       1.435   1.346   2.339  0.00  0.00    +0.032 C 
ATOM     22  C   UNL     1       1.244   1.111   0.839  0.00  0.00    +0.190 C 
ATOM     23  O   UNL     1       1.099   2.372   0.176  0.00  0.00    -0.277 OA
ENDBRANCH  15  16
ENDBRANCH   6  15
TORSDOF 5
