REMARK  Name = ZINC07706559
REMARK  8 active torsions:
REMARK  status: ('A' for Active; 'I' for Inactive)
REMARK    1  A    between atoms: C_1  and  C_2
REMARK    2  A    between atoms: C_2  and  C_3
REMARK    3  A    between atoms: C_6  and  C_9
REMARK    4  A    between atoms: C_9  and  C_11
REMARK    5  A    between atoms: C_9  and  N_12
REMARK    6  A    between atoms: C_13  and  C_15
REMARK    7  A    between atoms: C_15  and  N_16
REMARK    8  A    between atoms: C_22  and  N_27
REMARK                            x       y       z     vdW  Elec       q    Type
REMARK                         _______ _______ _______ _____ _____    ______ ____
ROOT
ATOM      1  C   UNL     1      -0.013   1.086   0.008  0.00  0.00    +0.212 C 
ENDROOT
BRANCH   1   2
ATOM      2  N   UNL     1      -0.721   1.571  -1.179  0.00  0.00    -0.225 N 
ATOM      3  C   UNL     1      -1.714   0.906  -1.798  0.00  0.00    +0.254 C 
ATOM      4  O   UNL     1      -2.157  -0.175  -1.467  0.00  0.00    -0.270 OA
ATOM      5  C   UNL     1      -2.176   1.713  -2.947  0.00  0.00    +0.050 A 
ATOM      6  C   UNL     1      -3.148   1.544  -3.920  0.00  0.00    +0.016 A 
ATOM      7  C   UNL     1      -3.329   2.519  -4.888  0.00  0.00    +0.033 A 
ATOM      8  C   UNL     1      -2.546   3.659  -4.889  0.00  0.00    +0.127 A 
ATOM      9  C   UNL     1      -1.569   3.841  -3.923  0.00  0.00    +0.046 A 
ATOM     10  C   UNL     1      -1.378   2.875  -2.948  0.00  0.00    +0.052 A 
ATOM     11  C   UNL     1      -0.461   2.737  -1.797  0.00  0.00    +0.254 C 
ATOM     12  O   UNL     1       0.384   3.543  -1.464  0.00  0.00    -0.270 OA
BRANCH   8  13
ATOM     13  N   UNL     1      -2.752   4.690  -5.930  0.00  0.00    +0.056 N 
ATOM     14  O   UNL     1      -3.608   4.534  -6.782  0.00  0.00    -0.126 OA
ATOM     15  O   UNL     1      -2.064   5.696  -5.936  0.00  0.00    -0.126 OA
ENDBRANCH   8  13
ENDBRANCH   1   2
BRANCH   1  17
ATOM     16  N   UNL     1      -0.242   1.246   2.466  0.00  0.00    -0.307 N 
ATOM     17  C   UNL     1      -0.718   1.572   1.248  0.00  0.00    +0.231 C 
ATOM     18  O   UNL     1      -1.714   2.256   1.150  0.00  0.00    -0.274 OA
ATOM     19  H   UNL     1       0.555   0.699   2.544  0.00  0.00    +0.149 HD
BRANCH  16  20
ATOM     20  C   UNL     1      -0.927   1.718   3.671  0.00  0.00    +0.100 C 
ATOM     21  C   UNL     1      -0.438   3.126   4.018  0.00  0.00    +0.033 C 
BRANCH  20  25
ATOM     22  C   UNL     1      -0.081  -0.925   6.918  0.00  0.00    -0.048 A 
ATOM     23  C   UNL     1      -1.353  -0.406   6.763  0.00  0.00    +0.004 A 
ATOM     24  C   UNL     1      -1.627   0.449   5.712  0.00  0.00    +0.006 A 
ATOM     25  C   UNL     1      -0.629   0.786   4.817  0.00  0.00    -0.027 A 
ATOM     26  C   UNL     1       0.642   0.263   4.970  0.00  0.00    +0.006 A 
ATOM     27  C   UNL     1       0.917  -0.588   6.023  0.00  0.00    +0.004 A 
BRANCH  22  29
ATOM     28  C   UNL     1      -0.041  -3.301   7.626  0.00  0.00    +0.009 C 
ATOM     29  C   UNL     1       0.217  -1.858   8.064  0.00  0.00    +0.032 C 
ENDBRANCH  22  29
ENDBRANCH  20  25
ENDBRANCH  16  20
ENDBRANCH   1  17
TORSDOF 6
