REMARK  Name = ZINC67621520
REMARK  9 active torsions:
REMARK  status: ('A' for Active; 'I' for Inactive)
REMARK    1  A    between atoms: C_1  and  C_2
REMARK    2  A    between atoms: C_5  and  N_8
REMARK    3  A    between atoms: N_11  and  C_12
REMARK    4  A    between atoms: C_12  and  C_13
REMARK    5  A    between atoms: C_13  and  N_14
REMARK    6  A    between atoms: C_17  and  N_22
REMARK    7  A    between atoms: C_19  and  C_21
REMARK    8  A    between atoms: C_23  and  C_28
REMARK    9  A    between atoms: C_25  and  C_27
REMARK                            x       y       z     vdW  Elec       q    Type
REMARK                         _______ _______ _______ _____ _____    ______ ____
ROOT
ATOM      1  N   UNL     1       0.666  -9.163   3.346  0.00  0.00    -0.327 N 
ATOM      2  C   UNL     1       0.789 -10.544   3.331  0.00  0.00    +0.124 A 
ATOM      3  C   UNL     1       0.799 -11.240   2.124  0.00  0.00    +0.091 A 
ATOM      4  C   UNL     1       0.924 -12.622   2.163  0.00  0.00    +0.159 A 
ATOM      5  N   UNL     1       1.029 -13.229   3.342  0.00  0.00    -0.213 NA
ATOM      6  C   UNL     1       1.016 -12.537   4.463  0.00  0.00    +0.130 A 
ATOM      7  N   UNL     1       0.905 -11.224   4.469  0.00  0.00    -0.218 NA
ATOM      8  C   UNL     1       1.137 -13.267   5.776  0.00  0.00    +0.088 C 
ATOM      9  H   UNL     1       0.664  -8.686   4.190  0.00  0.00    +0.148 HD
ENDROOT
BRANCH   4  10
ATOM     10  N   UNL     1       0.939 -13.365   0.981  0.00  0.00    -0.219 N 
ATOM     11  C   UNL     1       1.502 -14.591   0.812  0.00  0.00    +0.044 A 
ATOM     12  C   UNL     1       1.299 -14.961  -0.473  0.00  0.00    +0.048 A 
ATOM     13  C   UNL     1       0.591 -13.935  -1.111  0.00  0.00    +0.061 A 
ATOM     14  N   UNL     1       0.370 -12.984  -0.241  0.00  0.00    -0.170 NA
ATOM     15  C   UNL     1       0.153 -13.932  -2.553  0.00  0.00    +0.067 C 
ATOM     16  C   UNL     1       2.223 -15.391   1.866  0.00  0.00    +0.066 C 
ENDBRANCH   4  10
BRANCH   1  17
ATOM     17  C   UNL     1       0.540  -8.425   2.087  0.00  0.00    +0.121 C 
BRANCH  17  18
ATOM     18  C   UNL     1       0.420  -6.929   2.382  0.00  0.00    +0.124 C 
BRANCH  18  22
ATOM     19  N   UNL     1       0.058  -4.170  -0.021  0.00  0.00    -0.269 N 
ATOM     20  C   UNL     1       0.174  -4.849   1.138  0.00  0.00    +0.304 C 
ATOM     21  O   UNL     1       0.172  -4.250   2.196  0.00  0.00    -0.253 OA
ATOM     22  N   UNL     1       0.294  -6.191   1.123  0.00  0.00    -0.298 N 
ATOM     23  H   UNL     1      -0.018  -4.651  -0.860  0.00  0.00    +0.156 HD
ATOM     24  H   UNL     1       0.296  -6.669   0.279  0.00  0.00    +0.150 HD
BRANCH  19  29
ATOM     25  C   UNL     1       0.011   1.503   0.007  0.00  0.00    +0.044 C 
ATOM     26  C   UNL     1       0.024  -0.004  -0.000  0.00  0.00    -0.050 A 
ATOM     27  C   UNL     1       0.778  -0.692   0.931  0.00  0.00    +0.005 A 
ATOM     28  C   UNL     1       0.792  -2.073   0.927  0.00  0.00    +0.023 A 
ATOM     29  C   UNL     1       0.046  -2.771  -0.014  0.00  0.00    +0.035 A 
ATOM     30  C   UNL     1      -0.711  -2.076  -0.948  0.00  0.00    +0.023 A 
ATOM     31  C   UNL     1      -0.725  -0.695  -0.935  0.00  0.00    +0.005 A 
ENDBRANCH  19  29
ENDBRANCH  18  22
ENDBRANCH  17  18
ENDBRANCH   1  17
TORSDOF 5
