REMARK  Name = ZINC20681636
REMARK  7 active torsions:
REMARK  status: ('A' for Active; 'I' for Inactive)
REMARK    1  A    between atoms: C_1  and  O_2
REMARK    2  A    between atoms: O_2  and  C_3
REMARK    3  A    between atoms: C_6  and  O_27
REMARK    4  A    between atoms: C_16  and  C_19
REMARK    5  A    between atoms: C_22  and  O_26
REMARK    6  A    between atoms: C_24  and  O_25
REMARK    7  A    between atoms: O_27  and  C_28
REMARK                            x       y       z     vdW  Elec       q    Type
REMARK                         _______ _______ _______ _____ _____    ______ ____
ROOT
ATOM      1  C   UNL     1       0.363   0.793   6.825  0.00  0.00    +0.126 A 
ATOM      2  C   UNL     1       1.274  -0.029   6.184  0.00  0.00    +0.049 A 
ATOM      3  C   UNL     1       1.224  -0.176   4.810  0.00  0.00    +0.051 A 
ATOM      4  C   UNL     1       0.268   0.507   4.081  0.00  0.00    +0.141 A 
ATOM      5  C   UNL     1      -0.654   1.338   4.725  0.00  0.00    +0.077 A 
ATOM      6  C   UNL     1      -0.606   1.482   6.099  0.00  0.00    +0.026 A 
ATOM      7  C   UNL     1      -1.560   2.360   6.855  0.00  0.00    +0.052 C 
ATOM      8  C   UNL     1      -0.859   3.601   7.357  0.00  0.00    -0.022 C 
ATOM      9  C   UNL     1      -1.641   4.646   7.245  0.00  0.00    -0.030 C 
ATOM     10  C   UNL     1      -2.981   4.247   6.659  0.00  0.00    +0.033 C 
ATOM     11  C   UNL     1      -2.678   2.902   5.939  0.00  0.00    +0.029 C 
ATOM     12  C   UNL     1      -2.082   3.229   4.568  0.00  0.00    +0.109 C 
ATOM     13  N   UNL     1      -1.603   1.997   3.940  0.00  0.00    -0.333 N 
ATOM     14  H   UNL     1      -1.995   1.692   2.958  0.00  0.00    +0.147 HD
ENDROOT
BRANCH  12  15
ATOM     15  C   UNL     1      -0.931   4.187   4.736  0.00  0.00    +0.015 A 
ATOM     16  C   UNL     1       0.340   3.704   4.982  0.00  0.00    +0.012 A 
ATOM     17  C   UNL     1       1.398   4.580   5.131  0.00  0.00    +0.046 A 
ATOM     18  C   UNL     1       1.184   5.949   5.046  0.00  0.00    +0.120 A 
ATOM     19  C   UNL     1      -0.091   6.436   4.806  0.00  0.00    +0.091 A 
ATOM     20  C   UNL     1      -1.150   5.555   4.651  0.00  0.00    +0.125 A 
BRANCH  20  21
ATOM     21  O   UNL     1      -2.401   6.030   4.414  0.00  0.00    -0.506 OA
ATOM     22  H   UNL     1      -2.574   7.114   4.346  0.00  0.00    +0.292 HD
ENDBRANCH  20  21
BRANCH  18  23
ATOM     23  O   UNL     1       2.224   6.810   5.198  0.00  0.00    -0.507 OA
ATOM     24  H   UNL     1       2.054   7.895   5.131  0.00  0.00    +0.292 HD
ENDBRANCH  18  23
ENDBRANCH  12  15
BRANCH   1  26
ATOM     25  C   UNL     1       1.432   0.197   8.864  0.00  0.00    +0.277 C 
ATOM     26  O   UNL     1       0.415   0.929   8.177  0.00  0.00    -0.495 OA
ENDBRANCH   1  26
BRANCH   4  27
ATOM     27  O   UNL     1       0.221   0.366   2.728  0.00  0.00    -0.493 OA
ATOM     28  C   UNL     1       1.191  -0.497   2.132  0.00  0.00    +0.277 C 
ENDBRANCH   4  27
TORSDOF 5
