REMARK  Name = ZINC36601273
REMARK  8 active torsions:
REMARK  status: ('A' for Active; 'I' for Inactive)
REMARK    1  A    between atoms: C_1  and  C_2
REMARK    2  A    between atoms: C_5  and  C_7
REMARK    3  A    between atoms: C_7  and  N_8
REMARK    4  A    between atoms: N_8  and  C_9
REMARK    5  A    between atoms: C_9  and  C_11
REMARK    6  A    between atoms: C_9  and  C_20
REMARK    7  A    between atoms: N_22  and  C_23
REMARK    8  A    between atoms: C_29  and  C_31
REMARK                            x       y       z     vdW  Elec       q    Type
REMARK                         _______ _______ _______ _____ _____    ______ ____
ROOT
ATOM      1  C   UNL     1       3.159  -3.083  -2.218  0.00  0.00    +0.193 C 
ENDROOT
BRANCH   1   2
ATOM      2  C   UNL     1       2.762  -2.344  -3.470  0.00  0.00    -0.015 A 
ATOM      3  C   UNL     1       2.515  -3.044  -4.636  0.00  0.00    +0.010 A 
ATOM      4  C   UNL     1       2.150  -2.370  -5.786  0.00  0.00    +0.050 A 
ATOM      5  C   UNL     1       2.031  -0.990  -5.773  0.00  0.00    +0.166 A 
ATOM      6  C   UNL     1       2.280  -0.284  -4.598  0.00  0.00    +0.167 A 
ATOM      7  C   UNL     1       2.640  -0.967  -3.448  0.00  0.00    +0.055 A 
ATOM      8  O   UNL     1       2.098   1.046  -4.842  0.00  0.00    -0.453 OA
ATOM      9  C   UNL     1       2.134   1.183  -6.275  0.00  0.00    +0.466 C 
ATOM     10  O   UNL     1       1.693  -0.102  -6.752  0.00  0.00    -0.453 OA
ENDBRANCH   1   2
BRANCH   1  11
ATOM     11  C   UNL     1       3.888  -4.349  -2.592  0.00  0.00    +0.238 C 
ATOM     12  O   UNL     1       3.448  -5.426  -2.249  0.00  0.00    -0.273 OA
ATOM     13  N   UNL     1       5.028  -4.283  -3.308  0.00  0.00    -0.311 N 
ATOM     14  H   UNL     1       5.380  -3.422  -3.582  0.00  0.00    +0.149 HD
BRANCH  13  15
ATOM     15  C   UNL     1       5.736  -5.513  -3.671  0.00  0.00    +0.073 C 
ATOM     16  C   UNL     1       6.654  -5.932  -2.521  0.00  0.00    +0.022 C 
ATOM     17  C   UNL     1       7.394  -7.216  -2.901  0.00  0.00    +0.002 C 
ATOM     18  C   UNL     1       8.231  -6.971  -4.158  0.00  0.00    +0.000 C 
ATOM     19  C   UNL     1       7.312  -6.552  -5.308  0.00  0.00    +0.002 C 
ATOM     20  C   UNL     1       6.573  -5.267  -4.928  0.00  0.00    +0.022 C 
ENDBRANCH  13  15
ENDBRANCH   1  11
BRANCH   1  21
ATOM     21  N   UNL     1       1.960  -3.420  -1.448  0.00  0.00    -0.277 N 
ATOM     22  C   UNL     1       0.994  -4.179  -2.003  0.00  0.00    +0.237 C 
ATOM     23  O   UNL     1       1.149  -4.642  -3.113  0.00  0.00    -0.274 OA
BRANCH  22  24
ATOM     24  C   UNL     1      -0.279  -4.452  -1.244  0.00  0.00    +0.159 C 
ATOM     25  C   UNL     1      -0.064  -5.600  -0.234  0.00  0.00    +0.041 C 
ATOM     26  C   UNL     1      -0.522  -6.830  -1.051  0.00  0.00    +0.098 C 
ATOM     27  C   UNL     1      -1.478  -6.259  -2.076  0.00  0.00    +0.214 C 
ATOM     28  O   UNL     1      -2.268  -6.909  -2.727  0.00  0.00    -0.276 OA
ATOM     29  N   UNL     1      -1.325  -4.924  -2.159  0.00  0.00    -0.304 N 
ATOM     30  H   UNL     1      -1.839  -4.349  -2.747  0.00  0.00    +0.149 HD
ENDBRANCH  22  24
BRANCH  21  31
ATOM     31  C   UNL     1       1.809  -2.932  -0.075  0.00  0.00    +0.183 C 
BRANCH  31  36
ATOM     32  C   UNL     1       1.071   2.055  -0.229  0.00  0.00    +0.086 C 
ATOM     33  C   UNL     1       0.796   0.575  -0.157  0.00  0.00    +0.102 A 
ATOM     34  C   UNL     1      -0.419   0.004  -0.070  0.00  0.00    +0.045 A 
ATOM     35  C   UNL     1      -0.211  -1.395  -0.026  0.00  0.00    +0.046 A 
ATOM     36  C   UNL     1       1.117  -1.594  -0.090  0.00  0.00    +0.122 A 
ATOM     37  O   UNL     1       1.722  -0.398  -0.175  0.00  0.00    -0.463 OA
ENDBRANCH  31  36
ENDBRANCH  21  31
ENDBRANCH   1  21
TORSDOF 7
