REMARK  Name = ZINC13717189
REMARK  4 active torsions:
REMARK  status: ('A' for Active; 'I' for Inactive)
REMARK    1  A    between atoms: C_1  and  C_2
REMARK    2  A    between atoms: C_2  and  C_3
REMARK    3  A    between atoms: C_2  and  C_4
REMARK    4  A    between atoms: C_9  and  N_10
REMARK                            x       y       z     vdW  Elec       q    Type
REMARK                         _______ _______ _______ _____ _____    ______ ____
ROOT
ATOM      1  N   UNL     1       4.613   4.034   0.621  0.00  0.00    -0.268 N 
ATOM      2  C   UNL     1       3.421   3.408   0.688  0.00  0.00    +0.315 C 
ATOM      3  O   UNL     1       3.288   2.430   1.397  0.00  0.00    -0.252 OA
ATOM      4  N   UNL     1       2.378   3.867  -0.031  0.00  0.00    -0.222 N 
ATOM      5  C   UNL     1       1.156   3.185   0.031  0.00  0.00    +0.057 A 
ATOM      6  C   UNL     1       1.130   1.801   0.104  0.00  0.00    +0.025 A 
ATOM      7  C   UNL     1      -0.081   1.134   0.162  0.00  0.00    +0.002 A 
ATOM      8  C   UNL     1      -1.270   1.839   0.143  0.00  0.00    +0.001 A 
ATOM      9  C   UNL     1      -1.256   3.222   0.077  0.00  0.00    +0.017 A 
ATOM     10  C   UNL     1      -0.049   3.893   0.019  0.00  0.00    +0.035 A 
ATOM     11  S   UNL     1       0.001   5.655  -0.072  0.00  0.00    -0.086 S 
ATOM     12  C   UNL     1       1.513   5.947  -0.936  0.00  0.00    +0.035 A 
ATOM     13  C   UNL     1       2.545   5.013  -0.819  0.00  0.00    +0.057 A 
ATOM     14  C   UNL     1       3.737   5.231  -1.493  0.00  0.00    +0.025 A 
ATOM     15  C   UNL     1       3.895   6.364  -2.270  0.00  0.00    +0.002 A 
ATOM     16  C   UNL     1       2.870   7.285  -2.382  0.00  0.00    +0.001 A 
ATOM     17  C   UNL     1       1.675   7.078  -1.714  0.00  0.00    +0.017 A 
ATOM     18  H   UNL     1       4.698   4.864   0.126  0.00  0.00    +0.156 HD
ENDROOT
BRANCH   1  24
ATOM     19  C   UNL     1       6.682   4.322   1.834  0.00  0.00    -0.024 A 
ATOM     20  C   UNL     1       7.781   3.779   2.471  0.00  0.00    +0.006 A 
ATOM     21  C   UNL     1       7.932   2.407   2.543  0.00  0.00    +0.000 A 
ATOM     22  C   UNL     1       6.983   1.573   1.979  0.00  0.00    +0.002 A 
ATOM     23  C   UNL     1       5.880   2.109   1.345  0.00  0.00    +0.023 A 
ATOM     24  C   UNL     1       5.728   3.488   1.266  0.00  0.00    +0.038 A 
BRANCH  19  26
ATOM     25  C   UNL     1       6.326   6.384   3.165  0.00  0.00    +0.012 C 
ATOM     26  C   UNL     1       6.518   5.818   1.756  0.00  0.00    +0.015 C 
ATOM     27  C   UNL     1       7.767   6.436   1.124  0.00  0.00    +0.012 C 
ENDBRANCH  19  26
ENDBRANCH   1  24
TORSDOF 2
