REMARK  Name = ZINC13064144
REMARK  13 active torsions:
REMARK  status: ('A' for Active; 'I' for Inactive)
REMARK    1  A    between atoms: C_1  and  C_2
REMARK    2  A    between atoms: C_2  and  C_3
REMARK    3  A    between atoms: C_3  and  C_5
REMARK    4  A    between atoms: C_3  and  N_67
REMARK    5  A    between atoms: N_9  and  C_10
REMARK    6  A    between atoms: C_10  and  C_11
REMARK    7  A    between atoms: C_16  and  C_17
REMARK    8  A    between atoms: C_16  and  N_67
REMARK    9  A    between atoms: C_20  and  C_23
REMARK   10  A    between atoms: C_24  and  C_25
REMARK   11  A    between atoms: C_24  and  N_67
REMARK   12  A    between atoms: C_29  and  O_37
REMARK   13  A    between atoms: O_37  and  C_38
REMARK                            x       y       z     vdW  Elec       q    Type
REMARK                         _______ _______ _______ _____ _____    ______ ____
ROOT
ATOM      1  N   UNL     1      -0.477   3.076   1.026  0.00  0.00    +0.392 N 
ATOM      2  H   UNL     1      -1.490   3.025   1.184  0.00  0.00    -0.080 HD
ENDROOT
BRANCH   1   3
ATOM      3  C   UNL     1      -0.165   4.330   0.307  0.00  0.00    +0.003 C 
BRANCH   3   4
ATOM      4  C   UNL     1       1.205   4.254  -0.315  0.00  0.00    +0.139 A 
ATOM      5  N   UNL     1       1.613   3.384  -1.206  0.00  0.00    -0.115 NA
ATOM      6  N   UNL     1       2.842   3.649  -1.488  0.00  0.00    -0.023 NA
ATOM      7  N   UNL     1       3.229   4.666  -0.799  0.00  0.00    -0.044 NA
ATOM      8  N   UNL     1       2.246   5.071  -0.068  0.00  0.00    -0.223 N 
BRANCH   8   9
ATOM      9  C   UNL     1       2.261   6.205   0.860  0.00  0.00    +0.221 C 
BRANCH   9  10
ATOM     10  C   UNL     1       3.024   5.826   2.104  0.00  0.00    +0.126 A 
ATOM     11  C   UNL     1       4.320   6.092   2.343  0.00  0.00    +0.046 A 
ATOM     12  C   UNL     1       4.618   5.562   3.620  0.00  0.00    +0.041 A 
ATOM     13  C   UNL     1       3.487   4.997   4.081  0.00  0.00    +0.195 A 
ATOM     14  O   UNL     1       2.525   5.160   3.158  0.00  0.00    -0.466 OA
ENDBRANCH   9  10
ENDBRANCH   8   9
ENDBRANCH   3   4
BRANCH   3  16
ATOM     15  C   UNL     1      -2.580   4.783  -0.147  0.00  0.00    +0.002 C 
ATOM     16  C   UNL     1      -1.212   4.540  -0.788  0.00  0.00    -0.011 C 
ENDBRANCH   3  16
ENDBRANCH   1   3
BRANCH   1  17
ATOM     17  C   UNL     1       0.214   3.057   2.332  0.00  0.00    -0.042 C 
BRANCH  17  18
ATOM     18  C   UNL     1      -0.516   3.975   3.278  0.00  0.00    -0.064 A 
ATOM     19  C   UNL     1      -0.210   5.323   3.308  0.00  0.00    +0.002 A 
ATOM     20  C   UNL     1      -0.883   6.165   4.173  0.00  0.00    +0.003 A 
ATOM     21  C   UNL     1      -1.855   5.659   5.015  0.00  0.00    -0.050 A 
ATOM     22  C   UNL     1      -2.157   4.310   4.989  0.00  0.00    +0.003 A 
ATOM     23  C   UNL     1      -1.488   3.468   4.121  0.00  0.00    +0.002 A 
ATOM     24  C   UNL     1      -2.585   6.577   5.961  0.00  0.00    +0.044 C 
ENDBRANCH  17  18
ENDBRANCH   1  17
BRANCH   1  25
ATOM     25  C   UNL     1      -0.058   1.912   0.216  0.00  0.00    -0.036 C 
BRANCH  25  26
ATOM     26  C   UNL     1      -0.795   0.693   0.707  0.00  0.00    +0.001 A 
ATOM     27  C   UNL     1      -1.950   0.314   0.107  0.00  0.00    +0.017 A 
ATOM     28  C   UNL     1      -2.642  -0.875   0.607  0.00  0.00    +0.002 A 
ATOM     29  C   UNL     1      -3.837  -1.313   0.027  0.00  0.00    +0.055 A 
ATOM     30  C   UNL     1      -4.463  -2.438   0.523  0.00  0.00    +0.121 A 
ATOM     31  C   UNL     1      -3.910  -3.136   1.595  0.00  0.00    +0.047 A 
ATOM     32  C   UNL     1      -2.733  -2.715   2.174  0.00  0.00    +0.030 A 
ATOM     33  C   UNL     1      -2.086  -1.583   1.689  0.00  0.00    +0.049 A 
ATOM     34  N   UNL     1      -0.907  -1.145   2.256  0.00  0.00    -0.322 N 
ATOM     35  H   UNL     1      -0.525  -1.633   3.002  0.00  0.00    +0.169 HD
ATOM     36  C   UNL     1      -0.276  -0.055   1.785  0.00  0.00    +0.251 A 
ATOM     37  O   UNL     1       0.767   0.299   2.307  0.00  0.00    -0.268 OA
BRANCH  30  38
ATOM     38  O   UNL     1      -5.625  -2.868  -0.036  0.00  0.00    -0.495 OA
ATOM     39  C   UNL     1      -6.221  -4.040   0.525  0.00  0.00    +0.277 C 
ENDBRANCH  30  38
ENDBRANCH  25  26
ENDBRANCH   1  25
TORSDOF 10
