REMARK  Name = ZINC15326283
REMARK  3 active torsions:
REMARK  status: ('A' for Active; 'I' for Inactive)
REMARK    1  A    between atoms: C_1  and  C_2
REMARK    2  A    between atoms: C_11  and  S_13
REMARK    3  A    between atoms: S_13  and  N_16
REMARK                            x       y       z     vdW  Elec       q    Type
REMARK                         _______ _______ _______ _____ _____    ______ ____
ROOT
ATOM      1  S   UNL     1      -2.285  -6.511  -0.010  0.00  0.00    +0.075 S 
ATOM      2  O   UNL     1      -3.635  -6.618  -0.440  0.00  0.00    -0.150 OA
ATOM      3  O   UNL     1      -1.218  -7.169  -0.680  0.00  0.00    -0.150 OA
ENDROOT
BRANCH   1  14
ATOM      4  C   UNL     1      -0.056   1.513   0.021  0.00  0.00    +0.109 C 
ATOM      5  C   UNL     1      -0.029   0.006   0.018  0.00  0.00    +0.217 C 
ATOM      6  O   UNL     1       1.033  -0.581   0.026  0.00  0.00    -0.276 OA
ATOM      7  N   UNL     1      -1.183  -0.689   0.008  0.00  0.00    -0.271 N 
ATOM      8  C   UNL     1      -2.522  -0.093  -0.008  0.00  0.00    +0.118 C 
ATOM      9  C   UNL     1      -3.493  -1.285  -0.015  0.00  0.00    +0.056 C 
ATOM     10  C   UNL     1      -2.600  -2.505  -0.002  0.00  0.00    -0.023 A 
ATOM     11  C   UNL     1      -1.279  -2.084   0.005  0.00  0.00    +0.040 A 
ATOM     12  C   UNL     1      -0.263  -3.040   0.011  0.00  0.00    +0.026 A 
ATOM     13  C   UNL     1      -0.573  -4.384   0.007  0.00  0.00    +0.030 A 
ATOM     14  C   UNL     1      -1.893  -4.793  -0.004  0.00  0.00    +0.109 A 
ATOM     15  C   UNL     1      -2.905  -3.852  -0.002  0.00  0.00    +0.034 A 
ENDBRANCH   1  14
BRANCH   1  16
ATOM     16  N   UNL     1      -2.247  -7.028   1.563  0.00  0.00    -0.192 N 
ATOM     17  C   UNL     1      -0.985  -7.441   2.195  0.00  0.00    +0.227 C 
ATOM     18  C   UNL     1      -1.229  -8.681   3.016  0.00  0.00    +0.236 C 
ATOM     19  O   UNL     1      -0.329  -9.477   3.182  0.00  0.00    -0.274 OA
ATOM     20  N   UNL     1      -2.435  -8.918   3.566  0.00  0.00    -0.283 N 
ATOM     21  C   UNL     1      -3.505  -8.041   3.348  0.00  0.00    +0.056 A 
ATOM     22  C   UNL     1      -3.416  -7.080   2.335  0.00  0.00    +0.073 A 
ATOM     23  C   UNL     1      -4.463  -6.207   2.106  0.00  0.00    +0.026 A 
ATOM     24  C   UNL     1      -5.602  -6.280   2.889  0.00  0.00    +0.002 A 
ATOM     25  C   UNL     1      -5.693  -7.223   3.896  0.00  0.00    +0.002 A 
ATOM     26  C   UNL     1      -4.649  -8.111   4.125  0.00  0.00    +0.025 A 
ATOM     27  H   UNL     1      -2.564  -9.704   4.119  0.00  0.00    +0.155 HD
ENDBRANCH   1  16
TORSDOF 2
