REMARK  Name = ZINC51147578
REMARK  6 active torsions:
REMARK  status: ('A' for Active; 'I' for Inactive)
REMARK    1  A    between atoms: C_1  and  C_2
REMARK    2  A    between atoms: C_3  and  C_19
REMARK    3  A    between atoms: C_7  and  N_17
REMARK    4  A    between atoms: C_9  and  C_11
REMARK    5  A    between atoms: C_11  and  N_12
REMARK    6  A    between atoms: N_17  and  N_18
REMARK                            x       y       z     vdW  Elec       q    Type
REMARK                         _______ _______ _______ _____ _____    ______ ____
ROOT
ATOM      1  C   UNL     1      -1.563   1.389   0.641  0.00  0.00    +0.045 C 
ATOM      2  C   UNL     1      -1.394  -0.106   0.572  0.00  0.00    -0.028 A 
ATOM      3  C   UNL     1      -2.038  -0.819  -0.364  0.00  0.00    -0.008 A 
ATOM      4  S   UNL     1      -1.524  -2.495  -0.038  0.00  0.00    -0.074 S 
ATOM      5  C   UNL     1      -0.459  -2.193   1.347  0.00  0.00    +0.114 A 
ATOM      6  C   UNL     1      -0.527  -0.792   1.514  0.00  0.00    +0.052 A 
ATOM      7  C   UNL     1       0.255  -0.267   2.579  0.00  0.00    +0.144 A 
ATOM      8  N   UNL     1       0.978  -1.093   3.318  0.00  0.00    -0.214 NA
ATOM      9  C   UNL     1       0.998  -2.396   3.100  0.00  0.00    +0.154 A 
ATOM     10  N   UNL     1       0.285  -2.944   2.135  0.00  0.00    -0.223 NA
ATOM     11  C   UNL     1      -2.973  -0.322  -1.436  0.00  0.00    +0.052 C 
ENDROOT
BRANCH   7  12
ATOM     12  N   UNL     1       0.262   1.092   2.839  0.00  0.00    -0.267 N 
ATOM     13  H   UNL     1       0.110   1.724   2.119  0.00  0.00    +0.167 HD
BRANCH  12  14
ATOM     14  N   UNL     1       0.482   1.543   4.109  0.00  0.00    -0.255 NA
ATOM     15  H   UNL     1       1.355   1.190   4.472  0.00  0.00    +0.140 HD
ATOM     16  H   UNL     1       0.458   2.551   4.144  0.00  0.00    +0.140 HD
ENDBRANCH  12  14
ENDBRANCH   7  12
BRANCH   9  17
ATOM     17  C   UNL     1       1.844  -3.278   3.982  0.00  0.00    +0.221 C 
BRANCH  17  18
ATOM     18  N   UNL     1       1.052  -3.724   5.131  0.00  0.00    -0.245 N 
ATOM     19  C   UNL     1       0.844  -4.993   5.522  0.00  0.00    +0.219 A 
ATOM     20  N   UNL     1       0.086  -4.970   6.588  0.00  0.00    -0.223 NA
ATOM     21  C   UNL     1      -0.209  -3.710   6.906  0.00  0.00    +0.245 A 
ATOM     22  N   UNL     1       0.364  -2.910   6.046  0.00  0.00    -0.158 NA
ENDBRANCH  17  18
ENDBRANCH   9  17
TORSDOF 4
