REMARK  Name = ZINC35543974
REMARK  9 active torsions:
REMARK  status: ('A' for Active; 'I' for Inactive)
REMARK    1  A    between atoms: C_1  and  C_2
REMARK    2  A    between atoms: C_2  and  N_3
REMARK    3  A    between atoms: C_4  and  C_6
REMARK    4  A    between atoms: C_11  and  N_29
REMARK    5  A    between atoms: N_19  and  C_22
REMARK    6  A    between atoms: C_22  and  C_23
REMARK    7  A    between atoms: N_25  and  C_26
REMARK    8  A    between atoms: C_26  and  C_27
REMARK    9  A    between atoms: C_26  and  C_28
REMARK                            x       y       z     vdW  Elec       q    Type
REMARK                         _______ _______ _______ _____ _____    ______ ____
ROOT
ATOM      1  C   UNL     1       1.532  -2.285  -2.665  0.00  0.00    +0.098 C 
ATOM      2  C   UNL     1       0.793  -1.778  -3.903  0.00  0.00    +0.051 C 
ATOM      3  C   UNL     1      -0.574  -2.409  -3.963  0.00  0.00    -0.023 A 
ATOM      4  C   UNL     1      -1.592  -1.753  -4.633  0.00  0.00    +0.038 A 
ATOM      5  C   UNL     1      -2.854  -2.312  -4.695  0.00  0.00    +0.127 A 
ATOM      6  C   UNL     1      -3.105  -3.530  -4.088  0.00  0.00    +0.034 A 
ATOM      7  C   UNL     1      -2.092  -4.190  -3.422  0.00  0.00    +0.025 A 
ATOM      8  C   UNL     1      -0.820  -3.630  -3.360  0.00  0.00    +0.033 A 
ATOM      9  N   UNL     1       0.192  -4.331  -2.684  0.00  0.00    -0.329 N 
ATOM     10  C   UNL     1       1.553  -3.817  -2.673  0.00  0.00    +0.069 C 
ATOM     11  C   UNL     1       2.375  -4.306  -1.492  0.00  0.00    -0.055 C 
ATOM     12  N   UNL     1       2.091  -5.704  -1.169  0.00  0.00    +0.388 N 
ATOM     13  C   UNL     1       0.675  -5.827  -0.793  0.00  0.00    -0.059 C 
ATOM     14  C   UNL     1      -0.178  -5.592  -2.038  0.00  0.00    +0.087 C 
ATOM     15  H   UNL     1       2.279  -6.281  -1.975  0.00  0.00    -0.081 HD
ENDROOT
BRANCH   1  17
ATOM     16  N   UNL     1       0.688  -0.476  -1.203  0.00  0.00    -0.315 N 
ATOM     17  C   UNL     1       0.827  -1.799  -1.425  0.00  0.00    +0.218 C 
ATOM     18  O   UNL     1       0.384  -2.597  -0.627  0.00  0.00    -0.275 OA
ATOM     19  H   UNL     1       1.042   0.162  -1.842  0.00  0.00    +0.149 HD
BRANCH  16  21
ATOM     20  C   UNL     1      -0.019   1.526   0.010  0.00  0.00    +0.024 C 
ATOM     21  C   UNL     1       0.002  -0.004   0.002  0.00  0.00    +0.101 C 
ENDBRANCH  16  21
ENDBRANCH   1  17
BRANCH   5  22
ATOM     22  N   UNL     1      -3.940  -1.607  -5.412  0.00  0.00    +0.056 N 
ATOM     23  O   UNL     1      -3.723  -0.543  -5.942  0.00  0.00    -0.126 OA
ATOM     24  O   UNL     1      -5.045  -2.095  -5.467  0.00  0.00    -0.126 OA
ENDBRANCH   5  22
BRANCH  12  25
ATOM     25  C   UNL     1       2.937  -6.131  -0.047  0.00  0.00    +0.019 C 
BRANCH  25  26
ATOM     26  C   UNL     1       2.733  -7.603   0.204  0.00  0.00    +0.197 C 
ATOM     27  O   UNL     1       1.959  -8.234  -0.484  0.00  0.00    -0.278 OA
ATOM     28  N   UNL     1       3.411  -8.218   1.193  0.00  0.00    -0.315 N 
ATOM     29  H   UNL     1       4.030  -7.714   1.744  0.00  0.00    +0.149 HD
BRANCH  28  30
ATOM     30  C   UNL     1       3.212  -9.649   1.437  0.00  0.00    +0.067 C 
ATOM     31  C   UNL     1       4.123 -10.456   0.510  0.00  0.00    +0.027 C 
ATOM     32  C   UNL     1       3.553  -9.970   2.894  0.00  0.00    +0.027 C 
ENDBRANCH  28  30
ENDBRANCH  25  26
ENDBRANCH  12  25
TORSDOF 6
