REMARK  Name = ZINC22325326
REMARK  7 active torsions:
REMARK  status: ('A' for Active; 'I' for Inactive)
REMARK    1  A    between atoms: C_1  and  C_2
REMARK    2  A    between atoms: C_5  and  C_35
REMARK    3  A    between atoms: N_8  and  C_10
REMARK    4  A    between atoms: C_10  and  C_11
REMARK    5  A    between atoms: C_17  and  C_19
REMARK    6  A    between atoms: C_19  and  C_20
REMARK    7  A    between atoms: C_20  and  C_21
REMARK                            x       y       z     vdW  Elec       q    Type
REMARK                         _______ _______ _______ _____ _____    ______ ____
ROOT
ATOM      1  C   UNL     1      -2.862   4.694 -12.995  0.00  0.00    +0.034 A 
ATOM      2  C   UNL     1      -1.633   4.333 -13.440  0.00  0.00    +0.070 A 
ATOM      3  S   UNL     1      -0.883   3.768 -11.920  0.00  0.00    -0.060 S 
ATOM      4  C   UNL     1      -2.243   4.051 -10.878  0.00  0.00    +0.164 A 
ATOM      5  N   UNL     1      -3.136   4.542 -11.715  0.00  0.00    -0.231 NA
ATOM      6  N   UNL     1      -2.359   3.824  -9.511  0.00  0.00    -0.265 N 
ATOM      7  C   UNL     1      -1.320   3.310  -8.824  0.00  0.00    +0.219 C 
ATOM      8  O   UNL     1      -0.285   3.044  -9.397  0.00  0.00    -0.275 OA
ATOM      9  H   UNL     1      -3.298   4.065  -8.992  0.00  0.00    +0.157 HD
ENDROOT
BRANCH   1  10
ATOM     10  C   UNL     1      -3.890   5.257 -13.943  0.00  0.00    -0.022 C 
BRANCH  10  16
ATOM     11  C   UNL     1      -7.945   4.122 -16.484  0.00  0.00    +0.005 C 
ATOM     12  C   UNL     1      -6.732   3.562 -15.739  0.00  0.00    -0.031 C 
ATOM     13  C   UNL     1      -7.205   2.641 -14.611  0.00  0.00    +0.003 C 
ATOM     14  C   UNL     1      -5.988   2.132 -13.834  0.00  0.00    -0.031 C 
ATOM     15  C   UNL     1      -5.199   3.326 -13.293  0.00  0.00    -0.075 C 
ATOM     16  N   UNL     1      -4.768   4.176 -14.411  0.00  0.00    +0.384 N 
ATOM     17  C   UNL     1      -5.921   4.714 -15.144  0.00  0.00    -0.075 C 
ATOM     18  C   UNL     1      -6.456   1.258 -12.668  0.00  0.00    +0.005 C 
ATOM     19  H   UNL     1      -4.192   3.548 -15.107  0.00  0.00    -0.081 HD
ENDBRANCH  10  16
ENDBRANCH   1  10
BRANCH   7  20
ATOM     20  C   UNL     1      -1.446   3.064  -7.342  0.00  0.00    +0.104 C 
BRANCH  20  21
ATOM     21  C   UNL     1      -0.135   2.480  -6.809  0.00  0.00    +0.083 C 
BRANCH  21  22
ATOM     22  C   UNL     1      -0.261   2.234  -5.328  0.00  0.00    +0.111 A 
ATOM     23  N   UNL     1       0.793   1.715  -4.647  0.00  0.00    -0.310 N 
ATOM     24  H   UNL     1       1.728   1.478  -5.178  0.00  0.00    +0.170 HD
ATOM     25  C   UNL     1       0.724   1.479  -3.323  0.00  0.00    +0.260 A 
ATOM     26  O   UNL     1       1.678   1.012  -2.725  0.00  0.00    -0.267 OA
ATOM     27  C   UNL     1      -0.492   1.786  -2.631  0.00  0.00    +0.075 A 
ATOM     28  C   UNL     1      -0.791   1.612  -1.202  0.00  0.00    -0.023 A 
ATOM     29  C   UNL     1      -2.016   1.978  -0.788  0.00  0.00    -0.004 A 
ATOM     30  S   UNL     1      -2.837   2.567  -2.251  0.00  0.00    -0.073 S 
ATOM     31  C   UNL     1      -1.523   2.318  -3.416  0.00  0.00    +0.116 A 
ATOM     32  N   UNL     1      -1.381   2.524  -4.723  0.00  0.00    -0.227 NA
ATOM     33  C   UNL     1      -2.207   1.760   0.689  0.00  0.00    +0.043 C 
ATOM     34  C   UNL     1      -0.772   1.602   1.246  0.00  0.00    +0.010 C 
ATOM     35  C   UNL     1      -0.013   1.086   0.008  0.00  0.00    +0.037 C 
ENDBRANCH  21  22
ENDBRANCH  20  21
ENDBRANCH   7  20
TORSDOF 5
