REMARK  Name = ZINC51330022
REMARK  4 active torsions:
REMARK  status: ('A' for Active; 'I' for Inactive)
REMARK    1  A    between atoms: C_4  and  O_26
REMARK    2  A    between atoms: C_5  and  C_7
REMARK    3  A    between atoms: C_17  and  C_19
REMARK    4  A    between atoms: C_24  and  O_25
REMARK                            x       y       z     vdW  Elec       q    Type
REMARK                         _______ _______ _______ _____ _____    ______ ____
ROOT
ATOM      1  C   UNL     1       1.252  -2.155  -0.022  0.00  0.00    +0.017 C 
ATOM      2  C   UNL     1       0.102  -2.852   0.087  0.00  0.00    -0.024 C 
ATOM      3  C   UNL     1       0.149  -4.346   0.197  0.00  0.00    +0.037 C 
ATOM      4  C   UNL     1      -1.189  -4.998   0.478  0.00  0.00    +0.005 C 
ATOM      5  C   UNL     1      -2.373  -4.250  -0.132  0.00  0.00    +0.012 C 
ATOM      6  C   UNL     1      -2.432  -2.860   0.501  0.00  0.00    +0.066 C 
ATOM      7  C   UNL     1      -1.135  -2.164   0.103  0.00  0.00    +0.067 C 
ATOM      8  N   UNL     1      -1.410  -0.944  -0.201  0.00  0.00    -0.191 NA
ATOM      9  N   UNL     1      -2.783  -0.668  -0.221  0.00  0.00    -0.261 N 
ATOM     10  C   UNL     1      -3.517  -1.974  -0.130  0.00  0.00    +0.131 C 
ATOM     11  H   UNL     1      -3.191   0.210  -0.280  0.00  0.00    +0.169 HD
ENDROOT
BRANCH   1  16
ATOM     12  C   UNL     1       0.452   1.330   1.111  0.00  0.00    +0.001 A 
ATOM     13  C   UNL     1       1.193   2.083   0.216  0.00  0.00    +0.004 A 
ATOM     14  C   UNL     1       1.954   1.463  -0.757  0.00  0.00    +0.046 A 
ATOM     15  C   UNL     1       1.981   0.082  -0.844  0.00  0.00    +0.124 A 
ATOM     16  C   UNL     1       1.232  -0.686   0.060  0.00  0.00    +0.017 A 
ATOM     17  C   UNL     1       0.466  -0.047   1.040  0.00  0.00    +0.011 A 
BRANCH  15  18
ATOM     18  O   UNL     1       2.728  -0.528  -1.800  0.00  0.00    -0.506 OA
ATOM     19  H   UNL     1       3.634  -0.726  -1.525  0.00  0.00    +0.292 HD
ENDBRANCH  15  18
ENDBRANCH   1  16
BRANCH  10  20
ATOM     20  C   UNL     1      -3.907  -2.485  -1.493  0.00  0.00    +0.016 A 
ATOM     21  C   UNL     1      -3.307  -1.966  -2.624  0.00  0.00    +0.009 A 
ATOM     22  C   UNL     1      -3.664  -2.434  -3.875  0.00  0.00    +0.001 A 
ATOM     23  C   UNL     1      -4.622  -3.423  -3.998  0.00  0.00    +0.004 A 
ATOM     24  C   UNL     1      -5.225  -3.946  -2.870  0.00  0.00    +0.046 A 
ATOM     25  C   UNL     1      -4.864  -3.482  -1.613  0.00  0.00    +0.122 A 
BRANCH  25  26
ATOM     26  O   UNL     1      -5.452  -3.998  -0.502  0.00  0.00    -0.506 OA
ATOM     27  H   UNL     1      -6.255  -3.534  -0.230  0.00  0.00    +0.292 HD
ENDBRANCH  25  26
ENDBRANCH  10  20
TORSDOF 4
