REMARK  Name = ZINC07010430
REMARK  6 active torsions:
REMARK  status: ('A' for Active; 'I' for Inactive)
REMARK    1  A    between atoms: C_1  and  C_2
REMARK    2  A    between atoms: C_2  and  C_24
REMARK    3  A    between atoms: C_7  and  C_11
REMARK    4  A    between atoms: N_13  and  N_14
REMARK    5  A    between atoms: N_14  and  C_15
REMARK    6  A    between atoms: C_18  and  N_21
REMARK                            x       y       z     vdW  Elec       q    Type
REMARK                         _______ _______ _______ _____ _____    ______ ____
ROOT
ATOM      1  C   UNL     1      -0.855  -1.881  -3.201  0.00  0.00    +0.242 C 
ATOM      2  O   UNL     1      -1.654  -1.409  -3.982  0.00  0.00    -0.273 OA
ATOM      3  N   UNL     1       0.036  -2.799  -3.622  0.00  0.00    -0.236 N 
ATOM      4  H   UNL     1       0.675  -3.177  -2.997  0.00  0.00    +0.173 HD
ENDROOT
BRANCH   1  10
ATOM      5  C   UNL     1       0.261   1.494  -0.175  0.00  0.00    +0.019 C 
ATOM      6  C   UNL     1       0.002  -0.004   0.002  0.00  0.00    +0.027 C 
ATOM      7  C   UNL     1      -1.527  -0.278   0.144  0.00  0.00    +0.003 C 
ATOM      8  C   UNL     1      -1.612  -1.775   0.575  0.00  0.00    +0.006 C 
ATOM      9  C   UNL     1      -1.165  -2.551  -0.710  0.00  0.00    +0.024 C 
ATOM     10  C   UNL     1      -0.860  -1.440  -1.760  0.00  0.00    +0.107 C 
ATOM     11  C   UNL     1      -1.936  -0.366  -1.369  0.00  0.00    +0.028 C 
ATOM     12  C   UNL     1       0.423  -0.765  -1.247  0.00  0.00    +0.154 C 
ATOM     13  O   UNL     1       1.528  -0.825  -1.730  0.00  0.00    -0.296 OA
ATOM     14  C   UNL     1       0.753  -0.532   1.226  0.00  0.00    +0.019 C 
ENDBRANCH   1  10
BRANCH   3  15
ATOM     15  N   UNL     1       0.041  -3.209  -4.961  0.00  0.00    -0.264 N 
ATOM     16  H   UNL     1      -0.598  -2.832  -5.586  0.00  0.00    +0.170 HD
BRANCH  15  17
ATOM     17  C   UNL     1       0.965  -4.162  -5.397  0.00  0.00    +0.045 A 
ATOM     18  C   UNL     1       1.885  -4.699  -4.505  0.00  0.00    +0.026 A 
ATOM     19  C   UNL     1       2.794  -5.644  -4.939  0.00  0.00    +0.034 A 
ATOM     20  C   UNL     1       2.796  -6.048  -6.261  0.00  0.00    +0.126 A 
ATOM     21  C   UNL     1       1.886  -5.511  -7.153  0.00  0.00    +0.034 A 
ATOM     22  C   UNL     1       0.971  -4.569  -6.725  0.00  0.00    +0.026 A 
BRANCH  20  23
ATOM     23  N   UNL     1       3.776  -7.057  -6.723  0.00  0.00    +0.056 N 
ATOM     24  O   UNL     1       3.779  -7.414  -7.888  0.00  0.00    -0.126 OA
ATOM     25  O   UNL     1       4.578  -7.531  -5.939  0.00  0.00    -0.126 OA
ENDBRANCH  20  23
ENDBRANCH  15  17
ENDBRANCH   3  15
TORSDOF 4
