REMARK  Name = ZINC12039220
REMARK  13 active torsions:
REMARK  status: ('A' for Active; 'I' for Inactive)
REMARK    1  A    between atoms: C_1  and  O_2
REMARK    2  A    between atoms: O_2  and  C_3
REMARK    3  A    between atoms: C_8  and  C_9
REMARK    4  A    between atoms: C_10  and  C_11
REMARK    5  A    between atoms: C_11  and  N_67
REMARK    6  A    between atoms: C_13  and  N_29
REMARK    7  A    between atoms: C_16  and  C_18
REMARK    8  A    between atoms: N_20  and  C_21
REMARK    9  A    between atoms: C_21  and  C_22
REMARK   10  A    between atoms: C_22  and  C_23
REMARK   11  A    between atoms: C_31  and  C_34
REMARK   12  A    between atoms: C_34  and  O_36
REMARK   13  A    between atoms: O_36  and  C_37
REMARK                            x       y       z     vdW  Elec       q    Type
REMARK                         _______ _______ _______ _____ _____    ______ ____
ROOT
ATOM      1  C   UNL     1      -3.025   7.179   3.704  0.00  0.00    -0.050 C 
ATOM      2  C   UNL     1      -2.720   6.048   4.708  0.00  0.00    +0.091 C 
ATOM      3  C   UNL     1      -1.545   6.622   5.542  0.00  0.00    +0.019 C 
ATOM      4  C   UNL     1      -1.916   8.127   5.607  0.00  0.00    +0.022 C 
ATOM      5  N   UNL     1      -2.487   8.425   4.280  0.00  0.00    +0.391 N 
ATOM      6  H   UNL     1      -1.749   8.792   3.668  0.00  0.00    -0.080 HD
ENDROOT
BRANCH   2   7
ATOM      7  N   UNL     1      -2.310   4.829   4.006  0.00  0.00    -0.250 N 
ATOM      8  C   UNL     1      -1.643   4.762   2.837  0.00  0.00    +0.145 A 
ATOM      9  C   UNL     1      -1.474   3.436   2.553  0.00  0.00    +0.189 A 
ATOM     10  N   UNL     1      -2.027   2.715   3.545  0.00  0.00    -0.123 NA
ATOM     11  N   UNL     1      -2.531   3.509   4.423  0.00  0.00    -0.065 NA
BRANCH   9  12
ATOM     12  C   UNL     1      -0.797   2.888   1.364  0.00  0.00    +0.361 C 
ATOM     13  O   UNL     1      -0.334   3.639   0.529  0.00  0.00    -0.243 OA
BRANCH  12  14
ATOM     14  O   UNL     1      -0.692   1.554   1.203  0.00  0.00    -0.463 OA
ATOM     15  C   UNL     1      -0.013   1.086   0.008  0.00  0.00    +0.280 C 
ENDBRANCH  12  14
ENDBRANCH   9  12
ENDBRANCH   2   7
BRANCH   4  16
ATOM     16  C   UNL     1      -0.684   8.963   5.838  0.00  0.00    +0.200 C 
ATOM     17  O   UNL     1      -0.120   9.484   4.899  0.00  0.00    -0.278 OA
ATOM     18  N   UNL     1      -0.208   9.131   7.087  0.00  0.00    -0.316 N 
ATOM     19  H   UNL     1      -0.659   8.715   7.838  0.00  0.00    +0.149 HD
BRANCH  18  20
ATOM     20  C   UNL     1       0.990   9.944   7.312  0.00  0.00    +0.109 C 
BRANCH  20  21
ATOM     21  C   UNL     1       1.314   9.973   8.807  0.00  0.00    +0.054 C 
BRANCH  21  22
ATOM     22  C   UNL     1       2.546  10.810   9.037  0.00  0.00    -0.046 A 
ATOM     23  C   UNL     1       3.796  10.219   9.020  0.00  0.00    +0.004 A 
ATOM     24  C   UNL     1       4.926  10.986   9.226  0.00  0.00    +0.000 A 
ATOM     25  C   UNL     1       4.807  12.343   9.461  0.00  0.00    +0.000 A 
ATOM     26  C   UNL     1       3.557  12.933   9.484  0.00  0.00    +0.000 A 
ATOM     27  C   UNL     1       2.427  12.167   9.272  0.00  0.00    +0.004 A 
ENDBRANCH  21  22
ENDBRANCH  20  21
ENDBRANCH  18  20
ENDBRANCH   4  16
BRANCH   5  28
ATOM     28  C   UNL     1      -3.566   9.439   4.401  0.00  0.00    -0.050 C 
BRANCH  28  30
ATOM     29  C   UNL     1      -5.225   9.853   2.639  0.00  0.00    +0.005 C 
ATOM     30  C   UNL     1      -3.958   9.915   3.026  0.00  0.00    -0.045 C 
BRANCH  29  36
ATOM     31  C   UNL     1      -6.946  10.255   0.878  0.00  0.00    +0.127 A 
ATOM     32  C   UNL     1      -7.297  10.695  -0.387  0.00  0.00    +0.046 A 
ATOM     33  C   UNL     1      -6.331  11.197  -1.239  0.00  0.00    +0.004 A 
ATOM     34  C   UNL     1      -5.009  11.262  -0.835  0.00  0.00    +0.001 A 
ATOM     35  C   UNL     1      -4.644  10.832   0.424  0.00  0.00    +0.011 A 
ATOM     36  C   UNL     1      -5.610  10.319   1.291  0.00  0.00    +0.016 A 
BRANCH  31  38
ATOM     37  C   UNL     1      -9.237   9.727   1.227  0.00  0.00    +0.277 C 
ATOM     38  O   UNL     1      -7.895   9.762   1.716  0.00  0.00    -0.495 OA
ENDBRANCH  31  38
ENDBRANCH  29  36
ENDBRANCH  28  30
ENDBRANCH   5  28
TORSDOF 11
