REMARK  Name = ZINC39666964
REMARK  8 active torsions:
REMARK  status: ('A' for Active; 'I' for Inactive)
REMARK    1  A    between atoms: C_1  and  C_2
REMARK    2  A    between atoms: C_5  and  C_9
REMARK    3  A    between atoms: C_6  and  C_8
REMARK    4  A    between atoms: C_9  and  C_10
REMARK    5  A    between atoms: C_10  and  N_11
REMARK    6  A    between atoms: C_12  and  C_14
REMARK    7  A    between atoms: C_25  and  C_27
REMARK    8  A    between atoms: C_33  and  C_35
REMARK                            x       y       z     vdW  Elec       q    Type
REMARK                         _______ _______ _______ _____ _____    ______ ____
ROOT
ATOM      1  C   UNL     1      -2.485  -8.466   0.197  0.00  0.00    +0.100 C 
ATOM      2  C   UNL     1      -1.599  -8.999   1.346  0.00  0.00    +0.121 C 
ATOM      3  N   UNL     1      -2.545  -9.266   2.455  0.00  0.00    -0.299 N 
ATOM      4  C   UNL     1      -3.741  -9.837   1.790  0.00  0.00    +0.115 C 
ATOM      5  C   UNL     1      -3.889  -9.021   0.491  0.00  0.00    -0.004 C 
ATOM      6  C   UNL     1      -4.877  -7.877   0.698  0.00  0.00    -0.010 C 
ATOM      7  C   UNL     1      -6.276  -8.454   0.932  0.00  0.00    -0.082 C 
ATOM      8  N   UNL     1      -6.672  -9.266  -0.225  0.00  0.00    +0.379 N 
ATOM      9  C   UNL     1      -5.771 -10.417  -0.361  0.00  0.00    -0.082 C 
ATOM     10  C   UNL     1      -4.350  -9.923  -0.649  0.00  0.00    -0.010 C 
ATOM     11  C   UNL     1      -2.360  -9.040   3.771  0.00  0.00    +0.236 C 
ATOM     12  O   UNL     1      -3.237  -9.315   4.562  0.00  0.00    -0.274 OA
ATOM     13  H   UNL     1      -7.617  -9.595  -0.096  0.00  0.00    -0.086 HD
ATOM     14  H   UNL     1      -6.626  -8.704  -1.061  0.00  0.00    -0.086 HD
ENDROOT
BRANCH  11  15
ATOM     15  C   UNL     1      -1.063  -8.446   4.258  0.00  0.00    +0.162 C 
ATOM     16  C   UNL     1       0.017  -9.545   4.347  0.00  0.00    +0.033 C 
ATOM     17  C   UNL     1       0.791  -9.167   5.637  0.00  0.00    +0.021 C 
ATOM     18  C   UNL     1      -0.347  -8.620   6.535  0.00  0.00    +0.109 C 
ATOM     19  N   UNL     1      -1.243  -7.896   5.610  0.00  0.00    -0.283 N 
ATOM     20  C   UNL     1      -2.084  -6.898   5.946  0.00  0.00    +0.320 C 
ATOM     21  O   UNL     1      -2.775  -6.375   5.098  0.00  0.00    -0.266 OA
BRANCH  20  22
ATOM     22  C   UNL     1      -2.165  -6.432   7.377  0.00  0.00    +0.470 C 
ATOM     23  F   UNL     1      -3.100  -5.395   7.477  0.00  0.00    -0.162 F 
ATOM     24  F   UNL     1      -2.562  -7.497   8.193  0.00  0.00    -0.162 F 
ATOM     25  F   UNL     1      -0.911  -5.970   7.790  0.00  0.00    -0.162 F 
ENDBRANCH  20  22
ENDBRANCH  11  15
BRANCH   1  27
ATOM     26  N   UNL     1      -2.699  -6.281  -0.943  0.00  0.00    -0.315 N 
ATOM     27  C   UNL     1      -2.505  -6.959   0.206  0.00  0.00    +0.218 C 
ATOM     28  O   UNL     1      -2.345  -6.356   1.246  0.00  0.00    -0.275 OA
ATOM     29  H   UNL     1      -2.827  -6.763  -1.775  0.00  0.00    +0.149 HD
BRANCH  26  30
ATOM     30  C   UNL     1      -2.718  -4.816  -0.935  0.00  0.00    +0.109 C 
BRANCH  30  31
ATOM     31  C   UNL     1      -2.955  -4.301  -2.356  0.00  0.00    +0.054 C 
BRANCH  31  36
ATOM     32  C   UNL     1      -3.029   1.477  -2.321  0.00  0.00    +0.044 C 
ATOM     33  C   UNL     1      -3.010  -0.030  -2.330  0.00  0.00    -0.050 A 
ATOM     34  C   UNL     1      -4.195  -0.737  -2.248  0.00  0.00    +0.003 A 
ATOM     35  C   UNL     1      -4.177  -2.119  -2.257  0.00  0.00    +0.004 A 
ATOM     36  C   UNL     1      -2.974  -2.795  -2.348  0.00  0.00    -0.043 A 
ATOM     37  C   UNL     1      -1.789  -2.088  -2.430  0.00  0.00    -0.047 A 
ATOM     38  C   UNL     1      -1.807  -0.705  -2.426  0.00  0.00    +0.007 A 
ATOM     39  C   UNL     1      -0.478  -2.824  -2.529  0.00  0.00    +0.044 C 
ENDBRANCH  31  36
ENDBRANCH  30  31
ENDBRANCH  26  30
ENDBRANCH   1  27
TORSDOF 6
