REMARK  Name = ZINC04224929
REMARK  6 active torsions:
REMARK  status: ('A' for Active; 'I' for Inactive)
REMARK    1  A    between atoms: C_1  and  C_2
REMARK    2  A    between atoms: C_5  and  N_8
REMARK    3  A    between atoms: C_9  and  N_17
REMARK    4  A    between atoms: C_18  and  C_20
REMARK    5  A    between atoms: C_23  and  C_29
REMARK    6  A    between atoms: C_24  and  N_26
REMARK                            x       y       z     vdW  Elec       q    Type
REMARK                         _______ _______ _______ _____ _____    ______ ____
ROOT
ATOM      1  N   UNL     1       1.362   3.284  -0.175  0.00  0.00    -0.218 N 
ATOM      2  C   UNL     1       2.125   4.121   0.571  0.00  0.00    +0.133 A 
ATOM      3  C   UNL     1       1.743   5.410   0.272  0.00  0.00    +0.029 A 
ATOM      4  C   UNL     1       0.726   5.343  -0.665  0.00  0.00    +0.082 A 
ATOM      5  N   UNL     1       0.493   4.067  -0.937  0.00  0.00    -0.168 NA
ATOM      6  C   UNL     1       0.141   6.673  -1.139  0.00  0.00    +0.161 C 
ATOM      7  S   UNL     1       1.416   7.870  -0.569  0.00  0.00    +0.033 S 
ATOM      8  O   UNL     1       2.360   8.089  -1.609  0.00  0.00    -0.257 OA
ATOM      9  C   UNL     1       2.169   6.804   0.728  0.00  0.00    +0.144 C 
ENDROOT
BRANCH   1  14
ATOM     10  C   UNL     1       1.638  -2.384  -0.184  0.00  0.00    +0.044 C 
ATOM     11  C   UNL     1       1.565  -0.879  -0.182  0.00  0.00    -0.050 A 
ATOM     12  C   UNL     1       0.335  -0.248  -0.219  0.00  0.00    +0.005 A 
ATOM     13  C   UNL     1       0.265   1.131  -0.217  0.00  0.00    +0.028 A 
ATOM     14  C   UNL     1       1.430   1.885  -0.177  0.00  0.00    +0.067 A 
ATOM     15  C   UNL     1       2.664   1.248  -0.139  0.00  0.00    +0.028 A 
ATOM     16  C   UNL     1       2.728  -0.132  -0.142  0.00  0.00    +0.005 A 
ENDBRANCH   1  14
BRANCH   2  17
ATOM     17  N   UNL     1       3.117   3.745   1.475  0.00  0.00    -0.266 N 
ATOM     18  C   UNL     1       3.420   4.547   2.515  0.00  0.00    +0.249 C 
ATOM     19  O   UNL     1       2.763   5.548   2.722  0.00  0.00    -0.270 OA
ATOM     20  H   UNL     1       3.589   2.906   1.355  0.00  0.00    +0.157 HD
BRANCH  18  21
ATOM     21  C   UNL     1       4.552   4.209   3.403  0.00  0.00    +0.039 A 
ATOM     22  C   UNL     1       5.309   3.059   3.167  0.00  0.00    +0.013 A 
ATOM     23  C   UNL     1       6.364   2.750   4.000  0.00  0.00    +0.006 A 
ATOM     24  C   UNL     1       6.672   3.575   5.067  0.00  0.00    -0.020 A 
ATOM     25  C   UNL     1       5.926   4.715   5.306  0.00  0.00    +0.130 A 
ATOM     26  C   UNL     1       4.872   5.040   4.477  0.00  0.00    +0.046 A 
ATOM     27  C   UNL     1       7.826   3.229   5.974  0.00  0.00    +0.046 C 
BRANCH  25  28
ATOM     28  N   UNL     1       6.264   5.592   6.450  0.00  0.00    +0.057 N 
ATOM     29  O   UNL     1       5.378   6.152   7.070  0.00  0.00    -0.126 OA
ATOM     30  O   UNL     1       7.428   5.753   6.771  0.00  0.00    -0.126 OA
ENDBRANCH  25  28
ENDBRANCH  18  21
ENDBRANCH   2  17
TORSDOF 4
