REMARK  Name = ZINC20673613
REMARK  4 active torsions:
REMARK  status: ('A' for Active; 'I' for Inactive)
REMARK    1  A    between atoms: C_1  and  N_2
REMARK    2  A    between atoms: N_2  and  C_3
REMARK    3  A    between atoms: N_2  and  C_4
REMARK    4  A    between atoms: C_7  and  C_10
REMARK                            x       y       z     vdW  Elec       q    Type
REMARK                         _______ _______ _______ _____ _____    ______ ____
ROOT
ATOM      1  C   UNL     1      -1.016   5.202   0.012  0.00  0.00    +0.010 A 
ATOM      2  C   UNL     1      -1.211   5.832  -1.227  0.00  0.00    +0.092 A 
ATOM      3  C   UNL     1      -1.383   7.282  -1.344  0.00  0.00    +0.263 A 
ATOM      4  O   UNL     1      -1.364   8.002  -0.362  0.00  0.00    -0.267 OA
ATOM      5  N   UNL     1      -1.564   7.791  -2.585  0.00  0.00    -0.295 N 
ATOM      6  H   UNL     1      -1.697   8.875  -2.721  0.00  0.00    +0.172 HD
ATOM      7  C   UNL     1      -1.581   6.966  -3.669  0.00  0.00    +0.195 A 
ATOM      8  N   UNL     1      -1.428   5.666  -3.585  0.00  0.00    -0.196 NA
ATOM      9  C   UNL     1      -1.242   5.048  -2.405  0.00  0.00    +0.169 A 
ATOM     10  N   UNL     1      -1.090   3.726  -2.337  0.00  0.00    -0.231 NA
ATOM     11  C   UNL     1      -0.906   3.090  -1.196  0.00  0.00    +0.055 A 
ATOM     12  C   UNL     1      -0.856   3.798   0.012  0.00  0.00    +0.047 A 
ATOM     13  C   UNL     1      -0.637   3.093   1.279  0.00  0.00    +0.165 C 
ATOM     14  O   UNL     1      -0.388   3.700   2.300  0.00  0.00    -0.292 OA
ATOM     15  C   UNL     1      -0.732   1.581   1.270  0.00  0.00    +0.080 C 
ATOM     16  C   UNL     1      -0.013   1.086   0.008  0.00  0.00    +0.014 C 
ATOM     17  C   UNL     1      -0.751   1.592  -1.228  0.00  0.00    +0.056 C 
ATOM     18  N   UNL     1      -1.766   7.521  -4.907  0.00  0.00    -0.329 N 
ATOM     19  H   UNL     1      -1.784   6.879  -5.800  0.00  0.00    +0.145 HD
ATOM     20  H   UNL     1      -1.897   8.608  -5.008  0.00  0.00    +0.145 HD
ENDROOT
BRANCH   1  24
ATOM     21  C   UNL     1      -0.907   7.434   3.625  0.00  0.00    +0.029 A 
ATOM     22  C   UNL     1       0.081   7.621   2.663  0.00  0.00    +0.024 A 
ATOM     23  C   UNL     1       0.048   6.900   1.491  0.00  0.00    +0.010 A 
ATOM     24  C   UNL     1      -0.978   5.978   1.268  0.00  0.00    -0.016 A 
ATOM     25  C   UNL     1      -1.972   5.796   2.233  0.00  0.00    +0.010 A 
ATOM     26  C   UNL     1      -1.931   6.516   3.405  0.00  0.00    +0.024 A 
BRANCH  21  28
ATOM     27  C   UNL     1       0.205   9.131   5.041  0.00  0.00    +0.129 C 
ATOM     28  N   UNL     1      -0.872   8.165   4.809  0.00  0.00    -0.336 N 
ATOM     29  C   UNL     1      -1.911   7.968   5.823  0.00  0.00    +0.129 C 
ENDBRANCH  21  28
ENDBRANCH   1  24
TORSDOF 2
