REMARK  Name = ZINC34886245
REMARK  9 active torsions:
REMARK  status: ('A' for Active; 'I' for Inactive)
REMARK    1  A    between atoms: C_1  and  C_2
REMARK    2  A    between atoms: C_6  and  N_9
REMARK    3  A    between atoms: C_7  and  C_8
REMARK    4  A    between atoms: N_12  and  C_15
REMARK    5  A    between atoms: C_15  and  C_16
REMARK    6  A    between atoms: N_18  and  C_19
REMARK    7  A    between atoms: C_20  and  C_32
REMARK    8  A    between atoms: N_21  and  C_31
REMARK    9  A    between atoms: N_22  and  C_25
REMARK                            x       y       z     vdW  Elec       q    Type
REMARK                         _______ _______ _______ _____ _____    ______ ____
ROOT
ATOM      1  C   UNL     1       1.516  -3.505   7.137  0.00  0.00    +0.231 C 
ATOM      2  O   UNL     1       2.402  -4.045   6.509  0.00  0.00    -0.274 OA
ATOM      3  N   UNL     1       1.492  -3.593   8.481  0.00  0.00    -0.279 N 
ATOM      4  H   UNL     1       0.827  -3.102   8.988  0.00  0.00    +0.155 HD
ENDROOT
BRANCH   3   5
ATOM      5  C   UNL     1       2.434  -4.399   9.151  0.00  0.00    +0.121 A 
ATOM      6  C   UNL     1       3.309  -3.992  10.099  0.00  0.00    +0.059 A 
ATOM      7  N   UNL     1       4.051  -5.071  10.501  0.00  0.00    -0.282 N 
ATOM      8  N   UNL     1       3.639  -6.203   9.789  0.00  0.00    -0.216 N 
ATOM      9  C   UNL     1       2.645  -5.834   8.955  0.00  0.00    +0.293 A 
ATOM     10  O   UNL     1       2.040  -6.557   8.184  0.00  0.00    -0.264 OA
ATOM     11  C   UNL     1       5.108  -5.044  11.515  0.00  0.00    +0.171 C 
ATOM     12  C   UNL     1       3.444  -2.586  10.624  0.00  0.00    +0.067 C 
BRANCH   8  13
ATOM     13  C   UNL     1       4.163  -7.493   9.922  0.00  0.00    +0.067 A 
ATOM     14  C   UNL     1       4.549  -8.207   8.796  0.00  0.00    +0.028 A 
ATOM     15  C   UNL     1       5.066  -9.481   8.931  0.00  0.00    +0.002 A 
ATOM     16  C   UNL     1       5.199 -10.045  10.187  0.00  0.00    +0.000 A 
ATOM     17  C   UNL     1       4.816  -9.336  11.310  0.00  0.00    +0.002 A 
ATOM     18  C   UNL     1       4.304  -8.060  11.183  0.00  0.00    +0.028 A 
ENDBRANCH   8  13
ENDBRANCH   3   5
BRANCH   1  19
ATOM     19  C   UNL     1       0.441  -2.736   6.413  0.00  0.00    +0.180 C 
BRANCH  19  23
ATOM     20  N   UNL     1       1.071  -1.933   2.342  0.00  0.00    -0.327 N 
ATOM     21  C   UNL     1      -0.235  -2.497   2.718  0.00  0.00    +0.120 C 
ATOM     22  C   UNL     1      -0.455  -2.258   4.215  0.00  0.00    +0.104 C 
ATOM     23  N   UNL     1       0.690  -2.789   4.966  0.00  0.00    -0.291 NA
ATOM     24  C   UNL     1       1.929  -2.082   4.619  0.00  0.00    +0.104 C 
ATOM     25  C   UNL     1       2.249  -2.318   3.134  0.00  0.00    +0.120 C 
BRANCH  20  31
ATOM     26  C   UNL     1       1.041   2.656   0.585  0.00  0.00    +0.044 C 
ATOM     27  C   UNL     1       1.180   1.170   0.378  0.00  0.00    -0.046 A 
ATOM     28  C   UNL     1       1.426   0.670  -0.888  0.00  0.00    +0.004 A 
ATOM     29  C   UNL     1       1.553  -0.693  -1.083  0.00  0.00    +0.002 A 
ATOM     30  C   UNL     1       1.436  -1.559  -0.014  0.00  0.00    +0.023 A 
ATOM     31  C   UNL     1       1.190  -1.060   1.259  0.00  0.00    +0.033 A 
ATOM     32  C   UNL     1       1.067   0.310   1.452  0.00  0.00    -0.027 A 
ATOM     33  C   UNL     1       0.806   0.857   2.832  0.00  0.00    +0.046 C 
ENDBRANCH  20  31
ENDBRANCH  19  23
ENDBRANCH   1  19
TORSDOF 5
