REMARK  Name = ZINC43344939
REMARK  5 active torsions:
REMARK  status: ('A' for Active; 'I' for Inactive)
REMARK    1  A    between atoms: C_1  and  C_2
REMARK    2  A    between atoms: C_2  and  C_3
REMARK    3  A    between atoms: N_11  and  C_12
REMARK    4  A    between atoms: C_12  and  C_13
REMARK    5  A    between atoms: C_13  and  C_14
REMARK                            x       y       z     vdW  Elec       q    Type
REMARK                         _______ _______ _______ _____ _____    ______ ____
ROOT
ATOM      1  C   UNL     1       0.731  -0.503   1.223  0.00  0.00    +0.103 A 
ATOM      2  N   UNL     1       0.268  -0.803   2.420  0.00  0.00    -0.145 NA
ATOM      3  N   UNL     1       1.072  -1.211   3.305  0.00  0.00    -0.126 NA
ATOM      4  C   UNL     1       2.362  -1.344   3.067  0.00  0.00    +0.189 A 
ATOM      5  S   UNL     1       2.466  -0.863   1.455  0.00  0.00    -0.035 S 
ATOM      6  N   UNL     1       3.372  -1.774   3.921  0.00  0.00    -0.247 N 
ATOM      7  C   UNL     1       3.078  -2.124   5.189  0.00  0.00    +0.305 C 
ATOM      8  O   UNL     1       1.931  -2.064   5.587  0.00  0.00    -0.252 OA
ATOM      9  N   UNL     1       4.057  -2.541   6.017  0.00  0.00    -0.299 N 
ATOM     10  H   UNL     1       4.287  -1.822   3.605  0.00  0.00    +0.158 HD
ATOM     11  H   UNL     1       4.972  -2.589   5.700  0.00  0.00    +0.150 HD
ENDROOT
BRANCH   1  13
ATOM     12  C   UNL     1      -0.019   1.526   0.010  0.00  0.00    +0.011 C 
ATOM     13  C   UNL     1       0.002  -0.004   0.002  0.00  0.00    +0.061 C 
ENDBRANCH   1  13
BRANCH   9  14
ATOM     14  C   UNL     1       3.738  -2.921   7.396  0.00  0.00    +0.113 C 
BRANCH  14  15
ATOM     15  C   UNL     1       5.018  -3.352   8.115  0.00  0.00    +0.095 C 
BRANCH  15  16
ATOM     16  C   UNL     1       4.689  -3.743   9.533  0.00  0.00    +0.135 A 
ATOM     17  N   UNL     1       4.675  -2.952  10.573  0.00  0.00    -0.134 NA
ATOM     18  N   UNL     1       4.344  -3.620  11.622  0.00  0.00    -0.134 NA
ATOM     19  C   UNL     1       4.130  -4.863  11.297  0.00  0.00    +0.133 A 
ATOM     20  N   UNL     1       4.349  -4.977   9.967  0.00  0.00    -0.315 N 
ATOM     21  C   UNL     1       4.253  -6.200   9.169  0.00  0.00    +0.125 C 
ATOM     22  C   UNL     1       3.240  -7.149   9.815  0.00  0.00    +0.022 C 
ATOM     23  C   UNL     1       3.948  -8.048  10.828  0.00  0.00    +0.002 C 
ATOM     24  C   UNL     1       4.573  -7.211  11.940  0.00  0.00    +0.008 C 
ATOM     25  C   UNL     1       3.706  -5.984  12.212  0.00  0.00    +0.076 C 
ENDBRANCH  15  16
ENDBRANCH  14  15
ENDBRANCH   9  14
TORSDOF 4
