REMARK  Name = ZINC23372407
REMARK  10 active torsions:
REMARK  status: ('A' for Active; 'I' for Inactive)
REMARK    1  A    between atoms: C_1  and  C_2
REMARK    2  A    between atoms: C_8  and  C_17
REMARK    3  A    between atoms: C_12  and  C_13
REMARK    4  A    between atoms: C_13  and  O_15
REMARK    5  A    between atoms: O_15  and  C_16
REMARK    6  A    between atoms: C_17  and  N_18
REMARK    7  A    between atoms: N_21  and  C_24
REMARK    8  A    between atoms: C_24  and  C_25
REMARK    9  A    between atoms: C_29  and  C_36
REMARK   10  A    between atoms: C_32  and  C_35
REMARK                            x       y       z     vdW  Elec       q    Type
REMARK                         _______ _______ _______ _____ _____    ______ ____
ROOT
ATOM      1  N   UNL     1       4.874  -0.048   0.879  0.00  0.00    -0.299 NA
ATOM      2  C   UNL     1       4.651   0.500  -0.466  0.00  0.00    +0.066 C 
ATOM      3  C   UNL     1       3.518   1.527  -0.414  0.00  0.00    -0.063 C 
ATOM      4  N   UNL     1       2.300   0.884   0.099  0.00  0.00    +0.387 N 
ATOM      5  C   UNL     1       2.523   0.336   1.444  0.00  0.00    -0.063 C 
ATOM      6  C   UNL     1       3.656  -0.692   1.391  0.00  0.00    +0.066 C 
ATOM      7  H   UNL     1       2.049   0.048  -0.571  0.00  0.00    -0.081 HD
ENDROOT
BRANCH   1   8
ATOM      8  C   UNL     1       6.006  -0.984   0.885  0.00  0.00    +0.158 C 
BRANCH   8  16
ATOM      9  C   UNL     1      12.048   1.496  -0.386  0.00  0.00    +0.046 C 
ATOM     10  C   UNL     1      10.660   2.042  -0.173  0.00  0.00    -0.015 A 
ATOM     11  C   UNL     1       9.597   1.173   0.082  0.00  0.00    +0.076 A 
ATOM     12  C   UNL     1       9.600  -0.304   0.185  0.00  0.00    +0.260 A 
ATOM     13  O   UNL     1      10.630  -0.938   0.044  0.00  0.00    -0.267 OA
ATOM     14  N   UNL     1       8.435  -0.928   0.446  0.00  0.00    -0.309 N 
ATOM     15  H   UNL     1       8.406  -2.023   0.537  0.00  0.00    +0.170 HD
ATOM     16  C   UNL     1       7.281  -0.233   0.601  0.00  0.00    +0.125 A 
ATOM     17  N   UNL     1       7.243   1.070   0.516  0.00  0.00    -0.225 NA
ATOM     18  C   UNL     1       8.335   1.782   0.268  0.00  0.00    +0.116 A 
ATOM     19  S   UNL     1       8.685   3.513   0.082  0.00  0.00    -0.062 S 
ATOM     20  C   UNL     1      10.438   3.388  -0.228  0.00  0.00    +0.102 A 
BRANCH  20  21
ATOM     21  C   UNL     1      11.401   4.463  -0.478  0.00  0.00    +0.346 C 
ATOM     22  O   UNL     1      12.572   4.198  -0.672  0.00  0.00    -0.244 OA
BRANCH  21  23
ATOM     23  O   UNL     1      10.988   5.748  -0.495  0.00  0.00    -0.464 OA
ATOM     24  C   UNL     1      11.997   6.761  -0.749  0.00  0.00    +0.280 C 
ENDBRANCH  21  23
ENDBRANCH  20  21
ENDBRANCH   8  16
ENDBRANCH   1   8
BRANCH   4  25
ATOM     25  C   UNL     1       1.167   1.820   0.093  0.00  0.00    +0.019 C 
BRANCH  25  26
ATOM     26  C   UNL     1      -0.106   1.069   0.387  0.00  0.00    +0.199 C 
ATOM     27  O   UNL     1      -0.074  -0.127   0.582  0.00  0.00    -0.278 OA
ATOM     28  N   UNL     1      -1.282   1.727   0.428  0.00  0.00    -0.303 N 
ATOM     29  C   UNL     1      -1.336   3.178   0.199  0.00  0.00    +0.111 C 
ATOM     30  C   UNL     1      -2.355   3.459  -0.916  0.00  0.00    +0.004 C 
ATOM     31  C   UNL     1      -3.699   2.831  -0.541  0.00  0.00    +0.009 C 
ATOM     32  C   UNL     1      -3.537   1.315  -0.408  0.00  0.00    +0.004 C 
ATOM     33  C   UNL     1      -2.532   1.009   0.707  0.00  0.00    +0.111 C 
ATOM     34  C   UNL     1      -4.888   0.685  -0.066  0.00  0.00    +0.009 C 
ATOM     35  C   UNL     1      -1.857   2.854  -2.231  0.00  0.00    +0.009 C 
ENDBRANCH  25  26
ENDBRANCH   4  25
TORSDOF 6
