REMARK  Name = ZINC42195863
REMARK  4 active torsions:
REMARK  status: ('A' for Active; 'I' for Inactive)
REMARK    1  A    between atoms: C_6  and  N_7
REMARK    2  A    between atoms: C_10  and  S_12
REMARK    3  A    between atoms: S_12  and  C_14
REMARK    4  A    between atoms: C_14  and  C_15
REMARK                            x       y       z     vdW  Elec       q    Type
REMARK                         _______ _______ _______ _____ _____    ______ ____
ROOT
ATOM      1  C   UNL     1      -0.017   1.389   0.010  0.00  0.00    +0.025 A 
ATOM      2  C   UNL     1       1.149   2.100   0.002  0.00  0.00    +0.032 A 
ATOM      3  C   UNL     1       2.375   1.431  -0.013  0.00  0.00    +0.090 A 
ATOM      4  C   UNL     1       2.398   0.025  -0.021  0.00  0.00    +0.069 A 
ATOM      5  C   UNL     1       1.208  -0.686  -0.013  0.00  0.00    +0.050 A 
ATOM      6  C   UNL     1       0.002  -0.004   0.002  0.00  0.00    +0.027 A 
ATOM      7  N   UNL     1       3.732  -0.334  -0.035  0.00  0.00    -0.331 N 
ATOM      8  H   UNL     1       4.083  -1.238  -0.043  0.00  0.00    +0.168 HD
ATOM      9  C   UNL     1       4.461   0.816  -0.036  0.00  0.00    +0.198 A 
ATOM     10  N   UNL     1       3.668   1.848  -0.023  0.00  0.00    -0.220 NA
ENDROOT
BRANCH   6  11
ATOM     11  N   UNL     1      -1.201  -0.717   0.010  0.00  0.00    -0.358 N 
ATOM     12  H   UNL     1      -2.046  -0.241   0.020  0.00  0.00    +0.142 HD
ATOM     13  H   UNL     1      -1.190  -1.687   0.004  0.00  0.00    +0.142 HD
ENDBRANCH   6  11
BRANCH   9  14
ATOM     14  S   UNL     1       6.221   0.895  -0.051  0.00  0.00    +0.094 S 
ATOM     15  O   UNL     1       6.513   2.160   0.526  0.00  0.00    -0.249 OA
BRANCH  14  16
ATOM     16  C   UNL     1       6.643   0.924  -1.815  0.00  0.00    +0.150 C 
BRANCH  16  17
ATOM     17  C   UNL     1       8.141   0.992  -1.972  0.00  0.00    +0.002 A 
ATOM     18  C   UNL     1       8.774   2.219  -2.032  0.00  0.00    +0.022 A 
ATOM     19  C   UNL     1      10.148   2.282  -2.176  0.00  0.00    +0.018 A 
ATOM     20  C   UNL     1      10.890   1.117  -2.260  0.00  0.00    +0.018 A 
ATOM     21  C   UNL     1      10.258  -0.111  -2.200  0.00  0.00    +0.040 A 
ATOM     22  C   UNL     1       8.882  -0.174  -2.051  0.00  0.00    +0.127 A 
ATOM     23  F   UNL     1       8.264  -1.374  -1.987  0.00  0.00    -0.205 F 
ATOM     24 BR   UNL     1      11.014   3.961  -2.258  0.00  0.00    -0.050 Br
ENDBRANCH  16  17
ENDBRANCH  14  16
ENDBRANCH   9  14
TORSDOF 4
