REMARK  Name = ZINC09235472
REMARK  9 active torsions:
REMARK  status: ('A' for Active; 'I' for Inactive)
REMARK    1  A    between atoms: C_1  and  C_2
REMARK    2  A    between atoms: C_2  and  O_3
REMARK    3  A    between atoms: O_3  and  C_4
REMARK    4  A    between atoms: C_4  and  C_6
REMARK    5  A    between atoms: C_8  and  N_13
REMARK    6  A    between atoms: C_14  and  C_16
REMARK    7  A    between atoms: C_16  and  N_17
REMARK    8  A    between atoms: C_21  and  C_22
REMARK    9  A    between atoms: C_25  and  C_28
REMARK                            x       y       z     vdW  Elec       q    Type
REMARK                         _______ _______ _______ _____ _____    ______ ____
ROOT
ATOM      1  C   UNL     1       0.433   0.360  -0.263  0.00  0.00    +0.213 C 
ENDROOT
BRANCH   1   2
ATOM      2  N   UNL     1       1.874   0.094  -0.270  0.00  0.00    -0.219 N 
ATOM      3  C   UNL     1       2.503  -0.087   0.879  0.00  0.00    +0.261 C 
ATOM      4  O   UNL     1       1.917  -0.038   1.944  0.00  0.00    -0.269 OA
ATOM      5  C   UNL     1       3.957  -0.356   0.801  0.00  0.00    +0.080 C 
ATOM      6  C   UNL     1       4.849  -0.581   1.797  0.00  0.00    +0.028 C 
ATOM      7  S   UNL     1       4.214  -0.296  -0.967  0.00  0.00    -0.026 S 
ATOM      8  C   UNL     1       2.529   0.044  -1.448  0.00  0.00    +0.286 C 
ATOM      9  O   UNL     1       2.079   0.195  -2.568  0.00  0.00    -0.262 OA
BRANCH   6  10
ATOM     10  C   UNL     1       4.443  -0.413   3.199  0.00  0.00    -0.024 A 
ATOM     11  C   UNL     1       3.630   0.665   3.569  0.00  0.00    +0.009 A 
ATOM     12  C   UNL     1       3.249   0.817   4.872  0.00  0.00    +0.016 A 
ATOM     13  C   UNL     1       3.680  -0.097   5.838  0.00  0.00    +0.063 A 
ATOM     14  C   UNL     1       4.496  -1.171   5.471  0.00  0.00    +0.016 A 
ATOM     15  C   UNL     1       4.874  -1.329   4.168  0.00  0.00    +0.009 A 
BRANCH  13  16
ATOM     16  C   UNL     1       3.272   0.072   7.247  0.00  0.00    +0.387 C 
ATOM     17  O   UNL     1       3.646  -0.723   8.087  0.00  0.00    -0.241 OA
ATOM     18  O   UNL     1       2.486   1.107   7.601  0.00  0.00    -0.241 OA
ENDBRANCH  13  16
ENDBRANCH   6  10
ENDBRANCH   1   2
BRANCH   1  20
ATOM     19  N   UNL     1      -1.666  -0.944  -0.358  0.00  0.00    -0.284 N 
ATOM     20  C   UNL     1      -0.319  -0.944  -0.344  0.00  0.00    +0.235 C 
ATOM     21  O   UNL     1       0.289  -1.992  -0.403  0.00  0.00    -0.274 OA
ATOM     22  H   UNL     1      -2.153  -0.115  -0.231  0.00  0.00    +0.155 HD
BRANCH  19  25
ATOM     23  C   UNL     1      -2.545  -4.307  -1.590  0.00  0.00    +0.079 A 
ATOM     24  C   UNL     1      -1.849  -3.112  -1.400  0.00  0.00    +0.039 A 
ATOM     25  C   UNL     1      -2.364  -2.142  -0.555  0.00  0.00    +0.034 A 
ATOM     26  C   UNL     1      -3.576  -2.355   0.092  0.00  0.00    +0.025 A 
ATOM     27  C   UNL     1      -4.269  -3.534  -0.099  0.00  0.00    +0.022 A 
ATOM     28  C   UNL     1      -3.763  -4.511  -0.935  0.00  0.00    +0.055 A 
ATOM     29 CL   UNL     1      -4.638  -5.992  -1.171  0.00  0.00    -0.083 Cl
BRANCH  23  30
ATOM     30  C   UNL     1      -2.001  -5.348  -2.484  0.00  0.00    +0.341 C 
ATOM     31  O   UNL     1      -2.611  -6.385  -2.652  0.00  0.00    -0.245 OA
BRANCH  30  32
ATOM     32  O   UNL     1      -0.827  -5.148  -3.114  0.00  0.00    -0.461 OA
BRANCH  32  34
ATOM     33  C   UNL     1       0.985  -5.809  -4.601  0.00  0.00    +0.048 C 
ATOM     34  C   UNL     1      -0.353  -6.214  -3.978  0.00  0.00    +0.229 C 
ENDBRANCH  32  34
ENDBRANCH  30  32
ENDBRANCH  23  30
ENDBRANCH  19  25
ENDBRANCH   1  20
TORSDOF 8
