REMARK  Name = ZINC49812444
REMARK  3 active torsions:
REMARK  status: ('A' for Active; 'I' for Inactive)
REMARK    1  A    between atoms: C_1  and  C_2
REMARK    2  A    between atoms: C_7  and  C_17
REMARK    3  A    between atoms: C_14  and  C_16
REMARK                            x       y       z     vdW  Elec       q    Type
REMARK                         _______ _______ _______ _____ _____    ______ ____
ROOT
ATOM      1  C   UNL     1      -0.019   1.526   0.010  0.00  0.00    +0.008 C 
ATOM      2  C   UNL     1       0.002  -0.004   0.002  0.00  0.00    -0.007 C 
ATOM      3  C   UNL     1      -1.428  -0.539   0.028  0.00  0.00    +0.040 C 
ATOM      4  C   UNL     1      -1.436  -2.029   0.254  0.00  0.00    -0.026 A 
ATOM      5  C   UNL     1      -2.610  -2.721  -0.078  0.00  0.00    +0.029 A 
ATOM      6  C   UNL     1      -2.677  -4.095   0.114  0.00  0.00    +0.116 A 
ATOM      7  C   UNL     1      -1.542  -4.759   0.649  0.00  0.00    +0.266 A 
ATOM      8  O   UNL     1      -1.567  -5.964   0.834  0.00  0.00    -0.267 OA
ATOM      9  N   UNL     1      -0.443  -4.051   0.950  0.00  0.00    -0.325 N 
ATOM     10  H   UNL     1       0.327  -4.511   1.319  0.00  0.00    +0.169 HD
ATOM     11  C   UNL     1      -0.375  -2.703   0.752  0.00  0.00    +0.023 A 
ATOM     12  C   UNL     1       0.926  -2.025   1.103  0.00  0.00    +0.057 C 
ATOM     13  C   UNL     1       0.730  -0.519   1.250  0.00  0.00    -0.005 C 
ATOM     14  C   UNL     1       2.090   0.170   1.375  0.00  0.00    +0.008 C 
ENDROOT
BRANCH   6  15
ATOM     15  C   UNL     1      -3.863  -4.824  -0.220  0.00  0.00    +0.105 C 
ATOM     16  N   UNL     1      -4.804  -5.403  -0.485  0.00  0.00    -0.191 NA
ENDBRANCH   6  15
TORSDOF 1
