REMARK  Name = ZINC20556029
REMARK  3 active torsions:
REMARK  status: ('A' for Active; 'I' for Inactive)
REMARK    1  A    between atoms: C_1  and  C_2
REMARK    2  A    between atoms: C_12  and  C_14
REMARK    3  A    between atoms: C_24  and  N_27
REMARK                            x       y       z     vdW  Elec       q    Type
REMARK                         _______ _______ _______ _____ _____    ______ ____
ROOT
ATOM      1  C   UNL     1       5.373   3.245   0.205  0.00  0.00    +0.066 C 
ATOM      2  C   UNL     1       3.938   2.791   0.119  0.00  0.00    +0.047 C 
ATOM      3  C   UNL     1       3.038   3.518  -0.603  0.00  0.00    +0.091 C 
ATOM      4  C   UNL     1       1.700   3.080  -0.666  0.00  0.00    +0.249 C 
ATOM      5  O   UNL     1       0.870   3.701  -1.309  0.00  0.00    -0.270 OA
ATOM      6  N   UNL     1       1.361   1.962  -0.000  0.00  0.00    -0.215 N 
ATOM      7  C   UNL     1       2.311   1.265   0.690  0.00  0.00    +0.229 C 
ATOM      8  N   UNL     1       3.554   1.680   0.748  0.00  0.00    -0.219 NA
ATOM      9  N   UNL     1       1.903   0.105   1.321  0.00  0.00    -0.182 NA
ATOM     10  C   UNL     1       0.935  -0.643   0.660  0.00  0.00    +0.196 C 
ATOM     11  N   UNL     1       0.002  -0.004   0.002  0.00  0.00    -0.338 N 
ATOM     12  C   UNL     1      -0.018   1.465   0.010  0.00  0.00    +0.184 C 
ATOM     13  N   UNL     1       0.958  -2.017   0.696  0.00  0.00    -0.301 N 
ATOM     14  C   UNL     1      -0.071  -2.801   0.001  0.00  0.00    +0.106 C 
ATOM     15  C   UNL     1      -0.706  -3.777   0.990  0.00  0.00    +0.004 C 
ATOM     16  C   UNL     1       0.390  -4.620   1.646  0.00  0.00    -0.066 C 
ATOM     17  C   UNL     1       1.347  -3.705   2.414  0.00  0.00    +0.004 C 
ATOM     18  C   UNL     1       2.009  -2.729   1.436  0.00  0.00    +0.106 C 
ATOM     19  H   UNL     1      -0.763  -0.567  -0.553  0.00  0.00    +0.164 HD
ENDROOT
BRANCH  16  20
ATOM     20  N   UNL     1      -0.221  -5.580   2.575  0.00  0.00    +0.382 N 
ATOM     21  C   UNL     1       0.807  -6.340   3.298  0.00  0.00    -0.078 C 
ATOM     22  C   UNL     1       0.141  -7.222   4.356  0.00  0.00    -0.019 C 
ATOM     23  C   UNL     1      -0.841  -8.177   3.673  0.00  0.00    -0.004 C 
ATOM     24  C   UNL     1      -1.872  -7.362   2.888  0.00  0.00    -0.019 C 
ATOM     25  C   UNL     1      -1.148  -6.476   1.872  0.00  0.00    -0.078 C 
ATOM     26  H   UNL     1      -0.801  -5.011   3.317  0.00  0.00    -0.081 HD
ENDBRANCH  16  20
BRANCH  12  27
ATOM     27  C   UNL     1      -0.731   1.960   1.270  0.00  0.00    +0.034 C 
ATOM     28  C   UNL     1      -0.753   3.494   1.281  0.00  0.00    +0.011 C 
ATOM     29  C   UNL     1      -1.309   3.960   2.628  0.00  0.00    +0.027 C 
ATOM     30  C   UNL     1      -2.584   3.234   2.941  0.00  0.00    -0.031 C 
ATOM     31  C   UNL     1      -2.959   2.142   2.356  0.00  0.00    -0.031 C 
ATOM     32  C   UNL     1      -2.175   1.455   1.276  0.00  0.00    +0.034 C 
ENDBRANCH  12  27
TORSDOF 2
