REMARK  Name = ZINC10108310
REMARK  11 active torsions:
REMARK  status: ('A' for Active; 'I' for Inactive)
REMARK    1  A    between atoms: C_1  and  C_2
REMARK    2  A    between atoms: N_9  and  C_10
REMARK    3  A    between atoms: N_17  and  C_36
REMARK    4  A    between atoms: N_20  and  C_23
REMARK    5  A    between atoms: C_23  and  C_24
REMARK    6  A    between atoms: C_24  and  C_26
REMARK    7  A    between atoms: C_24  and  C_27
REMARK    8  A    between atoms: C_27  and  N_65
REMARK    9  A    between atoms: C_28  and  N_65
REMARK   10  A    between atoms: C_29  and  C_30
REMARK   11  A    between atoms: C_29  and  N_65
REMARK                            x       y       z     vdW  Elec       q    Type
REMARK                         _______ _______ _______ _____ _____    ______ ____
ROOT
ATOM      1  C   UNL     1      -2.150 -10.302  -2.761  0.00  0.00    +0.065 C 
ATOM      2  C   UNL     1      -2.073  -9.339  -1.605  0.00  0.00    +0.040 A 
ATOM      3  C   UNL     1      -2.244  -8.022  -1.674  0.00  0.00    +0.116 A 
ATOM      4  N   UNL     1      -2.096  -7.495  -0.403  0.00  0.00    -0.277 N 
ATOM      5  C   UNL     1      -2.111  -6.331   0.350  0.00  0.00    +0.157 A 
ATOM      6  C   UNL     1      -1.845  -6.711   1.665  0.00  0.00    +0.170 A 
ATOM      7  N   UNL     1      -1.683  -8.032   1.674  0.00  0.00    -0.193 NA
ATOM      8  C   UNL     1      -1.830  -8.513   0.449  0.00  0.00    +0.223 A 
ATOM      9  N   UNL     1      -1.812  -9.671  -0.287  0.00  0.00    -0.283 N 
ATOM     10  N   UNL     1      -1.799  -5.732   2.647  0.00  0.00    -0.279 N 
ATOM     11  C   UNL     1      -2.009  -4.443   2.322  0.00  0.00    +0.333 A 
ATOM     12  O   UNL     1      -1.965  -3.597   3.195  0.00  0.00    -0.246 OA
ATOM     13  N   UNL     1      -2.266  -4.067   1.058  0.00  0.00    -0.259 N 
ATOM     14  C   UNL     1      -2.329  -4.974   0.061  0.00  0.00    +0.283 A 
ATOM     15  O   UNL     1      -2.569  -4.619  -1.080  0.00  0.00    -0.265 OA
ATOM     16  C   UNL     1      -1.522  -6.102   4.037  0.00  0.00    +0.155 C 
ENDROOT
BRANCH   9  17
ATOM     17  C   UNL     1      -1.572 -10.960   0.207  0.00  0.00    +0.050 A 
ATOM     18  C   UNL     1      -2.462 -11.537   1.103  0.00  0.00    +0.029 A 
ATOM     19  C   UNL     1      -2.226 -12.810   1.585  0.00  0.00    +0.040 A 
ATOM     20  C   UNL     1      -1.098 -13.506   1.183  0.00  0.00    +0.124 A 
ATOM     21  C   UNL     1      -0.207 -12.929   0.294  0.00  0.00    +0.040 A 
ATOM     22  C   UNL     1      -0.442 -11.659  -0.194  0.00  0.00    +0.029 A 
ATOM     23  F   UNL     1      -0.867 -14.749   1.660  0.00  0.00    -0.205 F 
ENDBRANCH   9  17
BRANCH  13  24
ATOM     24  C   UNL     1      -2.488  -2.650   0.758  0.00  0.00    +0.131 C 
BRANCH  24  25
ATOM     25  C   UNL     1      -1.153  -1.986   0.417  0.00  0.00    -0.011 C 
ATOM     26  C   UNL     1      -0.598  -2.591  -0.874  0.00  0.00    +0.007 C 
BRANCH  25  27
ATOM     27  C   UNL     1      -1.365  -0.483   0.226  0.00  0.00    -0.074 C 
BRANCH  27  29
ATOM     28  C   UNL     1      -0.738   0.166   2.473  0.00  0.00    -0.096 C 
ATOM     29  N   UNL     1      -1.847   0.094   1.498  0.00  0.00    +0.381 N 
ATOM     30  H   UNL     1      -2.587  -0.508   1.879  0.00  0.00    -0.082 HD
BRANCH  29  31
ATOM     31  C   UNL     1      -2.401   1.444   1.264  0.00  0.00    -0.043 C 
BRANCH  31  32
ATOM     32  C   UNL     1      -3.080   1.917   2.523  0.00  0.00    -0.064 A 
ATOM     33  C   UNL     1      -4.417   1.636   2.734  0.00  0.00    +0.002 A 
ATOM     34  C   UNL     1      -5.039   2.065   3.892  0.00  0.00    +0.000 A 
ATOM     35  C   UNL     1      -4.327   2.784   4.833  0.00  0.00    +0.000 A 
ATOM     36  C   UNL     1      -2.991   3.070   4.620  0.00  0.00    +0.000 A 
ATOM     37  C   UNL     1      -2.368   2.636   3.465  0.00  0.00    +0.002 A 
ENDBRANCH  31  32
ENDBRANCH  29  31
ENDBRANCH  27  29
ENDBRANCH  25  27
ENDBRANCH  24  25
ENDBRANCH  13  24
TORSDOF 7
