REMARK  Name = ZINC20738461
REMARK  3 active torsions:
REMARK  status: ('A' for Active; 'I' for Inactive)
REMARK    1  A    between atoms: C_1  and  N_2
REMARK    2  A    between atoms: N_5  and  C_6
REMARK    3  A    between atoms: C_7  and  C_21
REMARK                            x       y       z     vdW  Elec       q    Type
REMARK                         _______ _______ _______ _____ _____    ______ ____
ROOT
ATOM      1  C   UNL     1      -2.508   1.028   0.016  0.00  0.00    +0.056 C 
ATOM      2  C   UNL     1      -3.662   1.730  -0.132  0.00  0.00    +0.058 C 
ATOM      3  C   UNL     1      -3.633   3.183  -0.526  0.00  0.00    +0.011 C 
ATOM      4  C   UNL     1      -4.929   3.856  -0.066  0.00  0.00    +0.012 C 
ATOM      5  C   UNL     1      -4.908   5.332  -0.470  0.00  0.00    +0.001 C 
ATOM      6  C   UNL     1      -4.793   5.442  -1.992  0.00  0.00    +0.000 C 
ATOM      7  C   UNL     1      -3.501   4.766  -2.456  0.00  0.00    +0.001 C 
ATOM      8  C   UNL     1      -3.523   3.291  -2.050  0.00  0.00    +0.012 C 
ATOM      9  C   UNL     1      -2.439   3.888   0.129  0.00  0.00    +0.048 C 
ATOM     10  C   UNL     1      -1.175   3.112  -0.128  0.00  0.00    -0.038 A 
ATOM     11  C   UNL     1      -1.213   1.715  -0.163  0.00  0.00    +0.000 A 
ATOM     12  C   UNL     1      -0.036   0.992  -0.342  0.00  0.00    +0.010 A 
ATOM     13  C   UNL     1       1.159   1.661  -0.514  0.00  0.00    +0.001 A 
ATOM     14  C   UNL     1       1.188   3.044  -0.505  0.00  0.00    +0.000 A 
ATOM     15  C   UNL     1       0.023   3.768  -0.312  0.00  0.00    +0.004 A 
ENDROOT
BRANCH   1  20
ATOM     16  C   UNL     1      -1.222  -2.580   2.910  0.00  0.00    +0.129 C 
ATOM     17  N   UNL     1      -1.884  -2.091   1.698  0.00  0.00    -0.302 N 
ATOM     18  C   UNL     1      -1.936  -0.769   1.445  0.00  0.00    +0.304 C 
ATOM     19  O   UNL     1      -1.433   0.019   2.222  0.00  0.00    -0.253 OA
ATOM     20  N   UNL     1      -2.545  -0.320   0.330  0.00  0.00    -0.268 N 
ATOM     21  H   UNL     1      -2.339  -2.804   0.995  0.00  0.00    +0.150 HD
ATOM     22  H   UNL     1      -3.073  -1.024  -0.330  0.00  0.00    +0.156 HD
ENDBRANCH   1  20
BRANCH   2  23
ATOM     23  C   UNL     1      -4.919   1.081   0.091  0.00  0.00    +0.097 C 
ATOM     24  N   UNL     1      -5.916   0.566   0.267  0.00  0.00    -0.191 NA
ENDBRANCH   2  23
TORSDOF 2
