REMARK  Name = ZINC29866853
REMARK  12 active torsions:
REMARK  status: ('A' for Active; 'I' for Inactive)
REMARK    1  A    between atoms: C_1  and  C_2
REMARK    2  A    between atoms: C_2  and  N_3
REMARK    3  A    between atoms: C_4  and  C_27
REMARK    4  A    between atoms: C_7  and  S_8
REMARK    5  A    between atoms: S_8  and  C_9
REMARK    6  A    between atoms: C_9  and  C_11
REMARK    7  A    between atoms: C_9  and  C_12
REMARK    8  A    between atoms: C_12  and  C_14
REMARK    9  A    between atoms: C_16  and  C_25
REMARK   10  A    between atoms: C_16  and  C_26
REMARK   11  A    between atoms: N_23  and  C_24
REMARK   12  A    between atoms: C_27  and  N_28
REMARK                            x       y       z     vdW  Elec       q    Type
REMARK                         _______ _______ _______ _____ _____    ______ ____
ROOT
ATOM      1  S   UNL     1       0.478  10.552   0.250  0.00  0.00    -0.075 S 
ENDROOT
BRANCH   1   6
ATOM      2  N   UNL     1       0.631  13.345   0.309  0.00  0.00    -0.305 N 
ATOM      3  C   UNL     1      -0.233  14.375   0.558  0.00  0.00    +0.152 A 
ATOM      4  N   UNL     1      -1.392  13.850   0.838  0.00  0.00    -0.132 NA
ATOM      5  N   UNL     1      -1.322  12.568   0.777  0.00  0.00    -0.122 NA
ATOM      6  C   UNL     1      -0.103  12.203   0.453  0.00  0.00    +0.192 A 
BRANCH   2   8
ATOM      7  C   UNL     1       2.194  13.531  -1.563  0.00  0.00    +0.027 C 
ATOM      8  C   UNL     1       2.050  13.446  -0.042  0.00  0.00    +0.122 C 
ENDBRANCH   2   8
BRANCH   3   9
ATOM      9  C   UNL     1       0.096  15.845   0.523  0.00  0.00    +0.184 C 
BRANCH   9  10
ATOM     10  N   UNL     1       0.545  16.278   1.849  0.00  0.00    -0.294 N 
ATOM     11  C   UNL     1       1.975  16.216   2.192  0.00  0.00    +0.108 C 
ATOM     12  C   UNL     1       2.190  15.076   3.190  0.00  0.00    +0.019 C 
ATOM     13  C   UNL     1       1.962  15.553   4.613  0.00  0.00    +0.002 C 
ATOM     14  C   UNL     1       0.521  15.928   4.910  0.00  0.00    +0.009 C 
ATOM     15  C   UNL     1       0.109  17.168   4.112  0.00  0.00    +0.096 C 
ATOM     16  C   UNL     1      -0.344  16.729   2.735  0.00  0.00    +0.216 C 
ATOM     17  O   UNL     1      -1.518  16.786   2.438  0.00  0.00    -0.276 OA
ENDBRANCH   9  10
ENDBRANCH   3   9
ENDBRANCH   1   6
BRANCH   1  18
ATOM     18  C   UNL     1      -1.043   9.638   0.608  0.00  0.00    +0.122 C 
ATOM     19  C   UNL     1      -1.443   9.864   2.068  0.00  0.00    +0.028 C 
BRANCH  18  20
ATOM     20  C   UNL     1      -0.813   8.168   0.372  0.00  0.00    +0.171 C 
ATOM     21  O   UNL     1       0.310   7.709   0.448  0.00  0.00    -0.291 OA
BRANCH  20  22
ATOM     22  C   UNL     1      -1.894   7.329   0.066  0.00  0.00    +0.067 C 
ATOM     23  C   UNL     1      -1.706   5.990  -0.034  0.00  0.00    +0.024 C 
ATOM     24  C   UNL     1      -0.390   5.252   0.094  0.00  0.00    +0.030 C 
ATOM     25  C   UNL     1      -0.760   3.800  -0.100  0.00  0.00    -0.015 A 
ATOM     26  C   UNL     1      -0.018   2.640  -0.099  0.00  0.00    +0.006 A 
ATOM     27  C   UNL     1      -0.640   1.422  -0.309  0.00  0.00    +0.000 A 
ATOM     28  C   UNL     1      -2.006   1.374  -0.520  0.00  0.00    +0.002 A 
ATOM     29  C   UNL     1      -2.751   2.534  -0.527  0.00  0.00    +0.024 A 
ATOM     30  C   UNL     1      -2.133   3.765  -0.311  0.00  0.00    +0.038 A 
ATOM     31  N   UNL     1      -2.663   5.053  -0.268  0.00  0.00    -0.305 N 
ATOM     32  C   UNL     1      -4.084   5.361  -0.452  0.00  0.00    +0.135 C 
ATOM     33  C   UNL     1       0.213   5.470   1.483  0.00  0.00    +0.022 C 
ATOM     34  C   UNL     1       0.587   5.706  -0.993  0.00  0.00    +0.022 C 
ENDBRANCH  20  22
ENDBRANCH  18  20
ENDBRANCH   1  18
TORSDOF 7
