REMARK  Name = ZINC40456538
REMARK  8 active torsions:
REMARK  status: ('A' for Active; 'I' for Inactive)
REMARK    1  A    between atoms: C_1  and  C_2
REMARK    2  A    between atoms: C_2  and  C_4
REMARK    3  A    between atoms: C_2  and  N_19
REMARK    4  A    between atoms: N_6  and  C_7
REMARK    5  A    between atoms: C_13  and  C_15
REMARK    6  A    between atoms: C_15  and  C_16
REMARK    7  A    between atoms: C_15  and  C_17
REMARK    8  A    between atoms: C_15  and  C_18
REMARK                            x       y       z     vdW  Elec       q    Type
REMARK                         _______ _______ _______ _____ _____    ______ ____
ROOT
ATOM      1  C   UNL     1      -1.819   0.266   0.266  0.00  0.00    +0.198 C 
ATOM      2  O   UNL     1      -2.329  -0.193  -0.734  0.00  0.00    -0.278 OA
ATOM      3  N   UNL     1      -2.506   0.289   1.425  0.00  0.00    -0.314 N 
ATOM      4  H   UNL     1      -2.098   0.656   2.224  0.00  0.00    +0.149 HD
ENDROOT
BRANCH   3   5
ATOM      5  C   UNL     1      -3.871  -0.242   1.477  0.00  0.00    +0.076 C 
ATOM      6  C   UNL     1      -4.865   0.877   1.157  0.00  0.00    +0.022 C 
ATOM      7  C   UNL     1      -6.290   0.323   1.212  0.00  0.00    +0.002 C 
ATOM      8  C   UNL     1      -6.572  -0.225   2.613  0.00  0.00    +0.000 C 
ATOM      9  C   UNL     1      -5.577  -1.343   2.932  0.00  0.00    +0.006 C 
ATOM     10  C   UNL     1      -4.152  -0.789   2.877  0.00  0.00    +0.015 C 
BRANCH  10  11
ATOM     11  C   UNL     1      -3.158  -1.908   3.197  0.00  0.00    -0.033 C 
ATOM     12  C   UNL     1      -1.747  -1.323   3.296  0.00  0.00    +0.011 C 
ATOM     13  C   UNL     1      -3.534  -2.560   4.528  0.00  0.00    +0.011 C 
ATOM     14  C   UNL     1      -3.197  -2.958   2.085  0.00  0.00    +0.011 C 
ENDBRANCH  10  11
ENDBRANCH   3   5
BRANCH   1  16
ATOM     15  C   UNL     1      -0.427   2.290   0.606  0.00  0.00    -0.005 C 
ATOM     16  C   UNL     1      -0.415   0.812   0.212  0.00  0.00    +0.010 C 
BRANCH  16  17
ATOM     17  N   UNL     1       0.113   0.673  -1.152  0.00  0.00    +0.385 N 
ATOM     18  H   UNL     1       1.052   1.038  -1.188  0.00  0.00    -0.089 HD
ATOM     19  H   UNL     1       0.120  -0.302  -1.412  0.00  0.00    -0.089 HD
ATOM     20  H   UNL     1      -0.473   1.187  -1.793  0.00  0.00    -0.089 HD
ENDBRANCH  16  17
ENDBRANCH   1  16
TORSDOF 4
