REMARK  Name = ZINC53061442
REMARK  5 active torsions:
REMARK  status: ('A' for Active; 'I' for Inactive)
REMARK    1  A    between atoms: C_4  and  N_26
REMARK    2  A    between atoms: C_5  and  N_7
REMARK    3  A    between atoms: N_7  and  N_8
REMARK    4  A    between atoms: C_9  and  C_11
REMARK    5  A    between atoms: N_15  and  C_18
REMARK                            x       y       z     vdW  Elec       q    Type
REMARK                         _______ _______ _______ _____ _____    ______ ____
ROOT
ATOM      1  N   UNL     1      -0.138  -2.675   0.636  0.00  0.00    -0.236 N 
ATOM      2  C   UNL     1      -0.184  -4.002   0.867  0.00  0.00    +0.241 C 
ATOM      3  O   UNL     1       0.844  -4.642   0.934  0.00  0.00    -0.273 OA
ATOM      4  H   UNL     1      -0.960  -2.163   0.582  0.00  0.00    +0.173 HD
ENDROOT
BRANCH   2   5
ATOM      5  C   UNL     1      -1.513  -4.690   1.043  0.00  0.00    +0.164 C 
ATOM      6  C   UNL     1      -1.313  -6.209   1.249  0.00  0.00    +0.041 C 
ATOM      7  C   UNL     1      -2.526  -6.793   0.492  0.00  0.00    +0.115 C 
ATOM      8  N   UNL     1      -2.882  -5.785  -0.513  0.00  0.00    -0.271 N 
ATOM      9  C   UNL     1      -2.333  -4.590  -0.225  0.00  0.00    +0.232 C 
ATOM     10  O   UNL     1      -2.473  -3.582  -0.884  0.00  0.00    -0.274 OA
BRANCH   8  11
ATOM     11  C   UNL     1      -3.691  -6.033  -1.627  0.00  0.00    +0.042 A 
ATOM     12  C   UNL     1      -4.220  -7.300  -1.835  0.00  0.00    +0.062 A 
ATOM     13  C   UNL     1      -5.019  -7.544  -2.937  0.00  0.00    +0.128 A 
ATOM     14  C   UNL     1      -5.292  -6.524  -3.834  0.00  0.00    +0.076 A 
ATOM     15  C   UNL     1      -4.767  -5.260  -3.629  0.00  0.00    +0.128 A 
ATOM     16  C   UNL     1      -3.972  -5.011  -2.524  0.00  0.00    +0.062 A 
ATOM     17  F   UNL     1      -5.034  -4.267  -4.505  0.00  0.00    -0.205 F 
ATOM     18  F   UNL     1      -5.533  -8.777  -3.139  0.00  0.00    -0.205 F 
ENDBRANCH   8  11
ENDBRANCH   2   5
BRANCH   1  19
ATOM     19  N   UNL     1       1.097  -2.035   0.472  0.00  0.00    -0.262 N 
ATOM     20  H   UNL     1       1.920  -2.547   0.526  0.00  0.00    +0.170 HD
BRANCH  19  25
ATOM     21  C   UNL     1       0.030   1.454   0.031  0.00  0.00    +0.002 A 
ATOM     22  C   UNL     1       1.240   2.065  -0.243  0.00  0.00    +0.002 A 
ATOM     23  C   UNL     1       2.403   1.317  -0.280  0.00  0.00    +0.034 A 
ATOM     24  C   UNL     1       2.359  -0.043  -0.043  0.00  0.00    +0.148 A 
ATOM     25  C   UNL     1       1.145  -0.659   0.233  0.00  0.00    +0.075 A 
ATOM     26  C   UNL     1      -0.021   0.095   0.269  0.00  0.00    +0.027 A 
BRANCH  24  27
ATOM     27  N   UNL     1       3.604  -0.842  -0.083  0.00  0.00    +0.058 N 
ATOM     28  O   UNL     1       4.636  -0.375   0.339  0.00  0.00    -0.126 OA
ATOM     29  O   UNL     1       3.589  -1.963  -0.537  0.00  0.00    -0.126 OA
ENDBRANCH  24  27
ENDBRANCH  19  25
ENDBRANCH   1  19
TORSDOF 5
