REMARK  Name = ZINC11663053
REMARK  6 active torsions:
REMARK  status: ('A' for Active; 'I' for Inactive)
REMARK    1  A    between atoms: C_1  and  N_2
REMARK    2  A    between atoms: N_2  and  C_3
REMARK    3  A    between atoms: C_3  and  C_4
REMARK    4  A    between atoms: C_4  and  C_5
REMARK    5  A    between atoms: C_11  and  C_13
REMARK    6  A    between atoms: N_15  and  C_18
REMARK                            x       y       z     vdW  Elec       q    Type
REMARK                         _______ _______ _______ _____ _____    ______ ____
ROOT
ATOM      1  C   UNL     1       3.878  -3.932  -1.604  0.00  0.00    +0.132 C 
ATOM      2  N   UNL     1       2.428  -3.746  -1.520  0.00  0.00    -0.299 N 
ATOM      3  C   UNL     1       1.613  -4.819  -1.468  0.00  0.00    +0.268 C 
ATOM      4  O   UNL     1       0.414  -4.665  -1.328  0.00  0.00    -0.268 OA
ENDROOT
BRANCH   3   5
ATOM      5  C   UNL     1       2.174  -6.178  -1.581  0.00  0.00    +0.167 A 
ATOM      6  C   UNL     1       1.453  -7.336  -1.658  0.00  0.00    +0.143 A 
ATOM      7  N   UNL     1       2.343  -8.344  -1.752  0.00  0.00    -0.248 N 
ATOM      8  N   UNL     1       3.619  -7.764  -1.721  0.00  0.00    -0.065 NA
ATOM      9  N   UNL     1       3.481  -6.487  -1.620  0.00  0.00    -0.125 NA
BRANCH   7  10
ATOM     10  C   UNL     1       2.036  -9.773  -1.860  0.00  0.00    +0.109 C 
ATOM     11  C   UNL     1       0.764  -9.960  -2.689  0.00  0.00    +0.027 C 
ATOM     12  C   UNL     1       0.443 -11.451  -2.801  0.00  0.00    +0.002 C 
ATOM     13  C   UNL     1       0.230 -12.034  -1.403  0.00  0.00    +0.000 C 
ATOM     14  C   UNL     1       1.502 -11.847  -0.574  0.00  0.00    +0.002 C 
ATOM     15  C   UNL     1       1.823 -10.355  -0.461  0.00  0.00    +0.027 C 
ENDBRANCH   7  10
ENDBRANCH   3   5
BRANCH   2  16
ATOM     16  C   UNL     1       1.863  -2.395  -1.492  0.00  0.00    +0.112 C 
BRANCH  16  17
ATOM     17  C   UNL     1       1.751  -1.919  -0.042  0.00  0.00    +0.057 C 
BRANCH  17  18
ATOM     18  C   UNL     1       1.170  -0.529  -0.013  0.00  0.00    -0.009 A 
ATOM     19  C   UNL     1       1.871   0.628  -0.058  0.00  0.00    +0.108 A 
ATOM     20  N   UNL     1       0.987   1.646  -0.009  0.00  0.00    -0.284 N 
ATOM     21  H   UNL     1       1.210   2.621  -0.026  0.00  0.00    +0.188 HD
ATOM     22  N   UNL     1      -0.300   1.097   0.069  0.00  0.00    -0.182 NA
ATOM     23  C   UNL     1      -0.189  -0.206   0.067  0.00  0.00    +0.137 A 
ENDBRANCH  17  18
ENDBRANCH  16  17
ENDBRANCH   2  16
TORSDOF 5
