REMARK  Name = ZINC58291757
REMARK  5 active torsions:
REMARK  status: ('A' for Active; 'I' for Inactive)
REMARK    1  A    between atoms: C_1  and  C_2
REMARK    2  A    between atoms: C_2  and  C_4
REMARK    3  A    between atoms: C_2  and  N_15
REMARK    4  A    between atoms: N_15  and  C_16
REMARK    5  A    between atoms: C_16  and  C_17
REMARK                            x       y       z     vdW  Elec       q    Type
REMARK                         _______ _______ _______ _____ _____    ______ ____
ROOT
ATOM      1  C   UNL     1      -0.019   1.526   0.010  0.00  0.00    -0.009 C 
ATOM      2  C   UNL     1       0.002  -0.004   0.002  0.00  0.00    -0.044 C 
ENDROOT
BRANCH   2   3
ATOM      3  C   UNL     1      -1.412  -0.526   0.013  0.00  0.00    -0.061 A 
ATOM      4  C   UNL     1      -2.122  -0.570   1.199  0.00  0.00    +0.004 A 
ATOM      5  C   UNL     1      -3.418  -1.047   1.212  0.00  0.00    +0.024 A 
ATOM      6  C   UNL     1      -4.008  -1.482   0.033  0.00  0.00    +0.037 A 
ATOM      7  C   UNL     1      -3.292  -1.436  -1.156  0.00  0.00    -0.026 A 
ATOM      8  C   UNL     1      -1.998  -0.953  -1.164  0.00  0.00    +0.007 A 
ATOM      9  C   UNL     1      -3.933  -1.908  -2.436  0.00  0.00    +0.046 C 
ATOM     10  C   UNL     1      -4.877  -3.072  -2.135  0.00  0.00    +0.101 C 
ATOM     11  C   UNL     1      -5.774  -2.720  -0.979  0.00  0.00    +0.218 C 
ATOM     12  O   UNL     1      -6.919  -3.119  -0.965  0.00  0.00    -0.275 OA
ATOM     13  N   UNL     1      -5.319  -1.966   0.040  0.00  0.00    -0.285 N 
ATOM     14  H   UNL     1      -5.906  -1.758   0.784  0.00  0.00    +0.155 HD
ENDBRANCH   2   3
BRANCH   2  15
ATOM     15  N   UNL     1       0.713  -0.491   1.192  0.00  0.00    +0.384 N 
ATOM     16  H   UNL     1       0.290  -0.099   2.020  0.00  0.00    -0.085 HD
ATOM     17  H   UNL     1       0.655  -1.497   1.230  0.00  0.00    -0.085 HD
BRANCH  15  18
ATOM     18  C   UNL     1       2.122  -0.083   1.122  0.00  0.00    -0.075 C 
BRANCH  18  19
ATOM     19  C   UNL     1       2.862  -0.589   2.361  0.00  0.00    +0.010 C 
ATOM     20  C   UNL     1       2.878  -2.122   2.354  0.00  0.00    +0.106 C 
ATOM     21  N   UNL     1       3.534  -2.590   3.591  0.00  0.00    -0.329 N 
ATOM     22  C   UNL     1       4.693  -1.908   3.968  0.00  0.00    +0.117 A 
ATOM     23  C   UNL     1       5.620  -2.235   4.894  0.00  0.00    +0.064 A 
ATOM     24  C   UNL     1       6.592  -1.226   4.895  0.00  0.00    +0.136 A 
ATOM     25  N   UNL     1       6.257  -0.328   4.001  0.00  0.00    -0.178 NA
ATOM     26  N   UNL     1       5.064  -0.730   3.402  0.00  0.00    -0.251 N 
ATOM     27  C   UNL     1       4.299  -0.055   2.351  0.00  0.00    +0.148 C 
ATOM     28  H   UNL     1       3.180  -3.329   4.111  0.00  0.00    +0.147 HD
ENDBRANCH  18  19
ENDBRANCH  15  18
ENDBRANCH   2  15
TORSDOF 4
