REMARK  Name = ZINC36125917
REMARK  4 active torsions:
REMARK  status: ('A' for Active; 'I' for Inactive)
REMARK    1  A    between atoms: C_1  and  N_2
REMARK    2  A    between atoms: C_6  and  S_12
REMARK    3  A    between atoms: S_12  and  N_15
REMARK    4  A    between atoms: N_15  and  C_16
REMARK                            x       y       z     vdW  Elec       q    Type
REMARK                         _______ _______ _______ _____ _____    ______ ____
ROOT
ATOM      1  S   UNL     1      -4.380  -4.117   0.026  0.00  0.00    +0.072 S 
ATOM      2  O   UNL     1      -3.842  -5.340   0.512  0.00  0.00    -0.150 OA
ATOM      3  O   UNL     1      -5.536  -3.516   0.592  0.00  0.00    -0.150 OA
ENDROOT
BRANCH   1   9
ATOM      4  C   UNL     1       0.157   1.171   0.455  0.00  0.00    +0.138 C 
ATOM      5  N   UNL     1       0.122  -0.291   0.362  0.00  0.00    -0.274 N 
ATOM      6  C   UNL     1      -1.055  -1.037   0.290  0.00  0.00    +0.040 A 
ATOM      7  C   UNL     1      -2.390  -0.636   0.288  0.00  0.00    +0.026 A 
ATOM      8  C   UNL     1      -3.396  -1.576   0.207  0.00  0.00    +0.030 A 
ATOM      9  C   UNL     1      -3.089  -2.922   0.128  0.00  0.00    +0.109 A 
ATOM     10  C   UNL     1      -1.766  -3.329   0.130  0.00  0.00    +0.034 A 
ATOM     11  C   UNL     1      -0.760  -2.392   0.210  0.00  0.00    -0.015 A 
ATOM     12  C   UNL     1       0.747  -2.502   0.235  0.00  0.00    +0.133 C 
ATOM     13  C   UNL     1       1.218  -1.066   0.331  0.00  0.00    +0.224 C 
ATOM     14  O   UNL     1       2.370  -0.688   0.373  0.00  0.00    -0.275 OA
ENDBRANCH   1   9
BRANCH   1  15
ATOM     15  N   UNL     1      -4.706  -4.350  -1.581  0.00  0.00    -0.213 N 
ATOM     16  H   UNL     1      -5.591  -4.158  -1.929  0.00  0.00    +0.174 HD
BRANCH  15  17
ATOM     17  C   UNL     1      -3.705  -4.823  -2.437  0.00  0.00    +0.091 A 
ATOM     18  C   UNL     1      -2.776  -5.748  -1.979  0.00  0.00    +0.028 A 
ATOM     19  C   UNL     1      -1.787  -6.217  -2.823  0.00  0.00    +0.004 A 
ATOM     20  C   UNL     1      -1.716  -5.768  -4.130  0.00  0.00    +0.027 A 
ATOM     21  C   UNL     1      -2.640  -4.845  -4.595  0.00  0.00    +0.078 A 
ATOM     22  C   UNL     1      -3.641  -4.374  -3.750  0.00  0.00    +0.164 A 
ATOM     23  O   UNL     1      -4.543  -3.469  -4.219  0.00  0.00    -0.479 OA
ATOM     24  C   UNL     1      -4.074  -2.544  -5.203  0.00  0.00    +0.325 C 
ATOM     25  C   UNL     1      -3.287  -3.281  -6.257  0.00  0.00    +0.255 C 
ATOM     26  O   UNL     1      -3.280  -2.882  -7.402  0.00  0.00    -0.272 OA
ATOM     27  N   UNL     1      -2.583  -4.380  -5.917  0.00  0.00    -0.280 N 
ATOM     28  H   UNL     1      -2.054  -4.848  -6.582  0.00  0.00    +0.155 HD
ENDBRANCH  15  17
ENDBRANCH   1  15
TORSDOF 3
