REMARK  Name = ZINC20806798
REMARK  10 active torsions:
REMARK  status: ('A' for Active; 'I' for Inactive)
REMARK    1  A    between atoms: C_1  and  N_2
REMARK    2  A    between atoms: N_2  and  C_3
REMARK    3  A    between atoms: N_2  and  S_4
REMARK    4  A    between atoms: S_4  and  C_7
REMARK    5  A    between atoms: C_10  and  O_34
REMARK    6  A    between atoms: C_11  and  N_13
REMARK    7  A    between atoms: C_14  and  C_16
REMARK    8  A    between atoms: C_16  and  N_17
REMARK    9  A    between atoms: C_21  and  C_23
REMARK   10  A    between atoms: O_34  and  C_35
REMARK                            x       y       z     vdW  Elec       q    Type
REMARK                         _______ _______ _______ _____ _____    ______ ____
ROOT
ATOM      1  N   UNL     1      -2.075   6.609  -7.171  0.00  0.00    -0.284 N 
ATOM      2  C   UNL     1      -0.938   6.648  -6.449  0.00  0.00    +0.201 C 
ATOM      3  O   UNL     1      -0.419   7.714  -6.192  0.00  0.00    -0.278 OA
ATOM      4  H   UNL     1      -2.505   5.641  -7.467  0.00  0.00    +0.155 HD
ENDROOT
BRANCH   1   9
ATOM      5  C   UNL     1      -2.579  10.099  -8.220  0.00  0.00    +0.107 A 
ATOM      6  C   UNL     1      -3.958  10.159  -8.290  0.00  0.00    +0.032 A 
ATOM      7  C   UNL     1      -4.718   9.044  -7.988  0.00  0.00    +0.049 A 
ATOM      8  C   UNL     1      -4.097   7.860  -7.622  0.00  0.00    +0.141 A 
ATOM      9  C   UNL     1      -2.708   7.801  -7.547  0.00  0.00    +0.077 A 
ATOM     10  C   UNL     1      -1.952   8.924  -7.850  0.00  0.00    +0.055 A 
BRANCH   5  11
ATOM     11  S   UNL     1      -1.617  11.524  -8.605  0.00  0.00    +0.060 S 
ATOM     12  O   UNL     1      -2.457  12.650  -8.395  0.00  0.00    -0.153 OA
ATOM     13  O   UNL     1      -0.372  11.367  -7.938  0.00  0.00    -0.153 OA
BRANCH  11  15
ATOM     14  C   UNL     1      -2.212  12.103 -11.179  0.00  0.00    +0.131 C 
ATOM     15  N   UNL     1      -1.293  11.472 -10.229  0.00  0.00    -0.183 NA
ATOM     16  C   UNL     1      -0.088  10.796 -10.714  0.00  0.00    +0.131 C 
ENDBRANCH  11  15
ENDBRANCH   5  11
BRANCH   8  17
ATOM     17  O   UNL     1      -4.843   6.761  -7.331  0.00  0.00    -0.493 OA
ATOM     18  C   UNL     1      -6.262   6.895  -7.429  0.00  0.00    +0.277 C 
ENDBRANCH   8  17
ENDBRANCH   1   9
BRANCH   2  19
ATOM     19  C   UNL     1      -0.311   5.368  -5.959  0.00  0.00    +0.020 C 
BRANCH  19  20
ATOM     20  N   UNL     1       0.909   5.677  -5.202  0.00  0.00    +0.390 N 
ATOM     21  C   UNL     1       2.018   6.072  -6.112  0.00  0.00    -0.077 C 
ATOM     22  C   UNL     1       3.302   5.834  -5.288  0.00  0.00    -0.020 C 
ATOM     23  C   UNL     1       2.911   4.781  -4.231  0.00  0.00    -0.013 C 
ATOM     24  C   UNL     1       1.423   4.471  -4.504  0.00  0.00    -0.037 C 
ATOM     25  H   UNL     1       0.621   6.481  -4.509  0.00  0.00    -0.080 HD
BRANCH  24  26
ATOM     26  C   UNL     1       0.684   4.259  -3.208  0.00  0.00    -0.057 A 
ATOM     27  C   UNL     1       0.329   5.347  -2.432  0.00  0.00    +0.006 A 
ATOM     28  C   UNL     1      -0.350   5.160  -1.241  0.00  0.00    +0.049 A 
ATOM     29  C   UNL     1      -0.673   3.878  -0.829  0.00  0.00    +0.162 A 
ATOM     30  C   UNL     1      -0.317   2.787  -1.608  0.00  0.00    +0.162 A 
ATOM     31  C   UNL     1       0.363   2.977  -2.799  0.00  0.00    +0.051 A 
ATOM     32  O   UNL     1      -0.640   1.527  -1.193  0.00  0.00    -0.488 OA
ATOM     33  C   UNL     1       0.047   1.056  -0.033  0.00  0.00    +0.232 C 
ATOM     34  C   UNL     1      -0.646   1.531   1.235  0.00  0.00    +0.082 C 
ATOM     35  C   UNL     1      -0.601   3.044   1.387  0.00  0.00    +0.232 C 
ATOM     36  O   UNL     1      -1.342   3.680   0.344  0.00  0.00    -0.488 OA
ENDBRANCH  24  26
ENDBRANCH  19  20
ENDBRANCH   2  19
TORSDOF 7
