REMARK  Name = ZINC36484044
REMARK  11 active torsions:
REMARK  status: ('A' for Active; 'I' for Inactive)
REMARK    1  A    between atoms: C_1  and  C_2
REMARK    2  A    between atoms: C_2  and  C_3
REMARK    3  A    between atoms: C_2  and  C_4
REMARK    4  A    between atoms: C_2  and  N_5
REMARK    5  A    between atoms: C_6  and  C_8
REMARK    6  A    between atoms: C_8  and  C_10
REMARK    7  A    between atoms: C_8  and  N_19
REMARK    8  A    between atoms: C_11  and  O_18
REMARK    9  A    between atoms: C_13  and  O_17
REMARK   10  A    between atoms: C_15  and  O_16
REMARK   11  A    between atoms: N_19  and  C_22
REMARK                            x       y       z     vdW  Elec       q    Type
REMARK                         _______ _______ _______ _____ _____    ______ ____
ROOT
ATOM      1  C   UNL     1       2.547  -0.368  -2.677  0.00  0.00    +0.204 C 
ENDROOT
BRANCH   1   2
ATOM      2  C   UNL     1       1.350   0.005  -3.513  0.00  0.00    +0.065 A 
ATOM      3  C   UNL     1       1.284  -0.385  -4.841  0.00  0.00    +0.129 A 
ATOM      4  C   UNL     1       0.182  -0.042  -5.611  0.00  0.00    +0.091 A 
ATOM      5  C   UNL     1      -0.853   0.692  -5.051  0.00  0.00    +0.124 A 
ATOM      6  C   UNL     1      -0.786   1.082  -3.722  0.00  0.00    +0.091 A 
ATOM      7  C   UNL     1       0.313   0.735  -2.951  0.00  0.00    +0.129 A 
BRANCH   7   8
ATOM      8  O   UNL     1       0.376   1.113  -1.648  0.00  0.00    -0.506 OA
ATOM      9  H   UNL     1       0.794   1.974  -1.508  0.00  0.00    +0.292 HD
ENDBRANCH   7   8
BRANCH   5  10
ATOM     10  O   UNL     1      -1.932   1.030  -5.805  0.00  0.00    -0.507 OA
ATOM     11  H   UNL     1      -2.646   0.378  -5.784  0.00  0.00    +0.292 HD
ENDBRANCH   5  10
BRANCH   3  12
ATOM     12  O   UNL     1       2.298  -1.105  -5.390  0.00  0.00    -0.506 OA
ATOM     13  H   UNL     1       2.228  -2.058  -5.243  0.00  0.00    +0.292 HD
ENDBRANCH   3  12
ENDBRANCH   1   2
BRANCH   1  15
ATOM     14  N   UNL     1       1.437  -1.616  -0.853  0.00  0.00    -0.309 N 
ATOM     15  C   UNL     1       2.127  -0.524  -1.238  0.00  0.00    +0.239 C 
ATOM     16  O   UNL     1       2.408   0.333  -0.427  0.00  0.00    -0.273 OA
ATOM     17  H   UNL     1       1.212  -2.301  -1.501  0.00  0.00    +0.149 HD
BRANCH  14  19
ATOM     18  C   UNL     1       0.122  -0.600   0.942  0.00  0.00    +0.031 C 
ATOM     19  C   UNL     1       1.028  -1.768   0.546  0.00  0.00    +0.026 C 
ATOM     20  C   UNL     1       2.268  -1.779   1.442  0.00  0.00    +0.031 C 
ATOM     21  C   UNL     1       0.266  -3.084   0.714  0.00  0.00    +0.031 C 
ENDBRANCH  14  19
ENDBRANCH   1  15
BRANCH   1  22
ATOM     22  N   UNL     1       3.561   0.685  -2.777  0.00  0.00    -0.258 N 
ATOM     23  C   UNL     1       3.270   1.940  -2.381  0.00  0.00    +0.333 C 
ATOM     24  O   UNL     1       4.078   2.830  -2.544  0.00  0.00    -0.279 OA
BRANCH  22  25
ATOM     25  C   UNL     1       4.830   0.388  -3.285  0.00  0.00    +0.039 A 
ATOM     26  C   UNL     1       5.305   1.056  -4.406  0.00  0.00    +0.023 A 
ATOM     27  C   UNL     1       6.559   0.761  -4.905  0.00  0.00    +0.003 A 
ATOM     28  C   UNL     1       7.341  -0.199  -4.290  0.00  0.00    +0.020 A 
ATOM     29  C   UNL     1       6.872  -0.867  -3.173  0.00  0.00    +0.043 A 
ATOM     30  C   UNL     1       5.620  -0.571  -2.665  0.00  0.00    +0.043 A 
ATOM     31 CL   UNL     1       7.857  -2.072  -2.405  0.00  0.00    -0.083 Cl
ENDBRANCH  22  25
ENDBRANCH   1  22
TORSDOF 8
