REMARK  Name = ZINC17084804
REMARK  4 active torsions:
REMARK  status: ('A' for Active; 'I' for Inactive)
REMARK    1  A    between atoms: C_5  and  N_7
REMARK    2  A    between atoms: N_7  and  C_8
REMARK    3  A    between atoms: C_13  and  C_14
REMARK    4  A    between atoms: C_17  and  C_20
REMARK                            x       y       z     vdW  Elec       q    Type
REMARK                         _______ _______ _______ _____ _____    ______ ____
ROOT
ATOM      1  C   UNL     1      -0.083  -2.696   1.124  0.00  0.00    +0.175 C 
ATOM      2  N   UNL     1      -1.319  -2.268   0.916  0.00  0.00    -0.152 NA
ATOM      3  C   UNL     1      -2.319  -3.087   0.680  0.00  0.00    +0.276 C 
ATOM      4  O   UNL     1      -3.454  -2.680   0.489  0.00  0.00    -0.267 OA
ATOM      5  C   UNL     1      -1.992  -4.534   0.658  0.00  0.00    +0.079 C 
ATOM      6  C   UNL     1      -2.797  -5.603   0.444  0.00  0.00    +0.028 C 
ATOM      7  S   UNL     1      -0.234  -4.470   0.985  0.00  0.00    -0.050 S 
ENDROOT
BRANCH   6   8
ATOM      8  C   UNL     1      -2.276  -6.965   0.632  0.00  0.00    -0.024 A 
ATOM      9  C   UNL     1      -3.040  -8.071   0.243  0.00  0.00    +0.008 A 
ATOM     10  C   UNL     1      -2.545  -9.344   0.423  0.00  0.00    +0.013 A 
ATOM     11  C   UNL     1      -1.295  -9.531   0.989  0.00  0.00    +0.055 A 
ATOM     12  C   UNL     1      -0.533  -8.443   1.377  0.00  0.00    +0.013 A 
ATOM     13  C   UNL     1      -1.012  -7.162   1.198  0.00  0.00    +0.008 A 
BRANCH  11  14
ATOM     14  C   UNL     1      -0.762 -10.927   1.183  0.00  0.00    +0.417 C 
ATOM     15  F   UNL     1      -0.048 -11.316   0.045  0.00  0.00    -0.166 F 
ATOM     16  F   UNL     1       0.085 -10.952   2.296  0.00  0.00    -0.166 F 
ATOM     17  F   UNL     1      -1.828 -11.809   1.389  0.00  0.00    -0.166 F 
ENDBRANCH  11  14
ENDBRANCH   6   8
BRANCH   1  18
ATOM     18  N   UNL     1       1.041  -1.956   1.379  0.00  0.00    -0.190 NA
BRANCH  18  23
ATOM     19  C   UNL     1      -0.360   1.262   2.475  0.00  0.00    +0.002 A 
ATOM     20  C   UNL     1       0.710   2.107   2.242  0.00  0.00    +0.002 A 
ATOM     21  C   UNL     1       1.890   1.606   1.724  0.00  0.00    +0.022 A 
ATOM     22  C   UNL     1       2.004   0.259   1.436  0.00  0.00    +0.064 A 
ATOM     23  C   UNL     1       0.930  -0.592   1.669  0.00  0.00    +0.074 A 
ATOM     24  C   UNL     1      -0.253  -0.086   2.190  0.00  0.00    +0.026 A 
ATOM     25 CL   UNL     1       3.485  -0.368   0.784  0.00  0.00    -0.082 Cl
ENDBRANCH  18  23
ENDBRANCH   1  18
TORSDOF 4
