REMARK  Name = ZINC09581106
REMARK  3 active torsions:
REMARK  status: ('A' for Active; 'I' for Inactive)
REMARK    1  A    between atoms: C_4  and  C_7
REMARK    2  A    between atoms: C_9  and  C_34
REMARK    3  A    between atoms: C_25  and  C_28
REMARK                            x       y       z     vdW  Elec       q    Type
REMARK                         _______ _______ _______ _____ _____    ______ ____
ROOT
ATOM      1  C   UNL     1      -6.004   1.541   0.126  0.00  0.00    +0.098 C 
ATOM      2  C   UNL     1      -4.673   0.817   0.161  0.00  0.00    +0.082 C 
ATOM      3  C   UNL     1      -3.531   1.592  -0.024  0.00  0.00    +0.146 C 
ATOM      4  N   UNL     1      -2.346   0.969   0.018  0.00  0.00    -0.215 NA
ATOM      5  C   UNL     1      -1.208   1.635   0.017  0.00  0.00    +0.127 C 
ATOM      6  C   UNL     1      -1.254   3.105   0.060  0.00  0.00    +0.036 A 
ATOM      7  C   UNL     1      -0.090   3.865   0.157  0.00  0.00    +0.013 A 
ATOM      8  C   UNL     1      -0.177   5.237   0.250  0.00  0.00    +0.001 A 
ATOM      9  C   UNL     1      -1.417   5.855   0.277  0.00  0.00    +0.002 A 
ATOM     10  C   UNL     1      -2.577   5.108   0.192  0.00  0.00    +0.024 A 
ATOM     11  C   UNL     1      -2.512   3.740  -0.004  0.00  0.00    +0.050 A 
ATOM     12  N   UNL     1      -3.636   2.953  -0.242  0.00  0.00    -0.256 N 
ATOM     13  C   UNL     1      -4.800   3.531  -0.678  0.00  0.00    +0.025 C 
ATOM     14  C   UNL     1      -5.989   2.890  -0.565  0.00  0.00    +0.025 C 
ATOM     15  C   UNL     1      -7.184   3.418  -1.069  0.00  0.00    +0.162 C 
ATOM     16  O   UNL     1      -8.227   2.813  -0.914  0.00  0.00    -0.292 OA
ATOM     17  C   UNL     1      -7.199   4.731  -1.809  0.00  0.00    +0.091 C 
ATOM     18  C   UNL     1      -5.824   4.936  -2.455  0.00  0.00    +0.068 C 
ATOM     19  C   UNL     1      -4.762   4.881  -1.353  0.00  0.00    +0.063 C 
ATOM     20  N   UNL     1      -0.011   0.966   0.007  0.00  0.00    -0.343 N 
ATOM     21  H   UNL     1       0.002  -0.004   0.002  0.00  0.00    +0.144 HD
ATOM     22  H   UNL     1       0.822   1.462   0.002  0.00  0.00    +0.144 HD
ENDROOT
BRANCH   1  26
ATOM     23  C   UNL     1      -7.288   2.117   4.160  0.00  0.00    +0.000 A 
ATOM     24  C   UNL     1      -8.069   1.387   3.283  0.00  0.00    +0.000 A 
ATOM     25  C   UNL     1      -7.654   1.201   1.978  0.00  0.00    +0.004 A 
ATOM     26  C   UNL     1      -6.457   1.744   1.549  0.00  0.00    -0.035 A 
ATOM     27  C   UNL     1      -5.673   2.469   2.427  0.00  0.00    +0.004 A 
ATOM     28  C   UNL     1      -6.091   2.659   3.731  0.00  0.00    +0.000 A 
ENDBRANCH   1  26
BRANCH  18  29
ATOM     29  C   UNL     1      -5.778   6.281  -3.134  0.00  0.00    +0.109 A 
ATOM     30  C   UNL     1      -5.558   6.495  -4.444  0.00  0.00    +0.045 A 
ATOM     31  C   UNL     1      -5.600   7.894  -4.643  0.00  0.00    +0.041 A 
ATOM     32  C   UNL     1      -5.843   8.451  -3.444  0.00  0.00    +0.195 A 
ATOM     33  O   UNL     1      -5.956   7.470  -2.534  0.00  0.00    -0.468 OA
ENDBRANCH  18  29
BRANCH   2  34
ATOM     34  C   UNL     1      -4.597  -0.593   0.375  0.00  0.00    +0.099 C 
ATOM     35  N   UNL     1      -4.536  -1.715   0.546  0.00  0.00    -0.191 NA
ENDBRANCH   2  34
TORSDOF 3
