REMARK  Name = ZINC41762794
REMARK  7 active torsions:
REMARK  status: ('A' for Active; 'I' for Inactive)
REMARK    1  A    between atoms: C_1  and  C_2
REMARK    2  A    between atoms: C_5  and  C_7
REMARK    3  A    between atoms: N_9  and  C_10
REMARK    4  A    between atoms: C_14  and  C_16
REMARK    5  A    between atoms: N_18  and  C_19
REMARK    6  A    between atoms: C_24  and  C_25
REMARK    7  A    between atoms: C_25  and  C_27
REMARK                            x       y       z     vdW  Elec       q    Type
REMARK                         _______ _______ _______ _____ _____    ______ ____
ROOT
ATOM      1  C   UNL     1       4.267   0.204   7.559  0.00  0.00    +0.248 C 
ATOM      2  O   UNL     1       4.427  -0.997   7.655  0.00  0.00    -0.270 OA
ATOM      3  N   UNL     1       4.723   1.024   8.527  0.00  0.00    -0.281 N 
ATOM      4  H   UNL     1       4.524   1.973   8.491  0.00  0.00    +0.155 HD
ENDROOT
BRANCH   3   5
ATOM      5  C   UNL     1       5.479   0.510   9.576  0.00  0.00    +0.048 A 
ATOM      6  C   UNL     1       6.200  -0.661   9.405  0.00  0.00    +0.073 A 
ATOM      7  C   UNL     1       6.953  -1.175  10.449  0.00  0.00    +0.168 A 
ATOM      8  C   UNL     1       6.989  -0.516  11.682  0.00  0.00    +0.167 A 
ATOM      9  C   UNL     1       6.277   0.649  11.865  0.00  0.00    +0.062 A 
ATOM     10  C   UNL     1       5.517   1.179  10.813  0.00  0.00    +0.042 A 
ATOM     11  O   UNL     1       7.795  -1.224  12.529  0.00  0.00    -0.453 OA
ATOM     12  C   UNL     1       7.919  -2.530  11.937  0.00  0.00    +0.466 C 
ATOM     13  O   UNL     1       7.734  -2.289  10.530  0.00  0.00    -0.453 OA
BRANCH  10  14
ATOM     14  C   UNL     1       4.763   2.421  11.001  0.00  0.00    +0.162 C 
ATOM     15  O   UNL     1       4.029   2.824  10.123  0.00  0.00    -0.292 OA
ATOM     16  C   UNL     1       4.899   3.197  12.286  0.00  0.00    +0.091 C 
ENDBRANCH  10  14
ENDBRANCH   3   5
BRANCH   1  21
ATOM     17  C   UNL     1       2.448   0.452   4.277  0.00  0.00    +0.034 A 
ATOM     18  C   UNL     1       2.267   1.826   4.175  0.00  0.00    +0.023 A 
ATOM     19  C   UNL     1       2.736   2.665   5.169  0.00  0.00    +0.003 A 
ATOM     20  C   UNL     1       3.385   2.144   6.269  0.00  0.00    +0.013 A 
ATOM     21  C   UNL     1       3.571   0.765   6.382  0.00  0.00    +0.039 A 
ATOM     22  C   UNL     1       3.094  -0.082   5.381  0.00  0.00    +0.036 A 
BRANCH  17  25
ATOM     23  C   UNL     1       1.482  -1.609   3.583  0.00  0.00    +0.221 C 
ATOM     24  O   UNL     1       1.532  -2.005   4.728  0.00  0.00    -0.275 OA
ATOM     25  N   UNL     1       1.972  -0.393   3.268  0.00  0.00    -0.285 N 
ATOM     26  H   UNL     1       1.994  -0.104   2.343  0.00  0.00    +0.155 HD
BRANCH  23  30
ATOM     27  C   UNL     1       0.456  -4.229   4.408  0.00  0.00    +0.008 C 
ATOM     28  C   UNL     1       0.333  -3.845   2.933  0.00  0.00    -0.002 C 
ATOM     29  C   UNL     1       1.624  -3.748   2.118  0.00  0.00    +0.017 C 
ATOM     30  C   UNL     1       0.871  -2.475   2.512  0.00  0.00    +0.078 C 
ENDBRANCH  23  30
ENDBRANCH  17  25
ENDBRANCH   1  21
TORSDOF 5
