REMARK  Name = ZINC54744396
REMARK  7 active torsions:
REMARK  status: ('A' for Active; 'I' for Inactive)
REMARK    1  A    between atoms: C_1  and  C_2
REMARK    2  A    between atoms: C_6  and  N_9
REMARK    3  A    between atoms: C_10  and  C_14
REMARK    4  A    between atoms: C_14  and  N_15
REMARK    5  A    between atoms: N_15  and  C_16
REMARK    6  A    between atoms: C_16  and  C_17
REMARK    7  A    between atoms: C_16  and  C_18
REMARK                            x       y       z     vdW  Elec       q    Type
REMARK                         _______ _______ _______ _____ _____    ______ ____
ROOT
ATOM      1  N   UNL     1       0.744  -2.773   2.667  0.00  0.00    -0.196 N 
ATOM      2  C   UNL     1       0.548  -4.109   2.717  0.00  0.00    +0.140 A 
ATOM      3  N   UNL     1       0.699  -4.477   3.962  0.00  0.00    -0.115 NA
ATOM      4  N   UNL     1       0.976  -3.466   4.703  0.00  0.00    -0.023 NA
ATOM      5  N   UNL     1       1.028  -2.393   3.991  0.00  0.00    -0.039 NA
ENDROOT
BRANCH   1  11
ATOM      6  C   UNL     1      -1.818  -0.955  -1.120  0.00  0.00    +0.045 C 
ATOM      7  C   UNL     1      -0.546  -1.045  -0.316  0.00  0.00    -0.030 A 
ATOM      8  C   UNL     1       0.563  -0.310  -0.694  0.00  0.00    +0.006 A 
ATOM      9  C   UNL     1       1.731  -0.390   0.041  0.00  0.00    +0.022 A 
ATOM     10  C   UNL     1       1.795  -1.205   1.155  0.00  0.00    +0.068 A 
ATOM     11  C   UNL     1       0.683  -1.945   1.537  0.00  0.00    +0.106 A 
ATOM     12  C   UNL     1      -0.492  -1.857   0.800  0.00  0.00    +0.071 A 
ATOM     13 CL   UNL     1      -1.887  -2.773   1.278  0.00  0.00    -0.081 Cl
ATOM     14 CL   UNL     1       3.263  -1.306   2.076  0.00  0.00    -0.081 Cl
ENDBRANCH   1  11
BRANCH   2  15
ATOM     15  C   UNL     1       0.217  -5.007   1.553  0.00  0.00    -0.003 C 
BRANCH  15  16
ATOM     16  N   UNL     1       1.449  -5.625   1.045  0.00  0.00    +0.385 N 
ATOM     17  H   UNL     1       2.055  -4.910   0.670  0.00  0.00    -0.085 HD
ATOM     18  H   UNL     1       1.921  -6.104   1.799  0.00  0.00    -0.085 HD
BRANCH  16  19
ATOM     19  C   UNL     1       1.115  -6.588  -0.013  0.00  0.00    -0.078 C 
ATOM     20  C   UNL     1       0.532  -5.842  -1.215  0.00  0.00    -0.014 C 
ATOM     21  C   UNL     1       2.379  -7.336  -0.440  0.00  0.00    -0.014 C 
ENDBRANCH  16  19
ENDBRANCH  15  16
ENDBRANCH   2  15
TORSDOF 4
