REMARK  Name = ZINC63138448
REMARK  5 active torsions:
REMARK  status: ('A' for Active; 'I' for Inactive)
REMARK    1  A    between atoms: C_1  and  C_2
REMARK    2  A    between atoms: C_5  and  C_7
REMARK    3  A    between atoms: C_7  and  C_8
REMARK    4  A    between atoms: C_8  and  N_9
REMARK    5  A    between atoms: C_11  and  N_17
REMARK                            x       y       z     vdW  Elec       q    Type
REMARK                         _______ _______ _______ _____ _____    ______ ____
ROOT
ATOM      1  N   UNL     1      -1.362  -4.215   3.828  0.00  0.00    -0.327 N 
ATOM      2  C   UNL     1      -2.553  -4.667   4.373  0.00  0.00    +0.154 A 
ATOM      3  C   UNL     1      -2.548  -5.539   5.463  0.00  0.00    +0.202 A 
ATOM      4  C   UNL     1      -3.763  -5.961   5.971  0.00  0.00    +0.164 A 
ATOM      5  N   UNL     1      -4.885  -5.527   5.409  0.00  0.00    -0.222 NA
ATOM      6  C   UNL     1      -4.854  -4.705   4.381  0.00  0.00    +0.225 A 
ATOM      7  N   UNL     1      -3.719  -4.273   3.869  0.00  0.00    -0.219 NA
ATOM      8 CL   UNL     1      -3.820  -7.046   7.325  0.00  0.00    -0.059 Cl
ATOM      9  H   UNL     1      -0.516  -4.508   4.201  0.00  0.00    +0.148 HD
ENDROOT
BRANCH   3  10
ATOM     10  N   UNL     1      -1.275  -6.000   6.060  0.00  0.00    +0.063 N 
ATOM     11  O   UNL     1      -0.765  -5.370   6.958  0.00  0.00    -0.126 OA
ATOM     12  O   UNL     1      -0.744  -7.006   5.650  0.00  0.00    -0.126 OA
ENDBRANCH   3  10
BRANCH   1  13
ATOM     13  C   UNL     1      -1.381  -3.296   2.688  0.00  0.00    +0.109 C 
BRANCH  13  14
ATOM     14  C   UNL     1       0.055  -2.955   2.284  0.00  0.00    +0.081 C 
BRANCH  14  19
ATOM     15  C   UNL     1      -0.018   1.503   0.010  0.00  0.00    +0.066 C 
ATOM     16  C   UNL     1       0.002  -0.004   0.002  0.00  0.00    +0.046 A 
ATOM     17  C   UNL     1       0.006  -0.708  -1.159  0.00  0.00    +0.070 A 
ATOM     18  S   UNL     1       0.032  -2.379  -0.531  0.00  0.00    -0.080 S 
ATOM     19  C   UNL     1       0.036  -2.009   1.111  0.00  0.00    +0.080 A 
ATOM     20  N   UNL     1       0.023  -0.699   1.122  0.00  0.00    -0.249 NA
ENDBRANCH  14  19
ENDBRANCH  13  14
ENDBRANCH   1  13
TORSDOF 4
