REMARK  Name = ZINC05972933
REMARK  8 active torsions:
REMARK  status: ('A' for Active; 'I' for Inactive)
REMARK    1  A    between atoms: C_1  and  C_2
REMARK    2  A    between atoms: C_3  and  C_11
REMARK    3  A    between atoms: C_7  and  N_8
REMARK    4  A    between atoms: C_11  and  O_13
REMARK    5  A    between atoms: O_13  and  C_14
REMARK    6  A    between atoms: C_14  and  C_16
REMARK    7  A    between atoms: C_14  and  C_17
REMARK    8  A    between atoms: N_19  and  C_20
REMARK                            x       y       z     vdW  Elec       q    Type
REMARK                         _______ _______ _______ _____ _____    ______ ____
ROOT
ATOM      1  C   UNL     1      -2.062   7.814  -0.595  0.00  0.00    +0.259 C 
ATOM      2  C   UNL     1      -0.680   8.458  -0.718  0.00  0.00    +0.062 C 
ENDROOT
BRANCH   1   3
ATOM      3  C   UNL     1      -1.911   6.320  -0.469  0.00  0.00    +0.254 C 
ATOM      4  O   UNL     1      -2.337   5.592  -1.340  0.00  0.00    -0.272 OA
ATOM      5  N   UNL     1      -1.303   5.793   0.613  0.00  0.00    -0.307 N 
ATOM      6  H   UNL     1      -0.963   6.376   1.310  0.00  0.00    +0.149 HD
BRANCH   5   7
ATOM      7  C   UNL     1      -1.157   4.341   0.735  0.00  0.00    +0.035 C 
ATOM      8  C   UNL     1      -0.339   3.809  -0.444  0.00  0.00    +0.029 C 
ATOM      9  C   UNL     1      -0.186   2.292  -0.316  0.00  0.00    -0.008 C 
ATOM     10  C   UNL     1       0.533   1.961   0.994  0.00  0.00    +0.007 C 
ATOM     11  C   UNL     1      -0.284   2.493   2.173  0.00  0.00    -0.008 C 
ATOM     12  C   UNL     1      -0.438   4.010   2.045  0.00  0.00    +0.029 C 
ATOM     13  C   UNL     1      -1.667   1.838   2.171  0.00  0.00    +0.007 C 
ATOM     14  C   UNL     1      -2.386   2.170   0.861  0.00  0.00    -0.008 C 
ATOM     15  C   UNL     1      -1.569   1.638  -0.318  0.00  0.00    +0.007 C 
ATOM     16  C   UNL     1      -2.540   3.687   0.733  0.00  0.00    +0.029 C 
ENDBRANCH   5   7
ENDBRANCH   1   3
BRANCH   1  17
ATOM     17  O   UNL     1      -2.847   8.123  -1.777  0.00  0.00    -0.449 OA
BRANCH  17  18
ATOM     18  C   UNL     1      -3.592   9.245  -1.740  0.00  0.00    +0.340 C 
ATOM     19  O   UNL     1      -3.586   9.946  -0.748  0.00  0.00    -0.245 OA
BRANCH  18  22
ATOM     20  C   UNL     1      -5.402  11.494  -1.544  0.00  0.00    +0.047 C 
ATOM     21  C   UNL     1      -5.293  10.707  -2.824  0.00  0.00    -0.006 A 
ATOM     22  C   UNL     1      -4.416   9.623  -2.906  0.00  0.00    +0.064 A 
ATOM     23  C   UNL     1      -4.326   8.895  -4.094  0.00  0.00    +0.015 A 
ATOM     24  C   UNL     1      -5.098   9.254  -5.180  0.00  0.00    +0.003 A 
ATOM     25  C   UNL     1      -5.960  10.332  -5.093  0.00  0.00    +0.033 A 
ATOM     26  C   UNL     1      -6.055  11.058  -3.919  0.00  0.00    +0.130 A 
BRANCH  26  27
ATOM     27  N   UNL     1      -6.980  12.210  -3.835  0.00  0.00    +0.057 N 
ATOM     28  O   UNL     1      -7.747  12.444  -4.753  0.00  0.00    -0.126 OA
ATOM     29  O   UNL     1      -6.976  12.925  -2.849  0.00  0.00    -0.126 OA
ENDBRANCH  26  27
ENDBRANCH  18  22
ENDBRANCH  17  18
ENDBRANCH   1  17
TORSDOF 6
