REMARK  Name = ZINC34981641
REMARK  3 active torsions:
REMARK  status: ('A' for Active; 'I' for Inactive)
REMARK    1  A    between atoms: N_19  and  C_20
REMARK    2  A    between atoms: C_20  and  C_21
REMARK    3  A    between atoms: N_23  and  C_24
REMARK                            x       y       z     vdW  Elec       q    Type
REMARK                         _______ _______ _______ _____ _____    ______ ____
ROOT
ATOM      1  C   UNL     1      -0.182   1.077  -0.013  0.00  0.00    +0.001 A 
ATOM      2  C   UNL     1       0.937   1.887  -0.121  0.00  0.00    +0.002 A 
ATOM      3  C   UNL     1       2.205   1.342  -0.092  0.00  0.00    +0.024 A 
ATOM      4  C   UNL     1       2.372  -0.031   0.048  0.00  0.00    +0.045 A 
ATOM      5  C   UNL     1       1.237  -0.848   0.157  0.00  0.00    +0.010 A 
ATOM      6  C   UNL     1      -0.038  -0.288   0.126  0.00  0.00    +0.010 A 
ATOM      7  C   UNL     1       1.730  -2.233   0.292  0.00  0.00    +0.065 C 
ATOM      8  C   UNL     1       0.978  -3.384   0.428  0.00  0.00    +0.095 A 
ATOM      9  C   UNL     1      -0.482  -3.538   0.633  0.00  0.00    +0.288 A 
ATOM     10  O   UNL     1      -1.215  -2.573   0.707  0.00  0.00    -0.265 OA
ATOM     11  N   UNL     1      -0.961  -4.786   0.734  0.00  0.00    -0.169 N 
ATOM     12  C   UNL     1      -0.097  -5.837   0.644  0.00  0.00    +0.199 A 
ATOM     13  S   UNL     1       1.498  -5.093   0.396  0.00  0.00    -0.044 S 
ATOM     14  N   UNL     1      -0.756  -6.955   0.767  0.00  0.00    -0.208 NA
ATOM     15  C   UNL     1      -2.052  -6.686   0.939  0.00  0.00    +0.246 A 
ATOM     16  N   UNL     1      -2.231  -5.397   0.927  0.00  0.00    -0.150 NA
ATOM     17  C   UNL     1       3.204  -2.121   0.249  0.00  0.00    +0.253 C 
ATOM     18  O   UNL     1       3.995  -3.042   0.329  0.00  0.00    -0.270 OA
ATOM     19  N   UNL     1       3.515  -0.821   0.107  0.00  0.00    -0.258 N 
ENDROOT
BRANCH  19  20
ATOM     20  C   UNL     1       4.883  -0.304   0.024  0.00  0.00    +0.210 C 
BRANCH  20  21
ATOM     21  C   UNL     1       5.381   0.022   1.408  0.00  0.00    +0.235 C 
ATOM     22  O   UNL     1       4.665  -0.161   2.369  0.00  0.00    -0.274 OA
ATOM     23  N   UNL     1       6.624   0.516   1.578  0.00  0.00    -0.284 N 
ATOM     24  H   UNL     1       7.168   0.735   0.805  0.00  0.00    +0.155 HD
BRANCH  23  25
ATOM     25  C   UNL     1       7.128   0.713   2.868  0.00  0.00    +0.034 A 
ATOM     26  C   UNL     1       7.973   1.784   3.129  0.00  0.00    +0.025 A 
ATOM     27  C   UNL     1       8.469   1.977   4.403  0.00  0.00    +0.022 A 
ATOM     28  C   UNL     1       8.125   1.104   5.420  0.00  0.00    +0.041 A 
ATOM     29  C   UNL     1       7.284   0.036   5.163  0.00  0.00    +0.022 A 
ATOM     30  C   UNL     1       6.780  -0.158   3.892  0.00  0.00    +0.025 A 
ATOM     31 CL   UNL     1       8.751   1.348   7.021  0.00  0.00    -0.084 Cl
ENDBRANCH  23  25
ENDBRANCH  20  21
ENDBRANCH  19  20
TORSDOF 3
