REMARK  Name = ZINC40321253
REMARK  6 active torsions:
REMARK  status: ('A' for Active; 'I' for Inactive)
REMARK    1  A    between atoms: C_1  and  N_2
REMARK    2  A    between atoms: C_3  and  C_5
REMARK    3  A    between atoms: C_9  and  N_10
REMARK    4  A    between atoms: C_11  and  C_13
REMARK    5  A    between atoms: C_16  and  S_18
REMARK    6  A    between atoms: S_18  and  C_21
REMARK                            x       y       z     vdW  Elec       q    Type
REMARK                         _______ _______ _______ _____ _____    ______ ____
ROOT
ATOM      1  N   UNL     1       2.768  -2.341   0.191  0.00  0.00    -0.273 N 
ATOM      2  C   UNL     1       3.687  -3.186   0.698  0.00  0.00    +0.284 C 
ATOM      3  O   UNL     1       3.531  -4.389   0.595  0.00  0.00    -0.266 OA
ATOM      4  H   UNL     1       2.892  -1.383   0.274  0.00  0.00    +0.156 HD
ENDROOT
BRANCH   1   9
ATOM      5  C   UNL     1       0.605  -2.130  -1.026  0.00  0.00    +0.069 A 
ATOM      6  C   UNL     1      -0.462  -2.898  -1.645  0.00  0.00    -0.023 A 
ATOM      7  C   UNL     1      -0.295  -4.236  -1.568  0.00  0.00    -0.004 A 
ATOM      8  S   UNL     1       1.232  -4.450  -0.700  0.00  0.00    -0.077 S 
ATOM      9  C   UNL     1       1.645  -2.842  -0.449  0.00  0.00    +0.085 A 
ATOM     10  C   UNL     1      -1.215  -5.289  -2.104  0.00  0.00    +0.043 C 
ATOM     11  C   UNL     1      -2.565  -4.632  -2.426  0.00  0.00    +0.005 C 
ATOM     12  C   UNL     1      -2.314  -3.352  -3.229  0.00  0.00    +0.005 C 
ATOM     13  C   UNL     1      -1.676  -2.291  -2.330  0.00  0.00    +0.037 C 
BRANCH   5  16
ATOM     14  C   UNL     1      -0.018   1.461   0.010  0.00  0.00    +0.128 C 
ATOM     15  N   UNL     1       0.002  -0.004   0.002  0.00  0.00    -0.314 N 
ATOM     16  C   UNL     1       0.585  -0.664  -1.018  0.00  0.00    +0.246 C 
ATOM     17  O   UNL     1       1.095  -0.044  -1.932  0.00  0.00    -0.270 OA
ATOM     18  H   UNL     1      -0.404  -0.499   0.731  0.00  0.00    +0.149 HD
ENDBRANCH   5  16
ENDBRANCH   1   9
BRANCH   2  19
ATOM     19  C   UNL     1       4.874  -2.657   1.375  0.00  0.00    +0.192 A 
ATOM     20  C   UNL     1       5.881  -3.397   1.927  0.00  0.00    +0.056 A 
ATOM     21  C   UNL     1       6.805  -2.486   2.462  0.00  0.00    +0.070 A 
ATOM     22  C   UNL     1       6.329  -1.246   2.217  0.00  0.00    +0.246 A 
ATOM     23  O   UNL     1       5.168  -1.352   1.557  0.00  0.00    -0.433 OA
BRANCH  22  24
ATOM     24  S   UNL     1       7.109   0.264   2.683  0.00  0.00    +0.058 S 
ATOM     25  O   UNL     1       6.084   1.245   2.756  0.00  0.00    -0.161 OA
ATOM     26  O   UNL     1       7.954  -0.039   3.784  0.00  0.00    -0.161 OA
BRANCH  24  27
ATOM     27  C   UNL     1       8.164   0.737   1.353  0.00  0.00    +0.097 A 
ATOM     28  C   UNL     1       9.475   0.300   1.322  0.00  0.00    +0.027 A 
ATOM     29  C   UNL     1      10.303   0.671   0.279  0.00  0.00    +0.002 A 
ATOM     30  C   UNL     1       9.819   1.478  -0.734  0.00  0.00    +0.000 A 
ATOM     31  C   UNL     1       8.508   1.914  -0.703  0.00  0.00    +0.002 A 
ATOM     32  C   UNL     1       7.679   1.539   0.338  0.00  0.00    +0.027 A 
ENDBRANCH  24  27
ENDBRANCH  22  24
ENDBRANCH   2  19
TORSDOF 5
