REMARK  Name = ZINC63279655
REMARK  7 active torsions:
REMARK  status: ('A' for Active; 'I' for Inactive)
REMARK    1  A    between atoms: C_1  and  O_2
REMARK    2  A    between atoms: O_2  and  C_3
REMARK    3  A    between atoms: C_7  and  C_12
REMARK    4  A    between atoms: C_12  and  C_13
REMARK    5  A    between atoms: C_13  and  N_14
REMARK    6  A    between atoms: C_15  and  C_17
REMARK    7  A    between atoms: N_22  and  C_24
REMARK                            x       y       z     vdW  Elec       q    Type
REMARK                         _______ _______ _______ _____ _____    ______ ____
ROOT
ATOM      1  N   UNL     1      -8.174  -1.964  -1.377  0.00  0.00    -0.315 N 
ATOM      2  C   UNL     1      -8.860  -1.889  -2.535  0.00  0.00    +0.217 C 
ATOM      3  O   UNL     1      -8.305  -2.130  -3.586  0.00  0.00    -0.275 OA
ATOM      4  H   UNL     1      -8.618  -1.771  -0.537  0.00  0.00    +0.149 HD
ENDROOT
BRANCH   2   5
ATOM      5  C   UNL     1     -10.318  -1.505  -2.523  0.00  0.00    +0.089 C 
ATOM      6  C   UNL     1     -11.107  -2.521  -1.692  0.00  0.00    +0.015 C 
ATOM      7  C   UNL     1     -12.594  -2.158  -1.735  0.00  0.00    +0.016 C 
ATOM      8  C   UNL     1     -13.066  -2.131  -3.191  0.00  0.00    +0.087 C 
ATOM      9  N   UNL     1     -12.280  -1.144  -3.943  0.00  0.00    -0.275 NA
ATOM     10  C   UNL     1     -10.855  -1.496  -3.956  0.00  0.00    +0.099 C 
BRANCH   9  11
ATOM     11  C   UNL     1     -12.797  -0.991  -5.310  0.00  0.00    +0.231 C 
ATOM     12  C   UNL     1     -14.198  -0.435  -5.226  0.00  0.00    +0.126 C 
ATOM     13  N   UNL     1     -14.775   0.616  -4.741  0.00  0.00    -0.233 NA
ATOM     14  C   UNL     1     -16.097   0.551  -4.986  0.00  0.00    +0.224 C 
ATOM     15  N   UNL     1     -16.414  -0.541  -5.636  0.00  0.00    -0.215 NA
ATOM     16  C   UNL     1     -15.277  -1.254  -5.846  0.00  0.00    +0.182 C 
ATOM     17  N   UNL     1     -14.964  -2.384  -6.417  0.00  0.00    -0.197 NA
ATOM     18  C   UNL     1     -13.717  -2.867  -6.484  0.00  0.00    +0.222 C 
ATOM     19  N   UNL     1     -12.670  -2.290  -6.000  0.00  0.00    -0.229 NA
ATOM     20 CL   UNL     1     -13.494  -4.391  -7.283  0.00  0.00    -0.041 Cl
ENDBRANCH   9  11
ENDBRANCH   2   5
BRANCH   1  21
ATOM     21  C   UNL     1      -6.757  -2.337  -1.388  0.00  0.00    +0.108 C 
BRANCH  21  22
ATOM     22  C   UNL     1      -6.221  -2.347   0.045  0.00  0.00    +0.052 C 
BRANCH  22  27
ATOM     23  C   UNL     1      -1.198  -0.636   0.010  0.00  0.00    +0.122 A 
ATOM     24  C   UNL     1      -2.372   0.141   0.020  0.00  0.00    +0.046 A 
ATOM     25  C   UNL     1      -3.597  -0.428   0.028  0.00  0.00    +0.013 A 
ATOM     26  C   UNL     1      -3.704  -1.893   0.026  0.00  0.00    -0.001 A 
ATOM     27  C   UNL     1      -4.764  -2.731   0.033  0.00  0.00    -0.040 C 
ATOM     28  C   UNL     1      -4.193  -4.131   0.027  0.00  0.00    +0.144 C 
ATOM     29  N   UNL     1      -2.735  -3.972   0.016  0.00  0.00    -0.380 N 
ATOM     30  C   UNL     1      -2.455  -2.689   0.016  0.00  0.00    +0.046 A 
ATOM     31  C   UNL     1      -1.220  -1.993   0.003  0.00  0.00    +0.071 A 
ATOM     32  H   UNL     1      -2.086  -4.693   0.010  0.00  0.00    +0.160 HD
BRANCH  23  34
ATOM     33  C   UNL     1      -0.017   1.425   0.010  0.00  0.00    +0.277 C 
ATOM     34  O   UNL     1       0.002  -0.004   0.002  0.00  0.00    -0.495 OA
ENDBRANCH  23  34
ENDBRANCH  22  27
ENDBRANCH  21  22
ENDBRANCH   1  21
TORSDOF 6
