REMARK  Name = ZINC28656549
REMARK  8 active torsions:
REMARK  status: ('A' for Active; 'I' for Inactive)
REMARK    1  A    between atoms: C_1  and  C_2
REMARK    2  A    between atoms: C_2  and  C_3
REMARK    3  A    between atoms: C_5  and  S_8
REMARK    4  A    between atoms: S_8  and  C_9
REMARK    5  A    between atoms: C_9  and  C_11
REMARK    6  A    between atoms: C_9  and  C_12
REMARK    7  A    between atoms: N_14  and  C_15
REMARK    8  A    between atoms: C_20  and  N_21
REMARK                            x       y       z     vdW  Elec       q    Type
REMARK                         _______ _______ _______ _____ _____    ______ ____
ROOT
ATOM      1  C   UNL     1       2.001   3.577  -0.110  0.00  0.00    +0.230 C 
ATOM      2  O   UNL     1       1.140   4.349   0.255  0.00  0.00    -0.274 OA
ATOM      3  N   UNL     1       3.149   4.047  -0.636  0.00  0.00    -0.283 N 
ATOM      4  H   UNL     1       3.959   3.351  -0.900  0.00  0.00    +0.155 HD
ENDROOT
BRANCH   3   5
ATOM      5  C   UNL     1       3.311   5.421  -0.848  0.00  0.00    +0.064 A 
ATOM      6  C   UNL     1       2.757   6.332   0.042  0.00  0.00    +0.027 A 
ATOM      7  C   UNL     1       2.918   7.687  -0.169  0.00  0.00    +0.022 A 
ATOM      8  C   UNL     1       3.632   8.138  -1.265  0.00  0.00    +0.043 A 
ATOM      9  C   UNL     1       4.185   7.232  -2.154  0.00  0.00    +0.054 A 
ATOM     10  C   UNL     1       4.031   5.876  -1.944  0.00  0.00    +0.149 A 
ATOM     11 CL   UNL     1       3.833   9.842  -1.528  0.00  0.00    -0.083 Cl
BRANCH  10  12
ATOM     12  N   UNL     1       4.629   4.908  -2.891  0.00  0.00    +0.058 N 
ATOM     13  O   UNL     1       5.342   5.302  -3.796  0.00  0.00    -0.126 OA
ATOM     14  O   UNL     1       4.408   3.717  -2.765  0.00  0.00    -0.126 OA
ENDBRANCH  10  12
ENDBRANCH   3   5
BRANCH   1  15
ATOM     15  C   UNL     1       1.786   2.091   0.024  0.00  0.00    +0.137 C 
ATOM     16  C   UNL     1       2.414   1.601   1.331  0.00  0.00    +0.029 C 
BRANCH  15  17
ATOM     17  S   UNL     1       0.011   1.737   0.038  0.00  0.00    -0.074 S 
BRANCH  17  20
ATOM     18  C   UNL     1      -0.514  -2.129   0.065  0.00  0.00    +0.152 A 
ATOM     19  N   UNL     1      -1.028  -0.861   0.066  0.00  0.00    -0.206 NA
ATOM     20  C   UNL     1       0.051  -0.025   0.048  0.00  0.00    +0.185 A 
ATOM     21  N   UNL     1       1.124  -0.781   0.041  0.00  0.00    -0.254 N 
ATOM     22  N   UNL     1       0.784  -2.021   0.047  0.00  0.00    -0.157 NA
ATOM     23  H   UNL     1       2.188  -0.503   0.031  0.00  0.00    +0.191 HD
BRANCH  18  25
ATOM     24  C   UNL     1      -0.873  -4.290  -1.095  0.00  0.00    +0.012 C 
ATOM     25  C   UNL     1      -1.304  -3.412   0.081  0.00  0.00    +0.075 C 
ENDBRANCH  18  25
ENDBRANCH  17  20
ENDBRANCH  15  17
ENDBRANCH   1  15
TORSDOF 6
