REMARK  Name = ZINC42918308
REMARK  5 active torsions:
REMARK  status: ('A' for Active; 'I' for Inactive)
REMARK    1  A    between atoms: C_3  and  O_24
REMARK    2  A    between atoms: C_4  and  N_10
REMARK    3  A    between atoms: C_6  and  N_7
REMARK    4  A    between atoms: C_11  and  C_13
REMARK    5  A    between atoms: O_24  and  C_25
REMARK                            x       y       z     vdW  Elec       q    Type
REMARK                         _______ _______ _______ _____ _____    ______ ____
ROOT
ATOM      1  N   UNL     1       3.622  -0.661  -0.037  0.00  0.00    -0.279 N 
ATOM      2  C   UNL     1       3.642  -2.005   0.058  0.00  0.00    +0.258 C 
ATOM      3  O   UNL     1       2.601  -2.628   0.065  0.00  0.00    -0.271 OA
ATOM      4  H   UNL     1       4.453  -0.169  -0.123  0.00  0.00    +0.155 HD
ENDROOT
BRANCH   2   5
ATOM      5  C   UNL     1       4.957  -2.734   0.154  0.00  0.00    +0.263 C 
ATOM      6  C   UNL     1       5.752  -2.610  -1.168  0.00  0.00    +0.093 C 
ATOM      7  C   UNL     1       6.411  -3.972  -1.267  0.00  0.00    -0.000 A 
ATOM      8  C   UNL     1       7.453  -4.440  -2.036  0.00  0.00    +0.027 A 
ATOM      9  C   UNL     1       7.863  -5.757  -1.916  0.00  0.00    +0.041 A 
ATOM     10  C   UNL     1       7.222  -6.597  -1.022  0.00  0.00    +0.023 A 
ATOM     11  C   UNL     1       6.176  -6.130  -0.255  0.00  0.00    +0.047 A 
ATOM     12  C   UNL     1       5.755  -4.807  -0.372  0.00  0.00    +0.125 A 
ATOM     13  O   UNL     1       4.747  -4.152   0.271  0.00  0.00    -0.479 OA
ATOM     14 CL   UNL     1       9.177  -6.352  -2.883  0.00  0.00    -0.084 Cl
ENDBRANCH   2   5
BRANCH   1  18
ATOM     15  C   UNL     1      -0.015   1.380   0.044  0.00  0.00    +0.036 A 
ATOM     16  C   UNL     1       1.082   1.956  -0.571  0.00  0.00    +0.050 A 
ATOM     17  C   UNL     1       2.292   1.282  -0.601  0.00  0.00    +0.148 A 
ATOM     18  C   UNL     1       2.401   0.025  -0.010  0.00  0.00    +0.078 A 
ATOM     19  C   UNL     1       1.296  -0.545   0.605  0.00  0.00    +0.059 A 
ATOM     20  C   UNL     1       0.092   0.133   0.630  0.00  0.00    +0.128 A 
BRANCH  20  21
ATOM     21  N   UNL     1      -1.086  -0.477   1.287  0.00  0.00    +0.056 N 
ATOM     22  O   UNL     1      -2.140   0.115   1.310  0.00  0.00    -0.126 OA
ATOM     23  O   UNL     1      -0.994  -1.568   1.800  0.00  0.00    -0.126 OA
ENDBRANCH  20  21
BRANCH  17  24
ATOM     24  O   UNL     1       3.372   1.846  -1.205  0.00  0.00    -0.432 OA
BRANCH  24  25
ATOM     25  C   UNL     1       3.187   3.137  -1.790  0.00  0.00    +0.541 C 
ATOM     26  F   UNL     1       2.198   3.064  -2.778  0.00  0.00    -0.166 F 
ATOM     27  F   UNL     1       2.792   4.045  -0.802  0.00  0.00    -0.166 F 
ENDBRANCH  24  25
ENDBRANCH  17  24
ENDBRANCH   1  18
TORSDOF 5
