REMARK  Name = ZINC28933298
REMARK  8 active torsions:
REMARK  status: ('A' for Active; 'I' for Inactive)
REMARK    1  A    between atoms: C_1  and  C_2
REMARK    2  A    between atoms: C_2  and  C_3
REMARK    3  A    between atoms: C_3  and  N_4
REMARK    4  A    between atoms: C_14  and  S_15
REMARK    5  A    between atoms: S_15  and  C_16
REMARK    6  A    between atoms: C_16  and  C_17
REMARK    7  A    between atoms: C_19  and  O_20
REMARK    8  A    between atoms: C_29  and  C_31
REMARK                            x       y       z     vdW  Elec       q    Type
REMARK                         _______ _______ _______ _____ _____    ______ ____
ROOT
ATOM      1  C   UNL     1      -0.848  -6.301   0.341  0.00  0.00    -0.020 A 
ATOM      2  C   UNL     1      -2.014  -6.998   0.339  0.00  0.00    +0.092 A 
ATOM      3  C   UNL     1      -3.242  -6.309   0.254  0.00  0.00    +0.285 A 
ATOM      4  O   UNL     1      -3.295  -4.970   0.176  0.00  0.00    -0.425 OA
ATOM      5  C   UNL     1      -2.173  -4.219   0.173  0.00  0.00    +0.141 A 
ATOM      6  C   UNL     1      -0.913  -4.841   0.254  0.00  0.00    +0.022 A 
ATOM      7  C   UNL     1       0.252  -4.067   0.252  0.00  0.00    +0.013 A 
ATOM      8  C   UNL     1       0.164  -2.708   0.166  0.00  0.00    +0.024 A 
ATOM      9  C   UNL     1      -1.081  -2.085   0.091  0.00  0.00    +0.037 A 
ATOM     10  C   UNL     1      -2.247  -2.837   0.092  0.00  0.00    +0.070 A 
ATOM     11  N   UNL     1      -1.156  -0.694   0.009  0.00  0.00    -0.286 N 
ATOM     12  C   UNL     1      -2.168  -0.037   0.609  0.00  0.00    +0.214 C 
ATOM     13  O   UNL     1      -3.058  -0.658   1.150  0.00  0.00    -0.276 OA
ATOM     14  C   UNL     1      -2.193   1.470   0.609  0.00  0.00    +0.109 C 
ATOM     15  H   UNL     1      -0.388  -0.134  -0.545  0.00  0.00    +0.155 HD
ENDROOT
BRANCH   3  16
ATOM     16  O   UNL     1      -4.280  -6.946   0.253  0.00  0.00    -0.480 OA
ATOM     17  H   UNL     1      -5.246  -6.423   0.188  0.00  0.00    +0.295 HD
ENDBRANCH   3  16
BRANCH   1  18
ATOM     18  C   UNL     1       0.478  -7.013   0.429  0.00  0.00    +0.113 C 
BRANCH  18  19
ATOM     19  S   UNL     1       1.070  -7.395  -1.238  0.00  0.00    -0.083 S 
BRANCH  19  30
ATOM     20  N   UNL     1       3.366  -8.656  -1.872  0.00  0.00    -0.287 N 
ATOM     21  C   UNL     1       4.540  -9.279  -1.617  0.00  0.00    +0.262 A 
ATOM     22  O   UNL     1       5.244  -9.694  -2.519  0.00  0.00    -0.267 OA
ATOM     23  C   UNL     1       4.933  -9.437  -0.210  0.00  0.00    +0.065 A 
ATOM     24  C   UNL     1       6.123 -10.064   0.157  0.00  0.00    +0.015 A 
ATOM     25  C   UNL     1       6.441 -10.184   1.481  0.00  0.00    +0.001 A 
ATOM     26  C   UNL     1       5.592  -9.689   2.463  0.00  0.00    +0.002 A 
ATOM     27  C   UNL     1       4.420  -9.070   2.131  0.00  0.00    +0.028 A 
ATOM     28  C   UNL     1       4.066  -8.932   0.786  0.00  0.00    +0.079 A 
ATOM     29  N   UNL     1       2.922  -8.324   0.414  0.00  0.00    -0.223 NA
ATOM     30  C   UNL     1       2.589  -8.198  -0.846  0.00  0.00    +0.172 A 
BRANCH  20  31
ATOM     31  C   UNL     1       2.926  -8.472  -3.257  0.00  0.00    +0.127 C 
BRANCH  31  33
ATOM     32  C   UNL     1       2.996  -6.946  -5.234  0.00  0.00    +0.005 C 
ATOM     33  C   UNL     1       3.456  -7.139  -3.787  0.00  0.00    +0.018 C 
ENDBRANCH  31  33
ENDBRANCH  20  31
ENDBRANCH  19  30
ENDBRANCH  18  19
ENDBRANCH   1  18
TORSDOF 6
