REMARK  Name = ZINC35484322
REMARK  14 active torsions:
REMARK  status: ('A' for Active; 'I' for Inactive)
REMARK    1  A    between atoms: C_1  and  C_2
REMARK    2  A    between atoms: C_2  and  O_3
REMARK    3  A    between atoms: O_3  and  C_4
REMARK    4  A    between atoms: C_6  and  C_11
REMARK    5  A    between atoms: C_9  and  O_10
REMARK    6  A    between atoms: C_13  and  C_14
REMARK    7  A    between atoms: C_14  and  C_15
REMARK    8  A    between atoms: C_16  and  C_25
REMARK    9  A    between atoms: C_21  and  C_24
REMARK   10  A    between atoms: N_31  and  C_32
REMARK   11  A    between atoms: C_32  and  C_33
REMARK   12  A    between atoms: C_33  and  N_34
REMARK   13  A    between atoms: N_34  and  C_35
REMARK   14  A    between atoms: N_34  and  C_36
REMARK                            x       y       z     vdW  Elec       q    Type
REMARK                         _______ _______ _______ _____ _____    ______ ____
ROOT
ATOM      1  C   UNL     1       0.289  -4.927  -0.823  0.00  0.00    +0.145 C 
ATOM      2  C   UNL     1      -0.951  -5.699  -0.437  0.00  0.00    +0.078 C 
ATOM      3  C   UNL     1      -0.667  -7.010  -0.617  0.00  0.00    +0.249 C 
ATOM      4  O   UNL     1      -1.518  -8.036  -0.384  0.00  0.00    -0.282 OA
ATOM      5  C   UNL     1       0.720  -7.142  -1.111  0.00  0.00    +0.288 C 
ATOM      6  O   UNL     1       1.270  -8.194  -1.369  0.00  0.00    -0.266 OA
ATOM      7  N   UNL     1       1.282  -5.926  -1.233  0.00  0.00    -0.285 N 
ENDROOT
BRANCH   1  10
ATOM      8  C   UNL     1       1.146  -2.043   1.462  0.00  0.00    +0.162 A 
ATOM      9  C   UNL     1       0.676  -2.765   0.377  0.00  0.00    +0.055 A 
ATOM     10  C   UNL     1       0.800  -4.142   0.358  0.00  0.00    -0.019 A 
ATOM     11  C   UNL     1       1.390  -4.801   1.420  0.00  0.00    +0.009 A 
ATOM     12  C   UNL     1       1.860  -4.086   2.506  0.00  0.00    +0.049 A 
ATOM     13  C   UNL     1       1.745  -2.705   2.529  0.00  0.00    +0.158 A 
BRANCH  13  14
ATOM     14  O   UNL     1       2.212  -2.000   3.593  0.00  0.00    -0.503 OA
ATOM     15  H   UNL     1       1.561  -1.871   4.296  0.00  0.00    +0.292 HD
ENDBRANCH  13  14
BRANCH   8  16
ATOM     16  O   UNL     1       1.025  -0.688   1.482  0.00  0.00    -0.489 OA
BRANCH  16  18
ATOM     17  C   UNL     1       0.374   1.438   0.536  0.00  0.00    +0.048 C 
ATOM     18  C   UNL     1       0.306  -0.085   0.405  0.00  0.00    +0.226 C 
ENDBRANCH  16  18
ENDBRANCH   8  16
ENDBRANCH   1  10
BRANCH   2  19
ATOM     19  C   UNL     1      -2.218  -5.136   0.041  0.00  0.00    +0.215 C 
ATOM     20  O   UNL     1      -2.404  -3.934   0.001  0.00  0.00    -0.285 OA
BRANCH  19  21
ATOM     21  C   UNL     1      -3.268  -6.028   0.571  0.00  0.00    +0.133 A 
ATOM     22  C   UNL     1      -4.548  -5.655   0.919  0.00  0.00    +0.051 A 
ATOM     23  N   UNL     1      -5.182  -6.778   1.357  0.00  0.00    -0.303 N 
ATOM     24  C   UNL     1      -6.450  -6.995   1.821  0.00  0.00    +0.093 A 
ATOM     25  C   UNL     1      -6.841  -8.228   2.201  0.00  0.00    +0.018 A 
ATOM     26  C   UNL     1      -5.948  -9.311   2.125  0.00  0.00    +0.008 A 
ATOM     27  C   UNL     1      -4.685  -9.112   1.666  0.00  0.00    -0.008 A 
ATOM     28  C   UNL     1      -4.288  -7.816   1.271  0.00  0.00    +0.141 A 
ATOM     29  N   UNL     1      -3.146  -7.350   0.793  0.00  0.00    -0.224 NA
ATOM     30  C   UNL     1      -3.717 -10.264   1.579  0.00  0.00    +0.047 C 
ATOM     31  C   UNL     1      -5.133  -4.269   0.833  0.00  0.00    +0.066 C 
ENDBRANCH  19  21
ENDBRANCH   2  19
BRANCH   7  32
ATOM     32  C   UNL     1       2.645  -5.649  -1.692  0.00  0.00    +0.090 C 
BRANCH  32  33
ATOM     33  C   UNL     1       3.595  -5.637  -0.493  0.00  0.00    -0.060 C 
BRANCH  33  34
ATOM     34  N   UNL     1       4.962  -5.359  -0.954  0.00  0.00    +0.377 N 
ATOM     35  C   UNL     1       5.854  -5.229   0.206  0.00  0.00    -0.097 C 
ATOM     36  C   UNL     1       5.426  -6.463  -1.806  0.00  0.00    -0.097 C 
ATOM     37  H   UNL     1       4.971  -4.500  -1.483  0.00  0.00    -0.083 HD
ENDBRANCH  33  34
ENDBRANCH  32  33
ENDBRANCH   7  32
TORSDOF 9
