REMARK  Name = ZINC40058129
REMARK  11 active torsions:
REMARK  status: ('A' for Active; 'I' for Inactive)
REMARK    1  A    between atoms: C_1  and  C_2
REMARK    2  A    between atoms: C_2  and  O_3
REMARK    3  A    between atoms: O_3  and  C_4
REMARK    4  A    between atoms: C_6  and  C_11
REMARK    5  A    between atoms: C_9  and  O_10
REMARK    6  A    between atoms: C_17  and  C_38
REMARK    7  A    between atoms: C_19  and  C_37
REMARK    8  A    between atoms: C_29  and  C_36
REMARK    9  A    between atoms: C_30  and  C_32
REMARK   10  A    between atoms: C_32  and  O_34
REMARK   11  A    between atoms: O_34  and  C_35
REMARK                            x       y       z     vdW  Elec       q    Type
REMARK                         _______ _______ _______ _____ _____    ______ ____
ROOT
ATOM      1  C   UNL     1       0.654  -4.954  -0.018  0.00  0.00    +0.152 C 
ATOM      2  C   UNL     1       0.913  -5.484   1.354  0.00  0.00    +0.072 A 
ATOM      3  C   UNL     1       1.232  -4.798   2.610  0.00  0.00    +0.199 A 
ATOM      4  O   UNL     1       1.166  -3.590   2.746  0.00  0.00    -0.287 OA
ATOM      5  C   UNL     1       1.644  -5.718   3.701  0.00  0.00    +0.067 A 
ATOM      6  C   UNL     1       2.169  -5.213   4.890  0.00  0.00    -0.036 A 
ATOM      7  C   UNL     1       2.548  -6.073   5.883  0.00  0.00    +0.007 A 
ATOM      8  C   UNL     1       2.412  -7.443   5.710  0.00  0.00    -0.047 A 
ATOM      9  C   UNL     1       1.895  -7.959   4.543  0.00  0.00    +0.050 A 
ATOM     10  C   UNL     1       1.498  -7.103   3.516  0.00  0.00    +0.140 A 
ATOM     11  O   UNL     1       0.983  -7.630   2.382  0.00  0.00    -0.450 OA
ATOM     12  C   UNL     1       0.810  -6.846   1.300  0.00  0.00    +0.199 A 
ATOM     13  C   UNL     1       0.495  -7.231  -0.085  0.00  0.00    +0.289 C 
ATOM     14  O   UNL     1       0.341  -8.373  -0.472  0.00  0.00    -0.266 OA
ATOM     15  N   UNL     1       0.401  -6.132  -0.864  0.00  0.00    -0.232 N 
ATOM     16  C   UNL     1       0.117  -6.115  -2.216  0.00  0.00    +0.169 A 
ATOM     17  N   UNL     1      -0.121  -7.140  -3.014  0.00  0.00    -0.229 NA
ATOM     18  C   UNL     1      -0.378  -6.972  -4.286  0.00  0.00    +0.062 A 
ATOM     19  C   UNL     1      -0.385  -5.661  -4.746  0.00  0.00    +0.120 A 
ATOM     20  S   UNL     1      -0.014  -4.782  -3.236  0.00  0.00    -0.045 S 
ATOM     21  C   UNL     1      -0.651  -8.136  -5.203  0.00  0.00    +0.067 C 
ATOM     22  C   UNL     1       2.837  -8.379   6.813  0.00  0.00    +0.044 C 
ATOM     23  C   UNL     1       2.318  -3.726   5.080  0.00  0.00    +0.044 C 
ENDROOT
BRANCH   1  26
ATOM     24  C   UNL     1      -1.498  -1.849   0.006  0.00  0.00    +0.162 A 
ATOM     25  C   UNL     1      -0.389  -2.680  -0.003  0.00  0.00    +0.055 A 
ATOM     26  C   UNL     1      -0.553  -4.052  -0.008  0.00  0.00    -0.018 A 
ATOM     27  C   UNL     1      -1.823  -4.600  -0.005  0.00  0.00    +0.009 A 
ATOM     28  C   UNL     1      -2.934  -3.777   0.004  0.00  0.00    +0.049 A 
ATOM     29  C   UNL     1      -2.776  -2.400   0.016  0.00  0.00    +0.158 A 
BRANCH  29  30
ATOM     30  O   UNL     1      -3.868  -1.589   0.030  0.00  0.00    -0.503 OA
ATOM     31  H   UNL     1      -4.192  -1.350  -0.849  0.00  0.00    +0.292 HD
ENDBRANCH  29  30
BRANCH  24  32
ATOM     32  O   UNL     1      -1.339  -0.499   0.012  0.00  0.00    -0.489 OA
BRANCH  32  34
ATOM     33  C   UNL     1      -0.019   1.526   0.010  0.00  0.00    +0.048 C 
ATOM     34  C   UNL     1       0.002  -0.004   0.002  0.00  0.00    +0.226 C 
ENDBRANCH  32  34
ENDBRANCH  24  32
ENDBRANCH   1  26
BRANCH  19  35
ATOM     35  C   UNL     1      -0.633  -5.144  -6.090  0.00  0.00    +0.347 C 
ATOM     36  O   UNL     1      -0.877  -5.911  -7.002  0.00  0.00    -0.244 OA
BRANCH  35  37
ATOM     37  O   UNL     1      -0.590  -3.815  -6.320  0.00  0.00    -0.464 OA
ATOM     38  C   UNL     1      -0.842  -3.380  -7.658  0.00  0.00    +0.280 C 
ENDBRANCH  35  37
ENDBRANCH  19  35
TORSDOF 6
