REMARK  Name = ZINC11103927
REMARK  8 active torsions:
REMARK  status: ('A' for Active; 'I' for Inactive)
REMARK    1  A    between atoms: C_1  and  S_2
REMARK    2  A    between atoms: S_2  and  N_5
REMARK    3  A    between atoms: N_5  and  C_6
REMARK    4  A    between atoms: C_11  and  C_13
REMARK    5  A    between atoms: C_11  and  C_19
REMARK    6  A    between atoms: C_11  and  N_54
REMARK    7  A    between atoms: N_21  and  C_22
REMARK    8  A    between atoms: C_26  and  N_28
REMARK                            x       y       z     vdW  Elec       q    Type
REMARK                         _______ _______ _______ _____ _____    ______ ____
ROOT
ATOM      1  C   UNL     1      -5.474   2.279   0.569  0.00  0.00    +0.050 C 
ENDROOT
BRANCH   1   7
ATOM      2  C   UNL     1      -3.670  -0.251  -2.369  0.00  0.00    +0.073 C 
ATOM      3  C   UNL     1      -3.825   1.245  -2.655  0.00  0.00    +0.002 C 
ATOM      4  C   UNL     1      -4.907   1.825  -1.741  0.00  0.00    -0.076 C 
ATOM      5  C   UNL     1      -4.420   0.182  -0.027  0.00  0.00    -0.076 C 
ATOM      6  C   UNL     1      -3.324  -0.447  -0.890  0.00  0.00    +0.002 C 
ATOM      7  N   UNL     1      -4.502   1.627  -0.333  0.00  0.00    +0.390 N 
ATOM      8  H   UNL     1      -3.578   2.050  -0.189  0.00  0.00    -0.080 HD
BRANCH   2   9
ATOM      9  N   UNL     1      -2.596  -0.800  -3.200  0.00  0.00    -0.192 NA
ATOM     10  H   UNL     1      -1.674  -0.739  -2.904  0.00  0.00    +0.148 HD
BRANCH   9  12
ATOM     11  C   UNL     1      -3.631  -0.206  -5.680  0.00  0.00    +0.214 C 
ATOM     12  S   UNL     1      -2.955  -1.531  -4.641  0.00  0.00    +0.027 S 
ATOM     13  O   UNL     1      -1.701  -1.963  -5.152  0.00  0.00    -0.158 OA
ATOM     14  O   UNL     1      -3.972  -2.473  -4.327  0.00  0.00    -0.158 OA
ENDBRANCH   9  12
ENDBRANCH   2   9
ENDBRANCH   1   7
BRANCH   1  15
ATOM     15  C   UNL     1      -5.036   2.067   1.995  0.00  0.00    -0.052 A 
ATOM     16  C   UNL     1      -3.704   2.205   2.337  0.00  0.00    +0.002 A 
ATOM     17  C   UNL     1      -3.303   2.015   3.646  0.00  0.00    +0.000 A 
ATOM     18  C   UNL     1      -4.233   1.678   4.612  0.00  0.00    +0.000 A 
ATOM     19  C   UNL     1      -5.565   1.535   4.269  0.00  0.00    +0.000 A 
ATOM     20  C   UNL     1      -5.966   1.730   2.961  0.00  0.00    +0.002 A 
ENDBRANCH   1  15
BRANCH   1  21
ATOM     21  C   UNL     1      -5.505   3.755   0.267  0.00  0.00    +0.208 C 
ATOM     22  O   UNL     1      -4.531   4.297  -0.210  0.00  0.00    -0.277 OA
ATOM     23  N   UNL     1      -6.616   4.472   0.526  0.00  0.00    -0.286 N 
ATOM     24  H   UNL     1      -7.416   4.028   0.849  0.00  0.00    +0.155 HD
BRANCH  23  25
ATOM     25  C   UNL     1      -6.616   5.858   0.331  0.00  0.00    +0.036 A 
ATOM     26  C   UNL     1      -5.454   6.590   0.539  0.00  0.00    +0.025 A 
ATOM     27  C   UNL     1      -5.455   7.956   0.339  0.00  0.00    +0.024 A 
ATOM     28  C   UNL     1      -6.616   8.598  -0.057  0.00  0.00    +0.071 A 
ATOM     29  C   UNL     1      -7.776   7.872  -0.259  0.00  0.00    +0.146 A 
ATOM     30  C   UNL     1      -7.779   6.505  -0.067  0.00  0.00    +0.057 A 
ATOM     31 CL   UNL     1      -6.615  10.317  -0.300  0.00  0.00    -0.081 Cl
BRANCH  29  32
ATOM     32  N   UNL     1      -9.015   8.562  -0.683  0.00  0.00    +0.058 N 
ATOM     33  O   UNL     1     -10.037   7.923  -0.862  0.00  0.00    -0.126 OA
ATOM     34  O   UNL     1      -9.013   9.768  -0.853  0.00  0.00    -0.126 OA
ENDBRANCH  29  32
ENDBRANCH  23  25
ENDBRANCH   1  21
TORSDOF 7
