REMARK  Name = ZINC00816249
REMARK  14 active torsions:
REMARK  status: ('A' for Active; 'I' for Inactive)
REMARK    1  A    between atoms: C_1  and  C_2
REMARK    2  A    between atoms: C_7  and  C_19
REMARK    3  A    between atoms: C_9  and  C_13
REMARK    4  A    between atoms: C_10  and  C_12
REMARK    5  A    between atoms: C_13  and  O_15
REMARK    6  A    between atoms: O_15  and  C_16
REMARK    7  A    between atoms: C_16  and  C_17
REMARK    8  A    between atoms: C_16  and  C_18
REMARK    9  A    between atoms: C_22  and  O_26
REMARK   10  A    between atoms: C_23  and  O_25
REMARK   11  A    between atoms: O_26  and  C_27
REMARK   12  A    between atoms: C_30  and  C_32
REMARK   13  A    between atoms: C_32  and  O_34
REMARK   14  A    between atoms: O_34  and  C_35
REMARK                            x       y       z     vdW  Elec       q    Type
REMARK                         _______ _______ _______ _____ _____    ______ ____
ROOT
ATOM      1  C   UNL     1       0.685   1.691  -0.430  0.00  0.00    +0.009 C 
ATOM      2  C   UNL     1       0.453   0.182  -0.335  0.00  0.00    +0.013 C 
ATOM      3  C   UNL     1       1.212  -0.527  -1.459  0.00  0.00    +0.055 C 
ATOM      4  C   UNL     1       1.024  -2.019  -1.335  0.00  0.00    +0.016 C 
ATOM      5  C   UNL     1       0.851  -2.600  -0.129  0.00  0.00    +0.025 C 
ATOM      6  C   UNL     1       0.676  -4.093  -0.011  0.00  0.00    +0.092 C 
ATOM      7  C   UNL     1       0.298  -4.697  -1.332  0.00  0.00    +0.065 C 
ATOM      8  C   UNL     1       0.488  -4.030  -2.483  0.00  0.00    +0.016 C 
ATOM      9  N   UNL     1       1.030  -2.775  -2.476  0.00  0.00    -0.321 N 
ATOM     10  C   UNL     1       0.102  -4.671  -3.791  0.00  0.00    +0.061 C 
ATOM     11  C   UNL     1       0.825  -1.833   1.049  0.00  0.00    +0.176 C 
ATOM     12  O   UNL     1       0.678  -2.388   2.120  0.00  0.00    -0.291 OA
ATOM     13  C   UNL     1       0.973  -0.336   1.010  0.00  0.00    +0.171 C 
ATOM     14  H   UNL     1       1.423  -2.417  -3.288  0.00  0.00    +0.152 HD
ENDROOT
BRANCH   6  15
ATOM     15  C   UNL     1       1.970  -4.707   0.460  0.00  0.00    -0.032 A 
ATOM     16  C   UNL     1       3.120  -4.553  -0.292  0.00  0.00    +0.008 A 
ATOM     17  C   UNL     1       4.309  -5.114   0.135  0.00  0.00    +0.050 A 
ATOM     18  C   UNL     1       4.350  -5.832   1.320  0.00  0.00    +0.161 A 
ATOM     19  C   UNL     1       3.192  -5.987   2.076  0.00  0.00    +0.159 A 
ATOM     20  C   UNL     1       2.005  -5.418   1.645  0.00  0.00    +0.053 A 
BRANCH  19  21
ATOM     21  O   UNL     1       3.227  -6.691   3.240  0.00  0.00    -0.503 OA
ATOM     22  H   UNL     1       3.428  -6.154   4.018  0.00  0.00    +0.292 HD
ENDBRANCH  19  21
BRANCH  18  23
ATOM     23  O   UNL     1       5.518  -6.385   1.741  0.00  0.00    -0.491 OA
ATOM     24  C   UNL     1       6.666  -6.187   0.913  0.00  0.00    +0.277 C 
ENDBRANCH  18  23
ENDBRANCH   6  15
BRANCH   7  25
ATOM     25  C   UNL     1      -0.271  -5.991  -1.365  0.00  0.00    +0.338 C 
ATOM     26  O   UNL     1      -0.695  -6.443  -2.413  0.00  0.00    -0.245 OA
BRANCH  25  27
ATOM     27  O   UNL     1      -0.344  -6.726  -0.235  0.00  0.00    -0.459 OA
BRANCH  27  28
ATOM     28  C   UNL     1      -0.930  -8.025  -0.343  0.00  0.00    +0.171 C 
ATOM     29  C   UNL     1       0.159  -9.051  -0.664  0.00  0.00    +0.052 C 
ATOM     30  C   UNL     1      -1.602  -8.392   0.982  0.00  0.00    +0.052 C 
ENDBRANCH  27  28
ENDBRANCH  25  27
ENDBRANCH   7  25
BRANCH  13  31
ATOM     31  C   UNL     1       0.177   0.283   2.130  0.00  0.00    +0.318 C 
ATOM     32  O   UNL     1      -0.715   1.059   1.880  0.00  0.00    -0.250 OA
BRANCH  31  33
ATOM     33  O   UNL     1       0.459  -0.027   3.405  0.00  0.00    -0.467 OA
ATOM     34  C   UNL     1      -0.336   0.597   4.416  0.00  0.00    +0.280 C 
ENDBRANCH  31  33
ENDBRANCH  13  31
TORSDOF 8
