REMARK  Name = ZINC39959761
REMARK  15 active torsions:
REMARK  status: ('A' for Active; 'I' for Inactive)
REMARK    1  A    between atoms: C_1  and  C_2
REMARK    2  A    between atoms: C_2  and  C_3
REMARK    3  A    between atoms: C_2  and  C_4
REMARK    4  A    between atoms: C_2  and  O_5
REMARK    5  A    between atoms: O_5  and  C_6
REMARK    6  A    between atoms: C_20  and  O_22
REMARK    7  A    between atoms: O_22  and  C_23
REMARK    8  A    between atoms: C_23  and  C_24
REMARK    9  A    between atoms: C_23  and  C_25
REMARK   10  A    between atoms: C_23  and  C_26
REMARK   11  A    between atoms: C_27  and  O_29
REMARK   12  A    between atoms: O_29  and  C_30
REMARK   13  A    between atoms: C_30  and  C_31
REMARK   14  A    between atoms: C_30  and  C_32
REMARK   15  A    between atoms: C_30  and  C_33
REMARK                            x       y       z     vdW  Elec       q    Type
REMARK                         _______ _______ _______ _____ _____    ______ ____
ROOT
ATOM      1  C   UNL     1       1.952  -0.085  -1.337  0.00  0.00    +0.403 C 
ATOM      2  O   UNL     1       2.488   0.619  -0.503  0.00  0.00    -0.226 OA
ATOM      3  N   UNL     1       2.641  -0.485  -2.424  0.00  0.00    -0.268 N 
ATOM      4  C   UNL     1       4.062  -0.113  -2.674  0.00  0.00    +0.092 C 
ATOM      5  C   UNL     1       4.862  -0.409  -1.403  0.00  0.00    -0.063 C 
ATOM      6  N   UNL     1       5.812  -1.498  -1.665  0.00  0.00    +0.381 N 
ATOM      7  C   UNL     1       5.772  -2.460  -0.555  0.00  0.00    -0.063 C 
ATOM      8  C   UNL     1       5.790  -3.884  -1.114  0.00  0.00    +0.092 C 
ATOM      9  N   UNL     1       4.489  -4.531  -0.779  0.00  0.00    -0.268 N 
ATOM     10  C   UNL     1       3.808  -5.142  -1.955  0.00  0.00    +0.130 C 
ATOM     11  C   UNL     1       2.352  -4.672  -1.960  0.00  0.00    +0.130 C 
ATOM     12  N   UNL     1       2.156  -3.756  -3.109  0.00  0.00    -0.264 N 
ATOM     13  C   UNL     1       1.367  -2.534  -2.823  0.00  0.00    +0.130 C 
ATOM     14  C   UNL     1       2.056  -1.348  -3.490  0.00  0.00    +0.130 C 
ATOM     15  C   UNL     1       2.661  -4.017  -4.332  0.00  0.00    +0.403 C 
ATOM     16  O   UNL     1       3.302  -5.032  -4.520  0.00  0.00    -0.226 OA
ATOM     17  C   UNL     1       3.978  -4.560   0.468  0.00  0.00    +0.403 C 
ATOM     18  O   UNL     1       4.585  -4.043   1.385  0.00  0.00    -0.226 OA
ATOM     19  H   UNL     1       5.560  -1.965  -2.524  0.00  0.00    -0.086 HD
ATOM     20  H   UNL     1       6.743  -1.120  -1.749  0.00  0.00    -0.086 HD
ENDROOT
BRANCH   1  21
ATOM     21  O   UNL     1       0.671  -0.465  -1.174  0.00  0.00    -0.445 OA
BRANCH  21  23
ATOM     22  C   UNL     1      -0.019   1.526   0.010  0.00  0.00    +0.055 C 
ATOM     23  C   UNL     1       0.002  -0.004   0.002  0.00  0.00    +0.107 C 
ATOM     24  C   UNL     1       0.742  -0.511   1.242  0.00  0.00    +0.055 C 
ATOM     25  C   UNL     1      -1.433  -0.534   0.013  0.00  0.00    +0.055 C 
ENDBRANCH  21  23
ENDBRANCH   1  21
BRANCH  15  26
ATOM     26  O   UNL     1       2.454  -3.153  -5.343  0.00  0.00    -0.445 OA
BRANCH  26  27
ATOM     27  C   UNL     1       3.018  -3.493  -6.612  0.00  0.00    +0.107 C 
ATOM     28  C   UNL     1       2.439  -4.827  -7.086  0.00  0.00    +0.055 C 
ATOM     29  C   UNL     1       2.681  -2.401  -7.629  0.00  0.00    +0.055 C 
ATOM     30  C   UNL     1       4.537  -3.615  -6.479  0.00  0.00    +0.055 C 
ENDBRANCH  26  27
ENDBRANCH  15  26
BRANCH  17  31
ATOM     31  O   UNL     1       2.796  -5.162   0.698  0.00  0.00    -0.445 OA
BRANCH  31  32
ATOM     32  C   UNL     1       2.315  -5.156   2.043  0.00  0.00    +0.107 C 
ATOM     33  C   UNL     1       2.139  -3.711   2.514  0.00  0.00    +0.055 C 
ATOM     34  C   UNL     1       0.970  -5.881   2.107  0.00  0.00    +0.055 C 
ATOM     35  C   UNL     1       3.322  -5.868   2.949  0.00  0.00    +0.055 C 
ENDBRANCH  31  32
ENDBRANCH  17  31
TORSDOF 6
