REMARK  Name = ZINC12744808
REMARK  6 active torsions:
REMARK  status: ('A' for Active; 'I' for Inactive)
REMARK    1  A    between atoms: C_6  and  C_11
REMARK    2  A    between atoms: C_11  and  N_57
REMARK    3  A    between atoms: C_17  and  C_19
REMARK    4  A    between atoms: C_19  and  C_20
REMARK    5  A    between atoms: N_22  and  C_23
REMARK    6  A    between atoms: C_23  and  C_24
REMARK                            x       y       z     vdW  Elec       q    Type
REMARK                         _______ _______ _______ _____ _____    ______ ____
ROOT
ATOM      1  C   UNL     1       1.368  -0.759  -0.511  0.00  0.00    -0.058 C 
ATOM      2  C   UNL     1      -0.046  -0.489   0.006  0.00  0.00    +0.085 C 
ATOM      3  N   UNL     1      -0.317   0.946  -0.003  0.00  0.00    -0.318 N 
ATOM      4  C   UNL     1       0.650   1.868  -0.069  0.00  0.00    +0.200 C 
ATOM      5  O   UNL     1       0.338   3.040  -0.041  0.00  0.00    -0.278 OA
ATOM      6  C   UNL     1       2.106   1.513  -0.175  0.00  0.00    +0.028 C 
ATOM      7  H   UNL     1      -1.239   1.244   0.035  0.00  0.00    +0.149 HD
ATOM      8  N   UNL     1       2.301   0.109   0.235  0.00  0.00    +0.391 N 
ATOM      9  H   UNL     1       2.109   0.024   1.240  0.00  0.00    -0.080 HD
ENDROOT
BRANCH   8  10
ATOM     10  C   UNL     1       3.699  -0.305  -0.026  0.00  0.00    -0.042 C 
BRANCH  10  16
ATOM     11  C   UNL     1       4.665  -0.582  -6.405  0.00  0.00    +0.001 A 
ATOM     12  C   UNL     1       4.039  -1.753  -5.982  0.00  0.00    +0.001 A 
ATOM     13  C   UNL     1       3.723  -1.946  -4.673  0.00  0.00    +0.008 A 
ATOM     14  C   UNL     1       4.030  -0.949  -3.730  0.00  0.00    -0.018 A 
ATOM     15  C   UNL     1       3.725  -1.115  -2.368  0.00  0.00    +0.010 A 
ATOM     16  C   UNL     1       4.033  -0.126  -1.484  0.00  0.00    -0.063 A 
ATOM     17  C   UNL     1       4.658   1.045  -1.907  0.00  0.00    +0.002 A 
ATOM     18  C   UNL     1       4.974   1.238  -3.217  0.00  0.00    +0.009 A 
ATOM     19  C   UNL     1       4.666   0.242  -4.160  0.00  0.00    -0.018 A 
ATOM     20  C   UNL     1       4.977   0.404  -5.521  0.00  0.00    +0.008 A 
ENDBRANCH  10  16
ENDBRANCH   8  10
BRANCH   6  21
ATOM     21  C   UNL     1       2.919   2.420   0.751  0.00  0.00    +0.089 C 
BRANCH  21  22
ATOM     22  C   UNL     1       2.477   2.208   2.176  0.00  0.00    +0.212 C 
ATOM     23  O   UNL     1       1.682   1.331   2.441  0.00  0.00    -0.276 OA
ATOM     24  N   UNL     1       2.964   2.994   3.156  0.00  0.00    -0.311 N 
ATOM     25  H   UNL     1       3.600   3.696   2.944  0.00  0.00    +0.149 HD
BRANCH  24  26
ATOM     26  C   UNL     1       2.535   2.789   4.542  0.00  0.00    +0.139 C 
BRANCH  26  27
ATOM     27  C   UNL     1       3.221   3.790   5.434  0.00  0.00    -0.027 A 
ATOM     28  C   UNL     1       2.632   5.017   5.676  0.00  0.00    +0.009 A 
ATOM     29  C   UNL     1       3.258   5.939   6.495  0.00  0.00    +0.050 A 
ATOM     30  C   UNL     1       4.479   5.634   7.074  0.00  0.00    +0.166 A 
ATOM     31  C   UNL     1       5.073   4.399   6.830  0.00  0.00    +0.167 A 
ATOM     32  C   UNL     1       4.437   3.478   6.014  0.00  0.00    +0.054 A 
ATOM     33  O   UNL     1       6.257   4.342   7.508  0.00  0.00    -0.453 OA
ATOM     34  C   UNL     1       6.576   5.707   7.838  0.00  0.00    +0.466 C 
ATOM     35  O   UNL     1       5.291   6.352   7.904  0.00  0.00    -0.453 OA
ENDBRANCH  26  27
ENDBRANCH  24  26
ENDBRANCH  21  22
ENDBRANCH   6  21
TORSDOF 6
