REMARK  Name = ZINC44925216
REMARK  5 active torsions:
REMARK  status: ('A' for Active; 'I' for Inactive)
REMARK    1  A    between atoms: C_1  and  C_2
REMARK    2  A    between atoms: C_2  and  C_4
REMARK    3  A    between atoms: C_2  and  N_9
REMARK    4  A    between atoms: N_9  and  C_10
REMARK    5  A    between atoms: C_10  and  C_11
REMARK                            x       y       z     vdW  Elec       q    Type
REMARK                         _______ _______ _______ _____ _____    ______ ____
ROOT
ATOM      1  C   UNL     1      -0.040  -0.119   2.398  0.00  0.00    -0.042 C 
ENDROOT
BRANCH   1   2
ATOM      2  C   UNL     1       0.689  -0.618   3.619  0.00  0.00    -0.019 A 
ATOM      3  C   UNL     1       0.284  -1.786   4.241  0.00  0.00    +0.005 A 
ATOM      4  C   UNL     1       0.952  -2.246   5.360  0.00  0.00    +0.004 A 
ATOM      5  C   UNL     1       2.029  -1.540   5.867  0.00  0.00    +0.049 A 
ATOM      6  C   UNL     1       2.437  -0.372   5.247  0.00  0.00    +0.162 A 
ATOM      7  C   UNL     1       1.770   0.087   4.120  0.00  0.00    +0.163 A 
ATOM      8  O   UNL     1       2.184   1.237   3.512  0.00  0.00    -0.488 OA
ATOM      9  C   UNL     1       1.985   2.441   4.255  0.00  0.00    +0.232 C 
ATOM     10  C   UNL     1       3.133   2.672   5.225  0.00  0.00    +0.082 C 
ATOM     11  C   UNL     1       3.206   1.601   6.302  0.00  0.00    +0.232 C 
ATOM     12  O   UNL     1       3.498   0.333   5.736  0.00  0.00    -0.488 OA
ENDBRANCH   1   2
BRANCH   1  13
ATOM     13  N   UNL     1       0.713  -0.491   1.192  0.00  0.00    +0.388 N 
ATOM     14  H   UNL     1       0.798  -1.495   1.145  0.00  0.00    -0.084 HD
ATOM     15  H   UNL     1       1.632  -0.076   1.228  0.00  0.00    -0.084 HD
BRANCH  13  17
ATOM     16  C   UNL     1      -0.019   1.526   0.010  0.00  0.00    -0.006 C 
ATOM     17  C   UNL     1       0.002  -0.004   0.002  0.00  0.00    -0.001 C 
BRANCH  17  18
ATOM     18  C   UNL     1       0.707  -0.490  -1.238  0.00  0.00    +0.163 A 
ATOM     19  N   UNL     1       0.141  -1.015  -2.315  0.00  0.00    -0.113 NA
ATOM     20  N   UNL     1       1.081  -1.301  -3.149  0.00  0.00    -0.021 NA
ATOM     21  N   UNL     1       2.214  -0.974  -2.633  0.00  0.00    -0.021 NA
ATOM     22  N   UNL     1       2.013  -0.470  -1.463  0.00  0.00    -0.113 NA
ENDBRANCH  17  18
ENDBRANCH  13  17
ENDBRANCH   1  13
TORSDOF 4
