REMARK  Name = ZINC62775714
REMARK  2 active torsions:
REMARK  status: ('A' for Active; 'I' for Inactive)
REMARK    1  A    between atoms: C_11  and  C_12
REMARK    2  A    between atoms: C_12  and  C_14
REMARK                            x       y       z     vdW  Elec       q    Type
REMARK                         _______ _______ _______ _____ _____    ______ ____
ROOT
ATOM      1  C   UNL     1      -0.012   1.397  -0.323  0.00  0.00    +0.016 A 
ATOM      2  C   UNL     1       1.168   2.104  -0.246  0.00  0.00    +0.012 A 
ATOM      3  C   UNL     1       2.375   1.421  -0.130  0.00  0.00    +0.011 A 
ATOM      4  C   UNL     1       2.389   0.017  -0.091  0.00  0.00    +0.048 A 
ATOM      5  C   UNL     1       1.188  -0.679  -0.170  0.00  0.00    +0.041 A 
ATOM      6  C   UNL     1      -0.000   0.010  -0.285  0.00  0.00    +0.020 A 
ATOM      7 BR   UNL     1      -1.629  -0.944  -0.392  0.00  0.00    -0.050 Br
ATOM      8  N   UNL     1       3.706  -0.381   0.026  0.00  0.00    -0.360 N 
ATOM      9  H   UNL     1       4.003  -1.303   0.075  0.00  0.00    +0.165 HD
ATOM     10  C   UNL     1       4.524   0.698   0.064  0.00  0.00    +0.095 A 
ATOM     11  C   UNL     1       3.785   1.842  -0.026  0.00  0.00    +0.047 A 
ENDROOT
BRANCH  11  12
ATOM     12  C   UNL     1       4.293   3.220  -0.022  0.00  0.00    +0.198 C 
ATOM     13  O   UNL     1       4.835   3.672  -1.014  0.00  0.00    -0.286 OA
BRANCH  12  14
ATOM     14  C   UNL     1       4.147   4.056   1.184  0.00  0.00    +0.059 A 
ATOM     15  C   UNL     1       4.475   5.392   1.300  0.00  0.00    +0.116 A 
ATOM     16  N   UNL     1       4.187   5.769   2.557  0.00  0.00    -0.284 N 
ATOM     17  H   UNL     1       4.315   6.657   2.925  0.00  0.00    +0.188 HD
ATOM     18  N   UNL     1       3.672   4.665   3.244  0.00  0.00    -0.182 NA
ATOM     19  C   UNL     1       3.638   3.642   2.436  0.00  0.00    +0.145 A 
ENDBRANCH  12  14
ENDBRANCH  11  12
TORSDOF 2
