REMARK  Name = ZINC15746143
REMARK  8 active torsions:
REMARK  status: ('A' for Active; 'I' for Inactive)
REMARK    1  A    between atoms: CG_4  and  CB_7
REMARK    2  A    between atoms: CB_7  and  CA_8
REMARK    3  A    between atoms: CA_8  and  C_10
REMARK    4  A    between atoms: CA_8  and  N_13
REMARK    5  A    between atoms: C_14  and  CA_16
REMARK    6  A    between atoms: CA_16  and  N_25
REMARK    7  A    between atoms: C_17  and  C_18
REMARK    8  A    between atoms: C_26  and  C_28
REMARK                            x       y       z     vdW  Elec       q    Type
REMARK                         _______ _______ _______ _____ _____    ______ ____
ROOT
ATOM      1  CA  UNL     1       4.326   1.898   4.081  0.00  0.00    +0.097 C 
ATOM      2  C   UNL     1       4.763   1.824   5.359  0.00  0.00    +0.036 C 
ENDROOT
BRANCH   2   3
ATOM      3  C   UNL     1       4.441   0.647   6.180  0.00  0.00    -0.023 A 
ATOM      4  C   UNL     1       4.566  -0.639   5.644  0.00  0.00    +0.009 A 
ATOM      5  C   UNL     1       4.262  -1.738   6.418  0.00  0.00    +0.020 A 
ATOM      6  C   UNL     1       3.833  -1.571   7.725  0.00  0.00    +0.041 A 
ATOM      7  C   UNL     1       3.706  -0.301   8.263  0.00  0.00    +0.020 A 
ATOM      8  C   UNL     1       4.012   0.807   7.502  0.00  0.00    +0.009 A 
ATOM      9 CL   UNL     1       3.452  -2.961   8.693  0.00  0.00    -0.084 Cl
ENDBRANCH   2   3
BRANCH   1  11
ATOM     10  N   UNL     1       2.999   0.921   2.280  0.00  0.00    -0.297 N 
ATOM     11  C   UNL     1       3.338   0.930   3.585  0.00  0.00    +0.259 C 
ATOM     12  O   UNL     1       2.826   0.136   4.351  0.00  0.00    -0.269 OA
ATOM     13  H   UNL     1       3.408   1.554   1.669  0.00  0.00    +0.150 HD
BRANCH  10  14
ATOM     14  CA  UNL     1       2.015  -0.045   1.786  0.00  0.00    +0.191 C 
BRANCH  14  15
ATOM     15  C   UNL     1       2.704  -1.346   1.467  0.00  0.00    +0.376 C 
ATOM     16  O   UNL     1       3.867  -1.347   1.103  0.00  0.00    -0.244 OA
ATOM     17  OXT UNL     1       2.097  -2.399   1.573  0.00  0.00    -0.244 OA
ENDBRANCH  14  15
BRANCH  14  18
ATOM     18  CB  UNL     1       1.352   0.505   0.521  0.00  0.00    +0.069 C 
BRANCH  18  22
ATOM     19  CZ  UNL     1      -0.891   4.008   1.493  0.00  0.00    +0.000 A 
ATOM     20  CE1 UNL     1       0.438   4.118   1.125  0.00  0.00    +0.000 A 
ATOM     21  CD1 UNL     1       1.163   2.984   0.811  0.00  0.00    +0.004 A 
ATOM     22  CG  UNL     1       0.561   1.741   0.864  0.00  0.00    -0.045 A 
ATOM     23  CD2 UNL     1      -0.767   1.631   1.233  0.00  0.00    +0.004 A 
ATOM     24  CE2 UNL     1      -1.493   2.765   1.546  0.00  0.00    +0.000 A 
ENDBRANCH  18  22
ENDBRANCH  14  18
ENDBRANCH  10  14
ENDBRANCH   1  11
BRANCH   1  25
ATOM     25  N   UNL     1       4.814   2.896   3.232  0.00  0.00    -0.275 N 
ATOM     26  C   UNL     1       5.502   2.560   2.123  0.00  0.00    +0.284 C 
ATOM     27  O   UNL     1       5.625   1.389   1.815  0.00  0.00    -0.266 OA
ATOM     28  H   UNL     1       4.657   3.830   3.442  0.00  0.00    +0.155 HD
BRANCH  26  29
ATOM     29  C   UNL     1       6.103   3.606   1.288  0.00  0.00    +0.189 A 
ATOM     30  C   UNL     1       6.817   3.405   0.142  0.00  0.00    +0.054 A 
ATOM     31  C   UNL     1       7.197   4.674  -0.324  0.00  0.00    +0.042 A 
ATOM     32  C   UNL     1       6.704   5.581   0.548  0.00  0.00    +0.196 A 
ATOM     33  O   UNL     1       6.041   4.934   1.515  0.00  0.00    -0.458 OA
ENDBRANCH  26  29
ENDBRANCH   1  25
TORSDOF 8
