REMARK  Name = ZINC40041488
REMARK  7 active torsions:
REMARK  status: ('A' for Active; 'I' for Inactive)
REMARK    1  A    between atoms: C_1  and  C_2
REMARK    2  A    between atoms: C_4  and  C_30
REMARK    3  A    between atoms: N_15  and  C_27
REMARK    4  A    between atoms: C_16  and  C_18
REMARK    5  A    between atoms: C_21  and  N_24
REMARK    6  A    between atoms: C_27  and  C_28
REMARK    7  A    between atoms: C_28  and  O_29
REMARK                            x       y       z     vdW  Elec       q    Type
REMARK                         _______ _______ _______ _____ _____    ______ ____
ROOT
ATOM      1  C   UNL     1      -0.277   1.238  -0.686  0.00  0.00    +0.044 C 
ATOM      2  C   UNL     1      -0.190  -0.263  -0.586  0.00  0.00    -0.049 A 
ATOM      3  C   UNL     1      -0.113  -1.030  -1.740  0.00  0.00    +0.010 A 
ATOM      4  C   UNL     1      -0.035  -2.403  -1.671  0.00  0.00    -0.007 A 
ATOM      5  C   UNL     1      -0.034  -3.041  -0.430  0.00  0.00    +0.142 A 
ATOM      6  C   UNL     1      -0.106  -2.254   0.731  0.00  0.00    +0.065 A 
ATOM      7  C   UNL     1      -0.183  -0.865   0.642  0.00  0.00    +0.018 A 
ATOM      8  C   UNL     1      -0.088  -2.923   2.056  0.00  0.00    +0.199 A 
ATOM      9  O   UNL     1      -0.315  -2.340   3.101  0.00  0.00    -0.287 OA
ATOM     10  C   UNL     1       0.227  -4.354   1.987  0.00  0.00    +0.072 A 
ATOM     11  C   UNL     1       0.277  -5.007   0.788  0.00  0.00    +0.199 A 
ATOM     12  O   UNL     1       0.036  -4.391  -0.386  0.00  0.00    -0.449 OA
ATOM     13  C   UNL     1       0.623  -6.416   1.044  0.00  0.00    +0.283 C 
ATOM     14  O   UNL     1       0.751  -7.268   0.187  0.00  0.00    -0.267 OA
ATOM     15  N   UNL     1       0.777  -6.623   2.368  0.00  0.00    -0.282 N 
ATOM     16  C   UNL     1       0.538  -5.346   3.059  0.00  0.00    +0.145 C 
ATOM     17  C   UNL     1       0.046  -3.217  -2.936  0.00  0.00    +0.047 C 
ENDROOT
BRANCH  16  18
ATOM     18  C   UNL     1       1.772  -4.925   3.815  0.00  0.00    -0.022 A 
ATOM     19  C   UNL     1       3.018  -5.051   3.229  0.00  0.00    +0.008 A 
ATOM     20  C   UNL     1       4.150  -4.665   3.921  0.00  0.00    +0.033 A 
ATOM     21  C   UNL     1       4.037  -4.153   5.200  0.00  0.00    +0.126 A 
ATOM     22  C   UNL     1       2.791  -4.026   5.786  0.00  0.00    +0.033 A 
ATOM     23  C   UNL     1       1.658  -4.408   5.091  0.00  0.00    +0.008 A 
BRANCH  21  24
ATOM     24  N   UNL     1       5.249  -3.740   5.942  0.00  0.00    +0.056 N 
ATOM     25  O   UNL     1       6.338  -3.852   5.430  0.00  0.00    -0.126 OA
ATOM     26  O   UNL     1       5.150  -3.292   7.061  0.00  0.00    -0.126 OA
ENDBRANCH  21  24
ENDBRANCH  16  18
BRANCH  15  27
ATOM     27  C   UNL     1       1.121  -7.896   3.006  0.00  0.00    +0.137 C 
BRANCH  27  28
ATOM     28  C   UNL     1      -0.159  -8.602   3.458  0.00  0.00    +0.175 C 
BRANCH  28  29
ATOM     29  O   UNL     1      -0.935  -8.960   2.313  0.00  0.00    -0.393 OA
ATOM     30  H   UNL     1      -1.763  -9.413   2.525  0.00  0.00    +0.209 HD
ENDBRANCH  28  29
ENDBRANCH  27  28
ENDBRANCH  15  27
TORSDOF 5
