REMARK  Name = ZINC34829692
REMARK  10 active torsions:
REMARK  status: ('A' for Active; 'I' for Inactive)
REMARK    1  A    between atoms: C_1  and  C_2
REMARK    2  A    between atoms: C_9  and  C_11
REMARK    3  A    between atoms: C_11  and  O_12
REMARK    4  A    between atoms: O_12  and  C_13
REMARK    5  A    between atoms: C_13  and  C_14
REMARK    6  A    between atoms: C_20  and  C_22
REMARK    7  A    between atoms: C_22  and  N_23
REMARK    8  A    between atoms: C_31  and  C_33
REMARK    9  A    between atoms: C_36  and  O_39
REMARK   10  A    between atoms: O_39  and  C_40
REMARK                            x       y       z     vdW  Elec       q    Type
REMARK                         _______ _______ _______ _____ _____    ______ ____
ROOT
ATOM      1  C   UNL     1      -0.019   1.526   0.010  0.00  0.00    +0.029 C 
ATOM      2  C   UNL     1       0.002  -0.004   0.002  0.00  0.00    +0.090 C 
ATOM      3  C   UNL     1      -1.435  -0.538   0.021  0.00  0.00    +0.130 C 
ATOM      4  N   UNL     1      -2.019  -0.269   1.343  0.00  0.00    -0.300 N 
ATOM      5  C   UNL     1      -1.319  -0.760   2.539  0.00  0.00    +0.126 C 
ATOM      6  C   UNL     1       0.118  -0.225   2.520  0.00  0.00    +0.127 C 
ATOM      7  N   UNL     1       0.705  -0.494   1.196  0.00  0.00    -0.294 N 
ATOM      8  C   UNL     1       1.860  -1.179   1.079  0.00  0.00    +0.242 C 
ATOM      9  O   UNL     1       2.328  -1.395  -0.019  0.00  0.00    -0.273 OA
ATOM     10  C   UNL     1      -3.174   0.415   1.457  0.00  0.00    +0.199 C 
ATOM     11  O   UNL     1      -3.742   0.815   0.463  0.00  0.00    -0.278 OA
ENDROOT
BRANCH   8  12
ATOM     12  C   UNL     1       2.570  -1.675   2.312  0.00  0.00    +0.256 C 
BRANCH  12  13
ATOM     13  O   UNL     1       3.761  -2.366   1.930  0.00  0.00    -0.366 OA
BRANCH  13  14
ATOM     14  C   UNL     1       4.513  -2.881   3.031  0.00  0.00    +0.195 C 
BRANCH  14  15
ATOM     15  C   UNL     1       5.741  -3.586   2.515  0.00  0.00    -0.022 A 
ATOM     16  C   UNL     1       5.689  -4.934   2.213  0.00  0.00    +0.006 A 
ATOM     17  C   UNL     1       6.815  -5.580   1.740  0.00  0.00    +0.000 A 
ATOM     18  C   UNL     1       7.994  -4.879   1.568  0.00  0.00    +0.000 A 
ATOM     19  C   UNL     1       8.046  -3.530   1.869  0.00  0.00    +0.000 A 
ATOM     20  C   UNL     1       6.919  -2.883   2.338  0.00  0.00    +0.006 A 
ENDBRANCH  14  15
ENDBRANCH  13  14
ENDBRANCH  12  13
ENDBRANCH   8  12
BRANCH  10  21
ATOM     21  C   UNL     1      -3.760   0.683   2.819  0.00  0.00    +0.020 C 
BRANCH  21  22
ATOM     22  N   UNL     1      -5.011   1.440   2.674  0.00  0.00    +0.393 N 
ATOM     23  C   UNL     1      -5.991   0.620   1.950  0.00  0.00    -0.072 C 
ATOM     24  C   UNL     1      -7.162   1.516   1.511  0.00  0.00    +0.024 C 
ATOM     25  C   UNL     1      -7.568   2.337   2.691  0.00  0.00    -0.010 A 
ATOM     26  C   UNL     1      -6.862   2.498   3.846  0.00  0.00    -0.047 A 
ATOM     27  C   UNL     1      -7.440   3.308   4.820  0.00  0.00    +0.010 A 
ATOM     28  C   UNL     1      -8.640   3.891   4.591  0.00  0.00    +0.045 A 
ATOM     29  S   UNL     1      -9.025   3.309   2.945  0.00  0.00    -0.101 S 
ATOM     30  C   UNL     1      -5.514   1.802   4.004  0.00  0.00    -0.005 C 
ATOM     31  H   UNL     1      -4.830   2.282   2.147  0.00  0.00    -0.080 HD
BRANCH  30  32
ATOM     32  C   UNL     1      -4.540   2.735   4.676  0.00  0.00    -0.056 A 
ATOM     33  C   UNL     1      -3.922   3.732   3.945  0.00  0.00    +0.006 A 
ATOM     34  C   UNL     1      -3.028   4.588   4.558  0.00  0.00    +0.046 A 
ATOM     35  C   UNL     1      -2.751   4.448   5.910  0.00  0.00    +0.120 A 
ATOM     36  C   UNL     1      -3.373   3.447   6.643  0.00  0.00    +0.046 A 
ATOM     37  C   UNL     1      -4.270   2.596   6.025  0.00  0.00    +0.006 A 
BRANCH  35  38
ATOM     38  O   UNL     1      -1.872   5.288   6.516  0.00  0.00    -0.495 OA
ATOM     39  C   UNL     1      -1.635   5.085   7.911  0.00  0.00    +0.277 C 
ENDBRANCH  35  38
ENDBRANCH  30  32
ENDBRANCH  21  22
ENDBRANCH  10  21
TORSDOF 8
