REMARK  Name = ZINC64002394
REMARK  9 active torsions:
REMARK  status: ('A' for Active; 'I' for Inactive)
REMARK    1  A    between atoms: C_1  and  C_2
REMARK    2  A    between atoms: C_7  and  S_12
REMARK    3  A    between atoms: S_12  and  C_13
REMARK    4  A    between atoms: C_13  and  C_14
REMARK    5  A    between atoms: N_16  and  C_17
REMARK    6  A    between atoms: C_17  and  C_18
REMARK    7  A    between atoms: C_25  and  C_28
REMARK    8  A    between atoms: C_29  and  C_35
REMARK    9  A    between atoms: C_32  and  C_34
REMARK                            x       y       z     vdW  Elec       q    Type
REMARK                         _______ _______ _______ _____ _____    ______ ____
ROOT
ATOM      1  C   UNL     1       5.003  -4.978   0.952  0.00  0.00    +0.223 C 
ATOM      2  O   UNL     1       5.140  -6.098   1.396  0.00  0.00    -0.275 OA
ATOM      3  N   UNL     1       6.083  -4.199   0.745  0.00  0.00    -0.311 N 
ATOM      4  H   UNL     1       5.974  -3.303   0.390  0.00  0.00    +0.149 HD
ENDROOT
BRANCH   1   5
ATOM      5  C   UNL     1       3.626  -4.458   0.630  0.00  0.00    +0.168 C 
BRANCH   5   6
ATOM      6  S   UNL     1       2.393  -5.732   1.015  0.00  0.00    -0.106 S 
BRANCH   6  13
ATOM      7  C   UNL     1       0.082   0.976  -0.248  0.00  0.00    +0.044 C 
ATOM      8  C   UNL     1       0.279  -0.506  -0.435  0.00  0.00    -0.048 A 
ATOM      9  C   UNL     1       0.394  -1.012  -1.743  0.00  0.00    +0.005 A 
ATOM     10  C   UNL     1       0.572  -2.323  -2.001  0.00  0.00    +0.028 A 
ATOM     11  C   UNL     1       0.652  -3.278  -0.887  0.00  0.00    +0.061 A 
ATOM     12  N   UNL     1       0.815  -4.568  -0.837  0.00  0.00    -0.355 N 
ATOM     13  C   UNL     1       0.812  -4.958   0.578  0.00  0.00    +0.236 C 
ATOM     14  N   UNL     1       0.625  -3.722   1.348  0.00  0.00    -0.355 N 
ATOM     15  C   UNL     1       0.531  -2.742   0.496  0.00  0.00    +0.061 A 
ATOM     16  C   UNL     1       0.345  -1.294   0.657  0.00  0.00    +0.030 A 
ATOM     17  H   UNL     1       0.920  -5.163  -1.596  0.00  0.00    +0.162 HD
ATOM     18  H   UNL     1       0.579  -3.649   2.314  0.00  0.00    +0.162 HD
ENDBRANCH   6  13
ENDBRANCH   5   6
ENDBRANCH   1   5
BRANCH   3  19
ATOM     19  C   UNL     1       7.422  -4.705   1.057  0.00  0.00    +0.149 C 
BRANCH  19  20
ATOM     20  C   UNL     1       8.462  -3.630   0.733  0.00  0.00    +0.195 C 
ATOM     21  C   UNL     1       9.893  -4.155   0.994  0.00  0.00    +0.085 C 
ATOM     22  C   UNL     1      10.588  -2.918   1.530  0.00  0.00    -0.002 A 
ATOM     23  C   UNL     1      11.920  -2.607   1.700  0.00  0.00    +0.007 A 
ATOM     24  C   UNL     1      12.288  -1.376   2.215  0.00  0.00    +0.001 A 
ATOM     25  C   UNL     1      11.319  -0.456   2.560  0.00  0.00    +0.014 A 
ATOM     26  C   UNL     1       9.972  -0.764   2.395  0.00  0.00    +0.044 A 
ATOM     27  C   UNL     1       9.596  -2.013   1.876  0.00  0.00    +0.133 A 
ATOM     28  O   UNL     1       8.354  -2.525   1.646  0.00  0.00    -0.486 OA
BRANCH  26  29
ATOM     29  C   UNL     1       8.934   0.227   2.767  0.00  0.00    +0.096 A 
ATOM     30  C   UNL     1       8.969   0.841   4.020  0.00  0.00    +0.064 A 
ATOM     31  N   UNL     1       8.043   1.723   4.346  0.00  0.00    -0.256 NA
ATOM     32  C   UNL     1       7.083   2.024   3.487  0.00  0.00    +0.134 A 
ATOM     33  C   UNL     1       7.044   1.417   2.244  0.00  0.00    +0.057 A 
ATOM     34  N   UNL     1       7.970   0.538   1.906  0.00  0.00    -0.248 NA
ATOM     35  C   UNL     1       5.947   1.766   1.272  0.00  0.00    +0.067 C 
ATOM     36  C   UNL     1      10.063   0.498   4.998  0.00  0.00    +0.068 C 
ENDBRANCH  26  29
ENDBRANCH  19  20
ENDBRANCH   3  19
TORSDOF 6
