REMARK  Name = ZINC36759060
REMARK  3 active torsions:
REMARK  status: ('A' for Active; 'I' for Inactive)
REMARK    1  A    between atoms: C_3  and  N_22
REMARK    2  A    between atoms: C_6  and  N_7
REMARK    3  A    between atoms: C_8  and  C_10
REMARK                            x       y       z     vdW  Elec       q    Type
REMARK                         _______ _______ _______ _____ _____    ______ ____
ROOT
ATOM      1  N   UNL     1      -1.200  -0.720   0.010  0.00  0.00    -0.282 N 
ATOM      2  C   UNL     1      -1.185  -2.063  -0.099  0.00  0.00    +0.248 C 
ATOM      3  O   UNL     1      -0.125  -2.660  -0.113  0.00  0.00    -0.270 OA
ATOM      4  H   UNL     1      -2.044  -0.250   0.098  0.00  0.00    +0.155 HD
ENDROOT
BRANCH   2   5
ATOM      5  C   UNL     1      -2.453  -2.809  -0.202  0.00  0.00    +0.039 A 
ATOM      6  C   UNL     1      -3.670  -2.122  -0.191  0.00  0.00    +0.014 A 
ATOM      7  C   UNL     1      -4.856  -2.817  -0.286  0.00  0.00    +0.017 A 
ATOM      8  C   UNL     1      -4.841  -4.202  -0.392  0.00  0.00    +0.029 A 
ATOM      9  C   UNL     1      -3.628  -4.894  -0.405  0.00  0.00    +0.048 A 
ATOM     10  C   UNL     1      -2.437  -4.204  -0.315  0.00  0.00    +0.037 A 
ATOM     11  N   UNL     1      -3.635  -6.294  -0.518  0.00  0.00    -0.285 N 
ATOM     12  C   UNL     1      -4.340  -6.890  -1.487  0.00  0.00    +0.218 C 
ATOM     13  O   UNL     1      -4.494  -8.093  -1.457  0.00  0.00    -0.275 OA
ATOM     14  C   UNL     1      -4.943  -6.100  -2.611  0.00  0.00    +0.107 C 
ATOM     15  C   UNL     1      -6.371  -5.657  -2.251  0.00  0.00    +0.083 C 
ATOM     16  S   UNL     1      -6.350  -5.108  -0.510  0.00  0.00    -0.123 S 
ATOM     17  H   UNL     1      -3.126  -6.831   0.109  0.00  0.00    +0.155 HD
ENDBRANCH   2   5
BRANCH   1  23
ATOM     18  C   UNL     1       1.071  -0.454  -0.768  0.00  0.00    +0.025 A 
ATOM     19  C   UNL     1       2.256   0.253  -0.782  0.00  0.00    +0.030 A 
ATOM     20  C   UNL     1       2.379   1.415  -0.033  0.00  0.00    +0.069 A 
ATOM     21  C   UNL     1       1.311   1.866   0.732  0.00  0.00    +0.030 A 
ATOM     22  C   UNL     1       0.126   1.159   0.746  0.00  0.00    +0.025 A 
ATOM     23  C   UNL     1       0.002  -0.004  -0.004  0.00  0.00    +0.034 A 
BRANCH  20  24
ATOM     24  N   UNL     1       3.584   2.134  -0.047  0.00  0.00    -0.200 N 
ATOM     25  C   UNL     1       3.869   3.271   0.625  0.00  0.00    +0.250 A 
ATOM     26  N   UNL     1       5.100   3.599   0.328  0.00  0.00    -0.116 NA
ATOM     27  N   UNL     1       5.612   2.747  -0.485  0.00  0.00    -0.023 NA
ATOM     28  N   UNL     1       4.756   1.822  -0.758  0.00  0.00    -0.039 NA
ENDBRANCH  20  24
ENDBRANCH   1  23
TORSDOF 3
