REMARK  Name = ZINC08955206
REMARK  9 active torsions:
REMARK  status: ('A' for Active; 'I' for Inactive)
REMARK    1  A    between atoms: C_1  and  C_2
REMARK    2  A    between atoms: C_5  and  N_52
REMARK    3  A    between atoms: C_8  and  C_10
REMARK    4  A    between atoms: C_13  and  S_16
REMARK    5  A    between atoms: S_16  and  C_17
REMARK    6  A    between atoms: CA_18  and  CB_20
REMARK    7  A    between atoms: CA_18  and  C_31
REMARK    8  A    between atoms: CA_18  and  N_52
REMARK    9  A    between atoms: CB_20  and  CG_21
REMARK                            x       y       z     vdW  Elec       q    Type
REMARK                         _______ _______ _______ _____ _____    ______ ____
ROOT
ATOM      1  N   TRP A   1      -3.287  -3.263   1.232  0.00  0.00    +0.402 N 
ATOM      2  H1  TRP A   1      -3.679  -2.606   1.917  0.00  0.00    -0.082 HD
ATOM      3  H2  TRP A   1      -2.458  -3.719   1.631  0.00  0.00    -0.082 HD
ENDROOT
BRANCH   1   8
ATOM      4  C   UNK A   0      -5.247   0.557   0.056  0.00  0.00    +0.111 C 
ATOM      5  C   UNK A   0      -4.793  -0.879   0.043  0.00  0.00    +0.230 C 
ATOM      6  O   UNK A   0      -5.612  -1.775   0.045  0.00  0.00    -0.274 OA
ATOM      7  N   UNK A   0      -3.477  -1.170   0.029  0.00  0.00    -0.207 N 
ATOM      8  C   UNK A   0      -2.899  -2.523   0.016  0.00  0.00    +0.052 C 
ATOM      9  C   UNK A   0      -1.379  -2.267  -0.003  0.00  0.00    +0.062 C 
ATOM     10  C   UNK A   0      -1.263  -0.760   0.011  0.00  0.00    +0.067 C 
ATOM     11  N   UNK A   0      -2.441  -0.238   0.025  0.00  0.00    -0.183 NA
BRANCH  10  12
ATOM     12  C   UNK A   0       0.002  -0.004   0.002  0.00  0.00    -0.002 A 
ATOM     13  C   UNK A   0      -0.017   1.394   0.010  0.00  0.00    +0.011 A 
ATOM     14  C   UNK A   0       1.167   2.097   0.002  0.00  0.00    +0.015 A 
ATOM     15  C   UNK A   0       2.382   1.417  -0.013  0.00  0.00    +0.008 A 
ATOM     16  C   UNK A   0       2.404   0.026  -0.021  0.00  0.00    +0.015 A 
ATOM     17  C   UNK A   0       1.224  -0.683  -0.013  0.00  0.00    +0.011 A 
BRANCH  15  18
ATOM     18  S   UNK A   0       3.894   2.321  -0.023  0.00  0.00    -0.129 S 
ATOM     19  C   UNK A   0       3.368   4.057  -0.008  0.00  0.00    +0.090 C 
ENDBRANCH  15  18
ENDBRANCH  10  12
ENDBRANCH   1   8
BRANCH   1  20
ATOM     20  CA  TRP A   1      -4.297  -4.288   0.907  0.00  0.00    +0.051 C 
BRANCH  20  21
ATOM     21  C   TRP A   1      -3.607  -5.543   0.439  0.00  0.00    +0.343 C 
ATOM     22  O   TRP A   1      -2.401  -5.581   0.374  0.00  0.00    -0.248 OA
ATOM     23  OXT TRP A   1      -4.332  -6.618   0.093  0.00  0.00    -0.248 OA
ENDBRANCH  20  21
BRANCH  20  24
ATOM     24  CB  TRP A   1      -5.121  -4.596   2.159  0.00  0.00    +0.033 C 
BRANCH  24  25
ATOM     25  CG  TRP A   1      -5.907  -3.373   2.557  0.00  0.00    -0.023 A 
ATOM     26  CD1 TRP A   1      -5.545  -2.450   3.462  0.00  0.00    +0.087 A 
ATOM     27  NE1 TRP A   1      -6.509  -1.483   3.554  0.00  0.00    -0.360 N 
ATOM     28  HE1 TRP A   1      -6.470  -0.711   4.140  0.00  0.00    +0.165 HD
ATOM     29  CE2 TRP A   1      -7.545  -1.772   2.695  0.00  0.00    +0.047 A 
ATOM     30  CD2 TRP A   1      -7.214  -2.969   2.033  0.00  0.00    +0.003 A 
ATOM     31  CE3 TRP A   1      -8.091  -3.510   1.091  0.00  0.00    +0.010 A 
ATOM     32  CZ3 TRP A   1      -9.269  -2.873   0.817  0.00  0.00    +0.001 A 
ATOM     33  CH2 TRP A   1      -9.601  -1.694   1.468  0.00  0.00    +0.002 A 
ATOM     34  CZ2 TRP A   1      -8.750  -1.142   2.401  0.00  0.00    +0.026 A 
ENDBRANCH  24  25
ENDBRANCH  20  24
ENDBRANCH   1  20
TORSDOF 7
