REMARK  Name = ZINC38491162
REMARK  8 active torsions:
REMARK  status: ('A' for Active; 'I' for Inactive)
REMARK    1  A    between atoms: C_1  and  C_2
REMARK    2  A    between atoms: C_5  and  N_8
REMARK    3  A    between atoms: C_9  and  C_31
REMARK    4  A    between atoms: C_10  and  C_13
REMARK    5  A    between atoms: C_31  and  S_32
REMARK    6  A    between atoms: S_32  and  C_33
REMARK    7  A    between atoms: C_35  and  C_40
REMARK    8  A    between atoms: C_37  and  C_39
REMARK                            x       y       z     vdW  Elec       q    Type
REMARK                         _______ _______ _______ _____ _____    ______ ____
ROOT
ATOM      1  N   UNL     1       0.093  -4.175  -0.051  0.00  0.00    -0.215 N 
ATOM      2  C   UNL     1       0.697  -4.975   0.854  0.00  0.00    +0.087 A 
ATOM      3  C   UNL     1       0.465  -6.262   0.460  0.00  0.00    +0.171 A 
ATOM      4  N   UNL     1      -0.268  -6.237  -0.667  0.00  0.00    -0.124 NA
ATOM      5  N   UNL     1      -0.512  -5.016  -0.995  0.00  0.00    -0.060 NA
ENDROOT
BRANCH   3   6
ATOM      6  C   UNL     1       0.939  -7.475   1.152  0.00  0.00    +0.269 C 
ATOM      7  O   UNL     1       1.690  -7.378   2.104  0.00  0.00    -0.268 OA
ATOM      8  N   UNL     1       0.541  -8.692   0.730  0.00  0.00    -0.295 N 
ATOM      9  C   UNL     1      -0.293  -8.833  -0.470  0.00  0.00    +0.113 C 
ATOM     10  C   UNL     1      -1.502  -9.708  -0.171  0.00  0.00    +0.027 C 
ATOM     11  C   UNL     1      -1.083 -11.012   0.508  0.00  0.00    +0.018 C 
ATOM     12  C   UNL     1      -0.359 -10.667   1.812  0.00  0.00    +0.054 C 
ATOM     13  C   UNL     1       0.936  -9.908   1.459  0.00  0.00    +0.117 C 
ATOM     14  C   UNL     1      -1.230  -9.764   2.655  0.00  0.00    +0.027 A 
ATOM     15  C   UNL     1      -1.054  -9.804   4.003  0.00  0.00    +0.022 A 
ATOM     16  C   UNL     1      -1.779  -8.948   4.840  0.00  0.00    +0.007 A 
ATOM     17  C   UNL     1      -2.645  -8.056   4.280  0.00  0.00    +0.070 A 
ATOM     18  C   UNL     1      -2.800  -8.038   2.887  0.00  0.00    +0.251 A 
ATOM     19  O   UNL     1      -3.523  -7.201   2.370  0.00  0.00    -0.268 OA
ATOM     20  N   UNL     1      -2.155  -8.941   2.108  0.00  0.00    -0.312 N 
ATOM     21  C   UNL     1      -2.521  -8.994   0.698  0.00  0.00    +0.130 C 
ENDBRANCH   3   6
BRANCH   1  26
ATOM     22  C   UNL     1       0.002   1.501  -0.023  0.00  0.00    +0.044 C 
ATOM     23  C   UNL     1       0.026  -0.006  -0.030  0.00  0.00    -0.050 A 
ATOM     24  C   UNL     1       0.073  -0.690  -1.231  0.00  0.00    +0.005 A 
ATOM     25  C   UNL     1       0.095  -2.071  -1.241  0.00  0.00    +0.028 A 
ATOM     26  C   UNL     1       0.071  -2.772  -0.044  0.00  0.00    +0.067 A 
ATOM     27  C   UNL     1       0.024  -2.083   1.161  0.00  0.00    +0.028 A 
ATOM     28  C   UNL     1       0.007  -0.702   1.164  0.00  0.00    +0.005 A 
ENDBRANCH   1  26
BRANCH   2  29
ATOM     29  C   UNL     1       1.477  -4.534   2.066  0.00  0.00    +0.135 C 
BRANCH  29  30
ATOM     30  S   UNL     1       0.356  -4.383   3.484  0.00  0.00    -0.080 S 
BRANCH  30  31
ATOM     31  C   UNL     1       1.405  -3.867   4.803  0.00  0.00    +0.189 A 
ATOM     32  N   UNL     1       2.697  -3.686   4.569  0.00  0.00    -0.227 NA
ATOM     33  C   UNL     1       3.511  -3.298   5.537  0.00  0.00    +0.043 A 
ATOM     34  C   UNL     1       2.998  -3.081   6.806  0.00  0.00    +0.046 A 
ATOM     35  C   UNL     1       1.642  -3.279   7.016  0.00  0.00    +0.043 A 
ATOM     36  N   UNL     1       0.882  -3.663   6.004  0.00  0.00    -0.227 NA
ATOM     37  C   UNL     1       1.041  -3.055   8.379  0.00  0.00    +0.066 C 
ATOM     38  C   UNL     1       4.979  -3.095   5.263  0.00  0.00    +0.066 C 
ENDBRANCH  30  31
ENDBRANCH  29  30
ENDBRANCH   2  29
TORSDOF 5
