REMARK  Name = ZINC52490708
REMARK  9 active torsions:
REMARK  status: ('A' for Active; 'I' for Inactive)
REMARK    1  A    between atoms: C_1  and  N_2
REMARK    2  A    between atoms: N_2  and  C_3
REMARK    3  A    between atoms: N_2  and  C_19
REMARK    4  A    between atoms: C_3  and  C_4
REMARK    5  A    between atoms: N_6  and  C_7
REMARK    6  A    between atoms: C_7  and  C_8
REMARK    7  A    between atoms: C_11  and  O_14
REMARK    8  A    between atoms: O_14  and  C_15
REMARK    9  A    between atoms: C_15  and  C_16
REMARK                            x       y       z     vdW  Elec       q    Type
REMARK                         _______ _______ _______ _____ _____    ______ ____
ROOT
ATOM      1  C   UNL     1       2.126   0.317   1.138  0.00  0.00    +0.197 C 
ATOM      2  O   UNL     1       2.493   0.816   0.096  0.00  0.00    -0.278 OA
ATOM      3  N   UNL     1       2.975   0.233   2.181  0.00  0.00    -0.313 N 
ATOM      4  H   UNL     1       2.682  -0.166   3.015  0.00  0.00    +0.149 HD
ENDROOT
BRANCH   1   5
ATOM      5  C   UNL     1       0.721  -0.211   1.266  0.00  0.00    +0.019 C 
BRANCH   5   7
ATOM      6  C   UNL     1      -0.182   1.435  -0.227  0.00  0.00    -0.095 C 
ATOM      7  N   UNL     1       0.002  -0.004   0.002  0.00  0.00    +0.388 N 
ATOM      8  H   UNL     1       0.536  -0.400  -0.757  0.00  0.00    -0.081 HD
BRANCH   7   9
ATOM      9  C   UNL     1      -1.310  -0.660   0.071  0.00  0.00    -0.037 C 
ATOM     10  C   UNL     1      -2.155  -0.049   1.209  0.00  0.00    -0.006 C 
ATOM     11  C   UNL     1      -3.585  -0.111   0.630  0.00  0.00    +0.034 C 
ATOM     12  C   UNL     1      -3.405  -0.078  -0.873  0.00  0.00    -0.046 A 
ATOM     13  C   UNL     1      -2.097  -0.397  -1.195  0.00  0.00    -0.058 A 
ATOM     14  C   UNL     1      -1.701  -0.431  -2.521  0.00  0.00    +0.002 A 
ATOM     15  C   UNL     1      -2.607  -0.150  -3.525  0.00  0.00    +0.000 A 
ATOM     16  C   UNL     1      -3.914   0.166  -3.205  0.00  0.00    +0.000 A 
ATOM     17  C   UNL     1      -4.313   0.205  -1.879  0.00  0.00    +0.004 A 
ENDBRANCH   7   9
ENDBRANCH   5   7
ENDBRANCH   1   5
BRANCH   3  18
ATOM     18  C   UNL     1       4.342   0.747   2.056  0.00  0.00    +0.139 C 
BRANCH  18  19
ATOM     19  C   UNL     1       5.079   0.534   3.354  0.00  0.00    -0.030 A 
ATOM     20  C   UNL     1       5.044   1.507   4.335  0.00  0.00    +0.009 A 
ATOM     21  C   UNL     1       5.719   1.315   5.525  0.00  0.00    +0.046 A 
ATOM     22  C   UNL     1       6.432   0.144   5.735  0.00  0.00    +0.121 A 
ATOM     23  C   UNL     1       6.465  -0.832   4.749  0.00  0.00    +0.046 A 
ATOM     24  C   UNL     1       5.784  -0.637   3.563  0.00  0.00    +0.009 A 
BRANCH  22  25
ATOM     25  O   UNL     1       7.097  -0.048   6.904  0.00  0.00    -0.483 OA
BRANCH  25  26
ATOM     26  C   UNL     1       7.810  -1.277   7.051  0.00  0.00    +0.324 C 
BRANCH  26  27
ATOM     27  C   UNL     1       8.480  -1.311   8.401  0.00  0.00    +0.248 C 
ATOM     28  O   UNL     1       8.359  -0.374   9.162  0.00  0.00    -0.272 OA
ATOM     29  N   UNL     1       9.214  -2.382   8.762  0.00  0.00    -0.327 N 
ATOM     30  H   UNL     1       9.311  -3.131   8.153  0.00  0.00    +0.145 HD
ATOM     31  H   UNL     1       9.646  -2.404   9.630  0.00  0.00    +0.145 HD
ENDBRANCH  26  27
ENDBRANCH  25  26
ENDBRANCH  22  25
ENDBRANCH  18  19
ENDBRANCH   3  18
TORSDOF 8
