REMARK  Name = ZINC20487801
REMARK  6 active torsions:
REMARK  status: ('A' for Active; 'I' for Inactive)
REMARK    1  A    between atoms: C_1  and  C_2
REMARK    2  A    between atoms: C_5  and  N_9
REMARK    3  A    between atoms: N_9  and  C_10
REMARK    4  A    between atoms: C_10  and  C_12
REMARK    5  A    between atoms: C_10  and  C_13
REMARK    6  A    between atoms: N_15  and  C_16
REMARK                            x       y       z     vdW  Elec       q    Type
REMARK                         _______ _______ _______ _____ _____    ______ ____
ROOT
ATOM      1  C   UNL     1       4.094   4.321   4.355  0.00  0.00    +0.044 C 
ATOM      2  C   UNL     1       2.983   3.438   3.850  0.00  0.00    -0.048 A 
ATOM      3  C   UNL     1       1.717   3.542   4.396  0.00  0.00    +0.020 A 
ATOM      4  C   UNL     1       0.695   2.733   3.936  0.00  0.00    +0.040 A 
ATOM      5  C   UNL     1       0.941   1.815   2.922  0.00  0.00    +0.056 A 
ATOM      6  C   UNL     1       2.215   1.710   2.379  0.00  0.00    +0.040 A 
ATOM      7  C   UNL     1       3.231   2.525   2.841  0.00  0.00    +0.020 A 
ATOM      8 BR   UNL     1       2.558   0.457   1.005  0.00  0.00    -0.048 Br
ATOM      9 BR   UNL     1      -1.036   2.877   4.683  0.00  0.00    -0.048 Br
ENDROOT
BRANCH   5  10
ATOM     10  N   UNL     1      -0.090   0.996   2.454  0.00  0.00    -0.331 N 
ATOM     11  H   UNL     1      -0.295  -0.060   2.686  0.00  0.00    +0.147 HD
BRANCH  10  12
ATOM     12  C   UNL     1      -0.969   1.729   1.533  0.00  0.00    +0.154 C 
ATOM     13  C   UNL     1      -0.372   1.697   0.125  0.00  0.00    +0.038 C 
BRANCH  12  14
ATOM     14  C   UNL     1      -2.330   1.083   1.516  0.00  0.00    +0.233 C 
ATOM     15  O   UNL     1      -2.547   0.108   2.204  0.00  0.00    -0.274 OA
ATOM     16  N   UNL     1      -3.307   1.589   0.737  0.00  0.00    -0.317 N 
ATOM     17  C   UNL     1      -4.630   0.962   0.721  0.00  0.00    +0.128 C 
ATOM     18  H   UNL     1      -3.110   2.474   0.113  0.00  0.00    +0.148 HD
ENDBRANCH  12  14
ENDBRANCH  10  12
ENDBRANCH   5  10
TORSDOF 3
