REMARK  Name = ZINC39395720
REMARK  6 active torsions:
REMARK  status: ('A' for Active; 'I' for Inactive)
REMARK    1  A    between atoms: C_1  and  C_2
REMARK    2  A    between atoms: C_4  and  S_10
REMARK    3  A    between atoms: S_10  and  C_11
REMARK    4  A    between atoms: C_11  and  C_12
REMARK    5  A    between atoms: N_14  and  C_15
REMARK    6  A    between atoms: C_19  and  C_21
REMARK                            x       y       z     vdW  Elec       q    Type
REMARK                         _______ _______ _______ _____ _____    ______ ____
ROOT
ATOM      1  C   UNL     1      -2.050  -4.769  -0.014  0.00  0.00    +0.171 C 
ENDROOT
BRANCH   1   2
ATOM      2  C   UNL     1      -3.237  -5.698  -0.013  0.00  0.00    +0.225 C 
ATOM      3  O   UNL     1      -4.362  -5.244  -0.004  0.00  0.00    -0.275 OA
ATOM      4  N   UNL     1      -3.049  -7.032  -0.021  0.00  0.00    -0.287 N 
ATOM      5  H   UNL     1      -2.149  -7.395  -0.027  0.00  0.00    +0.151 HD
BRANCH   4   6
ATOM      6  C   UNL     1      -4.202  -7.935  -0.020  0.00  0.00    +0.241 C 
ATOM      7  N   UNL     1      -3.794  -9.332  -0.289  0.00  0.00    -0.238 N 
ATOM      8  N   UNL     1      -4.050 -10.224   0.729  0.00  0.00    -0.183 NA
ATOM      9  C   UNL     1      -4.604  -9.889   1.845  0.00  0.00    +0.092 C 
ATOM     10  S   UNL     1      -4.896  -8.135   1.674  0.00  0.00    -0.066 S 
ATOM     11  C   UNL     1      -4.930 -10.774   3.021  0.00  0.00    +0.075 C 
ATOM     12  H   UNL     1      -3.377  -9.601  -1.123  0.00  0.00    +0.171 HD
ENDBRANCH   4   6
ENDBRANCH   1   2
BRANCH   1  13
ATOM     13  S   UNL     1      -2.627  -3.050  -0.001  0.00  0.00    -0.098 S 
BRANCH  13  17
ATOM     14  C   UNL     1      -0.018   1.503   0.010  0.00  0.00    +0.066 C 
ATOM     15  C   UNL     1       0.002  -0.004   0.002  0.00  0.00    +0.046 A 
ATOM     16  C   UNL     1      -1.189  -0.714   0.004  0.00  0.00    +0.056 A 
ATOM     17  C   UNL     1      -1.142  -2.102  -0.004  0.00  0.00    +0.079 A 
ATOM     18  N   UNL     1       0.078  -2.719  -0.013  0.00  0.00    -0.301 N 
ATOM     19  H   UNL     1       0.132  -3.687  -0.019  0.00  0.00    +0.171 HD
ATOM     20  C   UNL     1       1.204  -1.980  -0.014  0.00  0.00    +0.347 A 
ATOM     21  O   UNL     1       2.287  -2.541  -0.023  0.00  0.00    -0.245 OA
ATOM     22  N   UNL     1       1.156  -0.650  -0.013  0.00  0.00    -0.198 NA
ENDBRANCH  13  17
ENDBRANCH   1  13
TORSDOF 4
