REMARK  Name = ZINC39780278
REMARK  8 active torsions:
REMARK  status: ('A' for Active; 'I' for Inactive)
REMARK    1  A    between atoms: C_1  and  C_2
REMARK    2  A    between atoms: C_11  and  S_21
REMARK    3  A    between atoms: N_13  and  C_14
REMARK    4  A    between atoms: C_14  and  C_15
REMARK    5  A    between atoms: S_21  and  C_22
REMARK    6  A    between atoms: C_22  and  C_24
REMARK    7  A    between atoms: C_22  and  C_25
REMARK    8  A    between atoms: C_25  and  C_27
REMARK                            x       y       z     vdW  Elec       q    Type
REMARK                         _______ _______ _______ _____ _____    ______ ____
ROOT
ATOM      1  C   UNL     1      -0.404  -0.205  -2.315  0.00  0.00    +0.007 C 
ATOM      2  C   UNL     1      -0.294  -0.561  -0.831  0.00  0.00    -0.011 C 
ATOM      3  C   UNL     1       0.494  -1.864  -0.676  0.00  0.00    +0.022 C 
ATOM      4  C   UNL     1       0.632  -2.199   0.812  0.00  0.00    +0.108 C 
ATOM      5  N   UNL     1      -0.707  -2.228   1.416  0.00  0.00    -0.304 N 
ATOM      6  C   UNL     1      -1.583  -1.060   1.250  0.00  0.00    +0.108 C 
ATOM      7  C   UNL     1      -1.696  -0.738  -0.244  0.00  0.00    +0.022 C 
ATOM      8  C   UNL     1      -1.136  -3.337   2.131  0.00  0.00    +0.178 C 
ATOM      9  N   UNL     1      -2.334  -3.811   2.079  0.00  0.00    -0.283 N 
ATOM     10  N   UNL     1      -2.479  -4.933   2.903  0.00  0.00    -0.259 N 
ATOM     11  C   UNL     1      -1.166  -5.150   3.535  0.00  0.00    +0.236 C 
ATOM     12  N   UNL     1      -0.327  -4.073   2.982  0.00  0.00    -0.273 N 
ATOM     13  H   UNL     1      -3.283  -5.461   3.033  0.00  0.00    +0.169 HD
ATOM     14  H   UNL     1      -3.046  -3.436   1.536  0.00  0.00    +0.187 HD
ENDROOT
BRANCH  12  15
ATOM     15  C   UNL     1       1.087  -3.826   3.277  0.00  0.00    +0.142 C 
BRANCH  15  16
ATOM     16  C   UNL     1       1.202  -2.761   4.369  0.00  0.00    +0.136 C 
ATOM     17  C   UNL     1       2.686  -2.407   4.602  0.00  0.00    +0.035 C 
ATOM     18  C   UNL     1       2.748  -2.244   6.145  0.00  0.00    +0.031 C 
ATOM     19  C   UNL     1       1.717  -3.310   6.595  0.00  0.00    +0.160 C 
ATOM     20  O   UNL     1       0.678  -3.270   5.602  0.00  0.00    -0.375 OA
ENDBRANCH  15  16
ENDBRANCH  12  15
BRANCH  11  21
ATOM     21  S   UNL     1      -1.296  -5.008   5.338  0.00  0.00    -0.107 S 
BRANCH  21  22
ATOM     22  C   UNL     1      -1.938  -3.331   5.601  0.00  0.00    +0.117 C 
ATOM     23  C   UNL     1      -3.350  -3.229   5.021  0.00  0.00    +0.027 C 
BRANCH  22  24
ATOM     24  C   UNL     1      -1.979  -3.035   7.078  0.00  0.00    +0.174 C 
ATOM     25  O   UNL     1      -2.061  -3.946   7.878  0.00  0.00    -0.291 OA
BRANCH  24  26
ATOM     26  C   UNL     1      -1.923  -1.700   7.532  0.00  0.00    +0.024 C 
ATOM     27  C   UNL     1      -1.944  -1.261   8.844  0.00  0.00    +0.006 A 
ATOM     28  C   UNL     1      -2.024  -1.937  10.084  0.00  0.00    +0.010 A 
ATOM     29  C   UNL     1      -2.026  -1.239  11.242  0.00  0.00    +0.001 A 
ATOM     30  C   UNL     1      -1.951   0.162  11.277  0.00  0.00    +0.002 A 
ATOM     31  C   UNL     1      -1.873   0.902  10.150  0.00  0.00    +0.026 A 
ATOM     32  C   UNL     1      -1.864   0.220   8.845  0.00  0.00    +0.043 A 
ATOM     33  N   UNL     1      -1.797   0.675   7.627  0.00  0.00    -0.380 N 
ATOM     34  C   UNL     1      -1.820  -0.450   6.687  0.00  0.00    +0.152 C 
ATOM     35  H   UNL     1      -1.738   1.611   7.380  0.00  0.00    +0.160 HD
ENDBRANCH  24  26
ENDBRANCH  22  24
ENDBRANCH  21  22
ENDBRANCH  11  21
TORSDOF 6
