REMARK  Name = ZINC55167683
REMARK  4 active torsions:
REMARK  status: ('A' for Active; 'I' for Inactive)
REMARK    1  A    between atoms: C_3  and  C_7
REMARK    2  A    between atoms: C_7  and  N_8
REMARK    3  A    between atoms: N_8  and  C_9
REMARK    4  A    between atoms: C_15  and  C_17
REMARK                            x       y       z     vdW  Elec       q    Type
REMARK                         _______ _______ _______ _____ _____    ______ ____
ROOT
ATOM      1  N   UNL     1       4.083  -0.332  -1.364  0.00  0.00    -0.289 N 
ATOM      2  C   UNL     1       4.140  -1.674  -1.251  0.00  0.00    +0.286 C 
ATOM      3  O   UNL     1       3.572  -2.231  -0.332  0.00  0.00    -0.267 OA
ENDROOT
BRANCH   2   4
ATOM      4  C   UNL     1       4.893  -2.468  -2.245  0.00  0.00    +0.238 A 
ATOM      5  N   UNL     1       4.982  -3.808  -2.269  0.00  0.00    -0.190 NA
ATOM      6  C   UNL     1       5.726  -4.184  -3.283  0.00  0.00    +0.209 A 
ATOM      7  N   UNL     1       6.134  -3.072  -3.938  0.00  0.00    -0.246 N 
ATOM      8  H   UNL     1       6.696  -3.038  -4.728  0.00  0.00    +0.192 HD
ATOM      9  N   UNL     1       5.580  -1.979  -3.254  0.00  0.00    -0.146 NA
ATOM     10  N   UNL     1       6.038  -5.487  -3.622  0.00  0.00    -0.328 N 
ATOM     11  H   UNL     1       5.697  -6.222  -3.089  0.00  0.00    +0.145 HD
ATOM     12  H   UNL     1       6.599  -5.667  -4.393  0.00  0.00    +0.145 HD
ENDBRANCH   2   4
BRANCH   1  13
ATOM     13  C   UNL     1       4.722   0.335  -2.501  0.00  0.00    +0.087 C 
ATOM     14  C   UNL     1       4.264   1.792  -2.534  0.00  0.00    +0.034 C 
ATOM     15  C   UNL     1       5.231   2.680  -1.701  0.00  0.00    +0.071 C 
ATOM     16  S   UNL     1       6.840   1.905  -2.169  0.00  0.00    -0.159 S 
ATOM     17  C   UNL     1       6.250   0.177  -2.372  0.00  0.00    +0.091 C 
ENDBRANCH   1  13
BRANCH   1  18
ATOM     18  C   UNL     1       3.383   0.459  -0.349  0.00  0.00    +0.140 C 
BRANCH  18  21
ATOM     19  C   UNL     1      -0.283   1.082   0.073  0.00  0.00    +0.031 C 
ATOM     20  C   UNL     1       1.185   1.558   0.243  0.00  0.00    +0.035 C 
ATOM     21  C   UNL     1       1.915   0.620  -0.751  0.00  0.00    +0.136 C 
ATOM     22  O   UNL     1       1.229  -0.638  -0.652  0.00  0.00    -0.375 OA
ATOM     23  C   UNL     1      -0.109  -0.430  -0.186  0.00  0.00    +0.160 C 
ENDBRANCH  18  21
ENDBRANCH   1  18
TORSDOF 4
