REMARK  Name = ZINC38735945
REMARK  10 active torsions:
REMARK  status: ('A' for Active; 'I' for Inactive)
REMARK    1  A    between atoms: C_1  and  C_2
REMARK    2  A    between atoms: C_2  and  C_3
REMARK    3  A    between atoms: C_3  and  C_4
REMARK    4  A    between atoms: C_7  and  C_10
REMARK    5  A    between atoms: C_10  and  C_12
REMARK    6  A    between atoms: C_10  and  N_15
REMARK    7  A    between atoms: C_12  and  C_13
REMARK    8  A    between atoms: C_12  and  C_14
REMARK    9  A    between atoms: N_15  and  S_16
REMARK   10  A    between atoms: S_16  and  C_19
REMARK                            x       y       z     vdW  Elec       q    Type
REMARK                         _______ _______ _______ _____ _____    ______ ____
ROOT
ATOM      1  S   UNL     1       0.901  -7.764   0.321  0.00  0.00    +0.059 S 
ATOM      2  O   UNL     1       1.649  -8.180   1.456  0.00  0.00    -0.153 OA
ATOM      3  O   UNL     1       0.446  -8.678  -0.667  0.00  0.00    -0.153 OA
ENDROOT
BRANCH   1   4
ATOM      4  C   UNL     1       1.883  -6.565  -0.517  0.00  0.00    +0.107 A 
ATOM      5  C   UNL     1       1.665  -6.342  -1.892  0.00  0.00    +0.030 A 
ATOM      6  C   UNL     1       2.385  -5.436  -2.592  0.00  0.00    +0.027 A 
ATOM      7  C   UNL     1       3.392  -4.681  -1.935  0.00  0.00    +0.055 A 
ATOM      8  N   UNL     1       4.107  -3.793  -2.591  0.00  0.00    -0.276 N 
ATOM      9  C   UNL     1       5.058  -3.087  -1.946  0.00  0.00    +0.304 C 
ATOM     10  O   UNL     1       5.722  -2.265  -2.545  0.00  0.00    -0.265 OA
ATOM     11  C   UNL     1       5.289  -3.323  -0.487  0.00  0.00    +0.304 C 
ATOM     12  O   UNL     1       6.142  -2.695   0.107  0.00  0.00    -0.265 OA
ATOM     13  N   UNL     1       4.543  -4.239   0.165  0.00  0.00    -0.276 N 
ATOM     14  C   UNL     1       3.621  -4.916  -0.486  0.00  0.00    +0.057 A 
ATOM     15  C   UNL     1       2.820  -5.881   0.178  0.00  0.00    +0.053 A 
ATOM     16  H   UNL     1       4.687  -4.399   1.111  0.00  0.00    +0.155 HD
ATOM     17  H   UNL     1       3.951  -3.646  -3.538  0.00  0.00    +0.155 HD
ENDBRANCH   1   4
BRANCH   1  18
ATOM     18  N   UNL     1      -0.440  -6.983   0.897  0.00  0.00    -0.182 NA
ATOM     19  H   UNL     1      -0.582  -6.904   1.853  0.00  0.00    +0.149 HD
BRANCH  18  20
ATOM     20  C   UNL     1      -1.413  -6.412  -0.037  0.00  0.00    +0.109 C 
BRANCH  20  24
ATOM     21  C   UNL     1      -1.389  -2.154   0.306  0.00  0.00    -0.047 A 
ATOM     22  C   UNL     1      -1.496  -2.746  -0.938  0.00  0.00    +0.004 A 
ATOM     23  C   UNL     1      -1.503  -4.124  -1.049  0.00  0.00    +0.005 A 
ATOM     24  C   UNL     1      -1.404  -4.910   0.084  0.00  0.00    -0.029 A 
ATOM     25  C   UNL     1      -1.297  -4.317   1.328  0.00  0.00    +0.005 A 
ATOM     26  C   UNL     1      -1.285  -2.939   1.439  0.00  0.00    +0.004 A 
BRANCH  21  27
ATOM     27  C   UNL     1      -1.381  -0.652   0.427  0.00  0.00    +0.035 C 
BRANCH  27  29
ATOM     28  C   UNL     1       0.066   1.384   0.461  0.00  0.00    +0.004 C 
ATOM     29  C   UNL     1       0.058  -0.141   0.338  0.00  0.00    +0.001 C 
ENDBRANCH  27  29
ENDBRANCH  21  27
ENDBRANCH  20  24
BRANCH  20  30
ATOM     30  C   UNL     1      -2.810  -6.942   0.293  0.00  0.00    +0.006 C 
ATOM     31  C   UNL     1      -3.807  -6.439  -0.752  0.00  0.00    +0.009 C 
ATOM     32  C   UNL     1      -2.790  -8.472   0.285  0.00  0.00    +0.009 C 
ENDBRANCH  20  30
ENDBRANCH  18  20
ENDBRANCH   1  18
TORSDOF 7
