REMARK  Name = ZINC55091729
REMARK  4 active torsions:
REMARK  status: ('A' for Active; 'I' for Inactive)
REMARK    1  A    between atoms: C_1  and  C_2
REMARK    2  A    between atoms: C_7  and  C_12
REMARK    3  A    between atoms: C_9  and  N_11
REMARK    4  A    between atoms: N_14  and  C_15
REMARK                            x       y       z     vdW  Elec       q    Type
REMARK                         _______ _______ _______ _____ _____    ______ ____
ROOT
ATOM      1  C   UNL     1      -0.159   1.614   0.474  0.00  0.00    +0.006 C 
ATOM      2  C   UNL     1      -0.255   0.113   0.198  0.00  0.00    -0.028 C 
ATOM      3  C   UNL     1      -1.678  -0.369   0.485  0.00  0.00    +0.002 C 
ATOM      4  C   UNL     1      -2.022  -0.098   1.951  0.00  0.00    +0.001 C 
ATOM      5  C   UNL     1      -1.038  -0.847   2.853  0.00  0.00    +0.011 C 
ATOM      6  C   UNL     1       0.385  -0.365   2.565  0.00  0.00    +0.061 C 
ATOM      7  C   UNL     1       0.729  -0.636   1.099  0.00  0.00    -0.060 C 
ENDROOT
BRANCH   7   8
ATOM      8  N   UNL     1       2.096  -0.173   0.823  0.00  0.00    +0.381 N 
ATOM      9  H   UNL     1       2.127   0.834   0.875  0.00  0.00    -0.090 HD
ATOM     10  H   UNL     1       2.728  -0.565   1.505  0.00  0.00    -0.090 HD
ATOM     11  H   UNL     1       2.371  -0.471  -0.101  0.00  0.00    -0.090 HD
ENDBRANCH   7   8
BRANCH   6  12
ATOM     12  C   UNL     1       0.480   1.114   2.838  0.00  0.00    +0.215 C 
ATOM     13  O   UNL     1      -0.502   1.728   3.200  0.00  0.00    -0.276 OA
ATOM     14  N   UNL     1       1.655   1.755   2.679  0.00  0.00    -0.312 N 
ATOM     15  H   UNL     1       2.451   1.256   2.441  0.00  0.00    +0.149 HD
BRANCH  14  16
ATOM     16  C   UNL     1       1.728   3.206   2.867  0.00  0.00    +0.073 C 
ATOM     17  C   UNL     1       1.337   3.909   1.565  0.00  0.00    +0.022 C 
ATOM     18  C   UNL     1       1.414   5.425   1.761  0.00  0.00    +0.002 C 
ATOM     19  C   UNL     1       2.843   5.817   2.143  0.00  0.00    +0.000 C 
ATOM     20  C   UNL     1       3.234   5.115   3.445  0.00  0.00    +0.002 C 
ATOM     21  C   UNL     1       3.157   3.599   3.249  0.00  0.00    +0.022 C 
ENDBRANCH  14  16
ENDBRANCH   6  12
TORSDOF 3
