REMARK  Name = ZINC04815009
REMARK  5 active torsions:
REMARK  status: ('A' for Active; 'I' for Inactive)
REMARK    1  A    between atoms: C_1  and  C_2
REMARK    2  A    between atoms: C_2  and  C_3
REMARK    3  A    between atoms: C_5  and  C_18
REMARK    4  A    between atoms: N_8  and  N_9
REMARK    5  A    between atoms: C_14  and  C_17
REMARK                            x       y       z     vdW  Elec       q    Type
REMARK                         _______ _______ _______ _____ _____    ______ ____
ROOT
ATOM      1  C   UNL     1       1.622   3.588  -0.802  0.00  0.00    +0.055 C 
ATOM      2  C   UNL     1       0.536   3.851  -1.850  0.00  0.00    +0.045 C 
ATOM      3  C   UNL     1      -0.720   3.114  -1.465  0.00  0.00    +0.042 C 
ATOM      4  N   UNL     1      -1.786   3.771  -1.196  0.00  0.00    -0.188 NA
ATOM      5  C   UNL     1      -0.731   1.609  -1.395  0.00  0.00    +0.066 C 
ATOM      6  C   UNL     1       0.240   1.143  -0.305  0.00  0.00    +0.049 C 
ATOM      7  S   UNL     1       1.895   1.796  -0.674  0.00  0.00    -0.153 S 
ATOM      8  C   UNL     1      -0.225   1.664   1.056  0.00  0.00    +0.019 C 
ATOM      9  C   UNL     1       1.017   3.360  -3.217  0.00  0.00    +0.015 C 
ENDROOT
BRANCH   4  10
ATOM     10  N   UNL     1      -1.744   5.169  -1.113  0.00  0.00    -0.191 N 
ATOM     11  C   UNL     1      -2.884   5.867  -0.938  0.00  0.00    +0.317 C 
ATOM     12  O   UNL     1      -2.848   7.081  -0.867  0.00  0.00    -0.251 OA
ATOM     13  N   UNL     1      -4.062   5.221  -0.843  0.00  0.00    -0.312 N 
ATOM     14  H   UNL     1      -0.896   5.634  -1.181  0.00  0.00    +0.179 HD
ATOM     15  H   UNL     1      -4.091   4.253  -0.900  0.00  0.00    +0.147 HD
ATOM     16  H   UNL     1      -4.882   5.724  -0.717  0.00  0.00    +0.147 HD
ENDBRANCH   4  10
BRANCH   1  18
ATOM     17  C   UNL     1       3.971   4.104  -0.123  0.00  0.00    +0.005 C 
ATOM     18  C   UNL     1       2.922   4.275  -1.224  0.00  0.00    +0.011 C 
ENDBRANCH   1  18
TORSDOF 2
