REMARK  Name = ZINC39606930
REMARK  7 active torsions:
REMARK  status: ('A' for Active; 'I' for Inactive)
REMARK    1  A    between atoms: C_1  and  C_2
REMARK    2  A    between atoms: C_9  and  C_14
REMARK    3  A    between atoms: C_14  and  O_16
REMARK    4  A    between atoms: O_16  and  C_17
REMARK    5  A    between atoms: C_17  and  C_18
REMARK    6  A    between atoms: C_20  and  O_21
REMARK    7  A    between atoms: C_30  and  C_32
REMARK                            x       y       z     vdW  Elec       q    Type
REMARK                         _______ _______ _______ _____ _____    ______ ____
ROOT
ATOM      1  C   UNL     1       0.096  -8.376   1.965  0.00  0.00    +0.269 C 
ENDROOT
BRANCH   1   2
ATOM      2  C   UNL     1       0.785  -9.513   2.674  0.00  0.00    +0.007 A 
ATOM      3  C   UNL     1       0.902  -9.520   4.049  0.00  0.00    +0.095 A 
ATOM      4  C   UNL     1       1.540 -10.576   4.684  0.00  0.00    +0.285 A 
ATOM      5  O   UNL     1       2.049 -11.600   3.991  0.00  0.00    -0.425 OA
ATOM      6  C   UNL     1       1.963 -11.643   2.646  0.00  0.00    +0.141 A 
ATOM      7  C   UNL     1       1.320 -10.598   1.947  0.00  0.00    +0.024 A 
ATOM      8  C   UNL     1       1.223 -10.643   0.545  0.00  0.00    +0.014 A 
ATOM      9  C   UNL     1       1.744 -11.695  -0.138  0.00  0.00    +0.024 A 
ATOM     10  C   UNL     1       2.381 -12.743   0.549  0.00  0.00    +0.037 A 
ATOM     11  C   UNL     1       2.495 -12.708   1.940  0.00  0.00    +0.070 A 
ATOM     12  N   UNL     1       2.900 -13.793  -0.146  0.00  0.00    -0.286 N 
ATOM     13  C   UNL     1       3.212 -14.910   0.482  0.00  0.00    +0.214 C 
ATOM     14  O   UNL     1       2.925 -15.048   1.658  0.00  0.00    -0.276 OA
ATOM     15  C   UNL     1       3.924 -16.014  -0.256  0.00  0.00    +0.109 C 
ATOM     16  H   UNL     1       3.039 -13.719  -1.103  0.00  0.00    +0.155 HD
BRANCH   4  17
ATOM     17  O   UNL     1       1.647 -10.570   6.027  0.00  0.00    -0.480 OA
ATOM     18  H   UNL     1       2.104 -11.342   6.388  0.00  0.00    +0.295 HD
ENDBRANCH   4  17
ENDBRANCH   1   2
BRANCH   1  19
ATOM     19  O   UNL     1       0.711  -7.141   2.338  0.00  0.00    -0.456 OA
BRANCH  19  20
ATOM     20  C   UNL     1       0.145  -6.010   1.869  0.00  0.00    +0.340 C 
ATOM     21  O   UNL     1      -0.893  -6.066   1.240  0.00  0.00    -0.245 OA
BRANCH  20  29
ATOM     22  C   UNL     1       2.624   1.705   1.566  0.00  0.00    +0.029 C 
ATOM     23  C   UNL     1       2.391   0.209   1.345  0.00  0.00    +0.134 C 
ATOM     24  C   UNL     1       0.951  -0.028   0.981  0.00  0.00    +0.230 C 
ATOM     25  O   UNL     1       0.336   0.876   0.457  0.00  0.00    -0.274 OA
ATOM     26  N   UNL     1       0.315  -1.176   1.201  0.00  0.00    -0.284 N 
ATOM     27  C   UNL     1       0.858  -2.321   1.778  0.00  0.00    +0.048 A 
ATOM     28  C   UNL     1       0.258  -3.549   1.545  0.00  0.00    +0.039 A 
ATOM     29  C   UNL     1       0.786  -4.707   2.119  0.00  0.00    +0.061 A 
ATOM     30  C   UNL     1       1.923  -4.633   2.932  0.00  0.00    +0.016 A 
ATOM     31  C   UNL     1       2.520  -3.414   3.162  0.00  0.00    +0.017 A 
ATOM     32  C   UNL     1       1.996  -2.263   2.589  0.00  0.00    +0.030 A 
ATOM     33  S   UNL     1       2.770  -0.700   2.873  0.00  0.00    -0.111 S 
ATOM     34  H   UNL     1      -0.617  -1.219   0.934  0.00  0.00    +0.155 HD
ENDBRANCH  20  29
ENDBRANCH  19  20
ENDBRANCH   1  19
TORSDOF 5
