REMARK  Name = ZINC20701162
REMARK  4 active torsions:
REMARK  status: ('A' for Active; 'I' for Inactive)
REMARK    1  A    between atoms: C_6  and  S_7
REMARK    2  A    between atoms: S_7  and  N_10
REMARK    3  A    between atoms: C_18  and  C_21
REMARK    4  A    between atoms: C_26  and  O_27
REMARK                            x       y       z     vdW  Elec       q    Type
REMARK                         _______ _______ _______ _____ _____    ______ ____
ROOT
ATOM      1  C   UNL     1      -3.243   0.093  -1.179  0.00  0.00    +0.030 A 
ATOM      2  C   UNL     1      -4.245  -0.856  -1.183  0.00  0.00    +0.025 A 
ATOM      3  C   UNL     1      -4.754  -1.343   0.014  0.00  0.00    +0.031 A 
ATOM      4  C   UNL     1      -4.226  -0.873   1.222  0.00  0.00    -0.018 A 
ATOM      5  C   UNL     1      -3.228   0.076   1.215  0.00  0.00    +0.034 A 
ATOM      6  C   UNL     1      -2.733   0.560   0.018  0.00  0.00    +0.105 A 
ATOM      7  C   UNL     1      -4.767  -1.449   2.473  0.00  0.00    +0.049 C 
ATOM      8  C   UNL     1      -4.743  -0.726   3.780  0.00  0.00    -0.023 C 
ATOM      9  C   UNL     1      -5.809  -1.073   4.491  0.00  0.00    -0.030 C 
ATOM     10  C   UNL     1      -6.661  -2.070   3.703  0.00  0.00    +0.033 C 
ATOM     11  C   UNL     1      -6.285  -1.721   2.256  0.00  0.00    +0.029 C 
ATOM     12  C   UNL     1      -6.355  -2.841   1.234  0.00  0.00    +0.109 C 
ATOM     13  N   UNL     1      -5.797  -2.277  -0.015  0.00  0.00    -0.336 N 
ATOM     14  H   UNL     1      -6.201  -2.590  -0.989  0.00  0.00    +0.147 HD
ENDROOT
BRANCH  12  15
ATOM     15  C   UNL     1      -7.785  -3.265   1.019  0.00  0.00    +0.017 A 
ATOM     16  C   UNL     1      -8.511  -2.743  -0.035  0.00  0.00    +0.029 A 
ATOM     17  C   UNL     1      -9.822  -3.136  -0.236  0.00  0.00    +0.043 A 
ATOM     18  C   UNL     1     -10.413  -4.045   0.624  0.00  0.00    +0.043 A 
ATOM     19  C   UNL     1      -9.693  -4.566   1.682  0.00  0.00    +0.084 A 
ATOM     20  C   UNL     1      -8.375  -4.176   1.882  0.00  0.00    +0.140 A 
ATOM     21 CL   UNL     1     -10.435  -5.706   2.761  0.00  0.00    -0.080 Cl
ATOM     22 CL   UNL     1     -10.729  -2.482  -1.564  0.00  0.00    -0.083 Cl
BRANCH  20  23
ATOM     23  O   UNL     1      -7.665  -4.687   2.922  0.00  0.00    -0.505 OA
ATOM     24  H   UNL     1      -8.134  -5.410   3.606  0.00  0.00    +0.292 HD
ENDBRANCH  20  23
ENDBRANCH  12  15
BRANCH   6  25
ATOM     25  S   UNL     1      -1.456   1.774   0.019  0.00  0.00    +0.056 S 
ATOM     26  O   UNL     1      -1.536   2.446   1.268  0.00  0.00    -0.153 OA
ATOM     27  O   UNL     1      -1.548   2.460  -1.223  0.00  0.00    -0.153 OA
BRANCH  25  28
ATOM     28  N   UNL     1      -0.011   0.966   0.007  0.00  0.00    -0.204 NA
ATOM     29  H   UNL     1       0.815   1.692   0.007  0.00  0.00    +0.144 HD
ATOM     30  H   UNL     1       0.051   0.339  -0.894  0.00  0.00    +0.144 HD
ENDBRANCH  25  28
ENDBRANCH   6  25
TORSDOF 4
