REMARK  Name = ZINC09395386
REMARK  11 active torsions:
REMARK  status: ('A' for Active; 'I' for Inactive)
REMARK    1  A    between atoms: C_1  and  C_2
REMARK    2  A    between atoms: C_4  and  C_16
REMARK    3  A    between atoms: C_5  and  C_15
REMARK    4  A    between atoms: N_6  and  C_7
REMARK    5  A    between atoms: C_17  and  C_18
REMARK    6  A    between atoms: C_17  and  C_20
REMARK    7  A    between atoms: C_20  and  O_22
REMARK    8  A    between atoms: O_22  and  C_23
REMARK    9  A    between atoms: C_23  and  C_25
REMARK   10  A    between atoms: C_23  and  C_26
REMARK   11  A    between atoms: N_31  and  C_32
REMARK                            x       y       z     vdW  Elec       q    Type
REMARK                         _______ _______ _______ _____ _____    ______ ____
ROOT
ATOM      1  C   UNL     1       6.362   3.782  -1.582  0.00  0.00    +0.035 C 
ATOM      2  C   UNL     1       7.400   4.512  -1.033  0.00  0.00    +0.136 C 
ENDROOT
BRANCH   1   6
ATOM      3  C   UNL     1       3.404   2.851   2.406  0.00  0.00    +0.064 C 
ATOM      4  C   UNL     1       4.050   2.821   1.044  0.00  0.00    +0.022 A 
ATOM      5  C   UNL     1       5.073   3.598   0.651  0.00  0.00    +0.031 A 
ATOM      6  C   UNL     1       5.364   3.228  -0.742  0.00  0.00    -0.003 A 
ATOM      7  C   UNL     1       4.463   2.226  -1.064  0.00  0.00    +0.028 A 
ATOM      8  N   UNL     1       3.691   1.995   0.015  0.00  0.00    -0.316 N 
ATOM      9  C   UNL     1       4.364   1.518  -2.391  0.00  0.00    +0.064 C 
BRANCH   8  10
ATOM     10  C   UNL     1       2.660   1.046   0.074  0.00  0.00    +0.066 A 
ATOM     11  C   UNL     1       2.932  -0.251   0.486  0.00  0.00    +0.028 A 
ATOM     12  C   UNL     1       1.914  -1.184   0.543  0.00  0.00    +0.004 A 
ATOM     13  C   UNL     1       0.626  -0.828   0.190  0.00  0.00    +0.021 A 
ATOM     14  C   UNL     1       0.351   0.465  -0.222  0.00  0.00    +0.061 A 
ATOM     15  C   UNL     1       1.365   1.403  -0.281  0.00  0.00    +0.083 A 
ATOM     16 CL   UNL     1       1.021   3.024  -0.798  0.00  0.00    -0.080 Cl
ATOM     17 CL   UNL     1      -1.267   0.906  -0.671  0.00  0.00    -0.082 Cl
ENDBRANCH   8  10
ENDBRANCH   1   6
BRANCH   2  18
ATOM     18  C   UNL     1       7.550   4.586   0.389  0.00  0.00    +0.106 C 
ATOM     19  N   UNL     1       7.669   4.644   1.517  0.00  0.00    -0.191 NA
ENDBRANCH   2  18
BRANCH   2  20
ATOM     20  C   UNL     1       8.348   5.212  -1.909  0.00  0.00    +0.350 C 
ATOM     21  O   UNL     1       8.220   5.149  -3.116  0.00  0.00    -0.244 OA
BRANCH  20  22
ATOM     22  O   UNL     1       9.361   5.924  -1.374  0.00  0.00    -0.448 OA
BRANCH  22  23
ATOM     23  C   UNL     1      10.259   6.589  -2.300  0.00  0.00    +0.259 C 
ATOM     24  C   UNL     1       9.736   7.996  -2.597  0.00  0.00    +0.062 C 
BRANCH  23  25
ATOM     25  C   UNL     1      11.633   6.684  -1.686  0.00  0.00    +0.261 C 
ATOM     26  O   UNL     1      11.834   6.234  -0.578  0.00  0.00    -0.271 OA
ATOM     27  N   UNL     1      12.637   7.267  -2.369  0.00  0.00    -0.237 N 
ATOM     28  C   UNL     1      13.865   7.352  -1.820  0.00  0.00    +0.306 C 
ATOM     29  O   UNL     1      14.067   6.902  -0.709  0.00  0.00    -0.252 OA
ATOM     30  N   UNL     1      14.870   7.936  -2.503  0.00  0.00    -0.302 N 
ATOM     31  C   UNL     1      16.205   8.028  -1.907  0.00  0.00    +0.129 C 
ATOM     32  H   UNL     1      12.476   7.627  -3.255  0.00  0.00    +0.159 HD
ATOM     33  H   UNL     1      14.709   8.295  -3.390  0.00  0.00    +0.150 HD
ENDBRANCH  23  25
ENDBRANCH  22  23
ENDBRANCH  20  22
ENDBRANCH   2  20
TORSDOF 7
