REMARK  Name = ZINC07713283
REMARK  8 active torsions:
REMARK  status: ('A' for Active; 'I' for Inactive)
REMARK    1  A    between atoms: C_1  and  C_2
REMARK    2  A    between atoms: C_2  and  C_3
REMARK    3  A    between atoms: C_3  and  N_4
REMARK    4  A    between atoms: N_9  and  C_12
REMARK    5  A    between atoms: C_16  and  C_17
REMARK    6  A    between atoms: C_20  and  O_24
REMARK    7  A    between atoms: C_21  and  O_23
REMARK    8  A    between atoms: O_24  and  C_25
REMARK                            x       y       z     vdW  Elec       q    Type
REMARK                         _______ _______ _______ _____ _____    ______ ____
ROOT
ATOM      1  N   UNL     1      -3.495  -3.276   0.306  0.00  0.00    -0.281 N 
ATOM      2  C   UNL     1      -2.123  -3.310   0.237  0.00  0.00    +0.123 A 
ATOM      3  C   UNL     1      -1.488  -4.554   0.293  0.00  0.00    +0.126 A 
ATOM      4  C   UNL     1      -2.304  -5.759   0.423  0.00  0.00    +0.269 A 
ATOM      5  O   UNL     1      -1.787  -6.860   0.475  0.00  0.00    -0.267 OA
ATOM      6  N   UNL     1      -3.647  -5.621   0.483  0.00  0.00    -0.263 N 
ATOM      7  C   UNL     1      -4.212  -4.404   0.425  0.00  0.00    +0.333 A 
ATOM      8  O   UNL     1      -5.423  -4.321   0.482  0.00  0.00    -0.246 OA
ATOM      9  C   UNL     1      -4.493  -6.810   0.614  0.00  0.00    +0.157 C 
ATOM     10  C   UNL     1      -0.048  -4.315   0.201  0.00  0.00    +0.216 C 
ATOM     11  O   UNL     1       0.846  -5.146   0.215  0.00  0.00    -0.285 OA
ATOM     12  C   UNL     1       0.089  -2.853   0.089  0.00  0.00    +0.081 C 
ATOM     13  C   UNL     1       1.248  -2.155  -0.021  0.00  0.00    +0.035 C 
ATOM     14  N   UNL     1      -1.199  -2.322   0.124  0.00  0.00    -0.297 N 
ATOM     15  H   UNL     1      -1.407  -1.377   0.072  0.00  0.00    +0.154 HD
ENDROOT
BRANCH  13  16
ATOM     16  C   UNL     1       1.214  -0.713  -0.296  0.00  0.00    -0.019 A 
ATOM     17  C   UNL     1       0.114  -0.150  -0.956  0.00  0.00    +0.012 A 
ATOM     18  C   UNL     1       0.084   1.203  -1.212  0.00  0.00    +0.050 A 
ATOM     19  C   UNL     1       1.142   2.011  -0.818  0.00  0.00    +0.161 A 
ATOM     20  C   UNL     1       2.241   1.458  -0.162  0.00  0.00    +0.159 A 
ATOM     21  C   UNL     1       2.280   0.103   0.100  0.00  0.00    +0.057 A 
BRANCH  20  22
ATOM     22  O   UNL     1       3.276   2.255   0.221  0.00  0.00    -0.503 OA
ATOM     23  H   UNL     1       3.969   2.346  -0.446  0.00  0.00    +0.292 HD
ENDBRANCH  20  22
BRANCH  19  24
ATOM     24  O   UNL     1       1.107   3.345  -1.075  0.00  0.00    -0.491 OA
ATOM     25  C   UNL     1      -0.048   3.845  -1.751  0.00  0.00    +0.277 C 
ENDBRANCH  19  24
ENDBRANCH  13  16
BRANCH   1  26
ATOM     26  C   UNL     1      -4.187  -1.986   0.250  0.00  0.00    +0.128 C 
BRANCH  26  28
ATOM     27  C   UNL     1      -5.075  -0.087   1.608  0.00  0.00    +0.005 C 
ATOM     28  C   UNL     1      -4.353  -1.434   1.667  0.00  0.00    +0.018 C 
ENDBRANCH  26  28
ENDBRANCH   1  26
TORSDOF 5
