REMARK  Name = ZINC38980780
REMARK  6 active torsions:
REMARK  status: ('A' for Active; 'I' for Inactive)
REMARK    1  A    between atoms: C_1  and  C_2
REMARK    2  A    between atoms: C_5  and  C_33
REMARK    3  A    between atoms: C_6  and  N_8
REMARK    4  A    between atoms: N_8  and  C_9
REMARK    5  A    between atoms: N_12  and  S_13
REMARK    6  A    between atoms: S_13  and  C_16
REMARK                            x       y       z     vdW  Elec       q    Type
REMARK                         _______ _______ _______ _____ _____    ______ ____
ROOT
ATOM      1  C   UNL     1       0.159  -2.076   3.661  0.00  0.00    +0.237 C 
ATOM      2  C   UNL     1      -0.836  -2.686   4.623  0.00  0.00    +0.192 C 
ATOM      3  N   UNL     1      -2.102  -2.722   4.328  0.00  0.00    -0.110 NA
ATOM      4  N   UNL     1      -0.393  -3.191   5.785  0.00  0.00    -0.226 NA
ATOM      5  C   UNL     1       0.883  -3.167   6.107  0.00  0.00    +0.089 A 
ATOM      6  C   UNL     1       1.316  -3.709   7.344  0.00  0.00    +0.030 A 
ATOM      7  C   UNL     1       2.624  -3.687   7.679  0.00  0.00    +0.002 A 
ATOM      8  C   UNL     1       3.613  -3.139   6.845  0.00  0.00    +0.002 A 
ATOM      9  C   UNL     1       3.309  -2.596   5.645  0.00  0.00    +0.027 A 
ATOM     10  C   UNL     1       1.906  -2.582   5.206  0.00  0.00    +0.063 A 
ATOM     11  N   UNL     1       1.576  -2.068   4.055  0.00  0.00    -0.359 N 
ATOM     12  H   UNL     1       2.251  -1.688   3.470  0.00  0.00    +0.162 HD
ENDROOT
BRANCH   3  13
ATOM     13  S   UNL     1      -3.181  -3.393   5.390  0.00  0.00    +0.103 S 
ATOM     14  O   UNL     1      -2.877  -4.779   5.457  0.00  0.00    -0.146 OA
ATOM     15  O   UNL     1      -3.192  -2.558   6.540  0.00  0.00    -0.146 OA
BRANCH  13  16
ATOM     16  C   UNL     1      -4.780  -3.263   4.660  0.00  0.00    +0.141 A 
ATOM     17  C   UNL     1      -5.460  -4.383   4.319  0.00  0.00    +0.031 A 
ATOM     18  C   UNL     1      -6.727  -4.319   3.740  0.00  0.00    +0.004 A 
ATOM     19  C   UNL     1      -7.332  -3.134   3.492  0.00  0.00    +0.031 A 
ATOM     20  C   UNL     1      -6.678  -1.916   3.824  0.00  0.00    +0.102 A 
ATOM     21  C   UNL     1      -5.355  -1.984   4.435  0.00  0.00    +0.127 A 
ATOM     22  N   UNL     1      -4.842  -0.783   4.707  0.00  0.00    -0.189 NA
ATOM     23  S   UNL     1      -5.950   0.281   4.231  0.00  0.00    +0.117 S 
ATOM     24  N   UNL     1      -7.115  -0.667   3.655  0.00  0.00    -0.191 NA
ENDBRANCH  13  16
ENDBRANCH   3  13
BRANCH   1  25
ATOM     25  N   UNL     1       0.051  -2.796   2.390  0.00  0.00    -0.318 N 
ATOM     26  H   UNL     1       0.097  -3.765   2.376  0.00  0.00    +0.148 HD
BRANCH  25  32
ATOM     27  C   UNL     1      -0.150   1.502   0.017  0.00  0.00    +0.044 C 
ATOM     28  C   UNL     1      -0.219  -0.003   0.018  0.00  0.00    -0.049 A 
ATOM     29  C   UNL     1      -0.450  -0.685  -1.163  0.00  0.00    +0.004 A 
ATOM     30  C   UNL     1      -0.515  -2.066  -1.167  0.00  0.00    +0.005 A 
ATOM     31  C   UNL     1      -0.349  -2.770   0.011  0.00  0.00    -0.030 A 
ATOM     32  C   UNL     1      -0.117  -2.088   1.198  0.00  0.00    +0.032 A 
ATOM     33  C   UNL     1      -0.047  -0.701   1.197  0.00  0.00    +0.026 A 
ATOM     34  C   UNL     1      -0.421  -4.275   0.006  0.00  0.00    +0.045 C 
ENDBRANCH  25  32
ENDBRANCH   1  25
TORSDOF 4
