REMARK  Name = ZINC04993686
REMARK  6 active torsions:
REMARK  status: ('A' for Active; 'I' for Inactive)
REMARK    1  A    between atoms: C_1  and  C_2
REMARK    2  A    between atoms: C_7  and  N_8
REMARK    3  A    between atoms: C_9  and  C_11
REMARK    4  A    between atoms: C_11  and  S_12
REMARK    5  A    between atoms: S_12  and  C_13
REMARK    6  A    between atoms: C_14  and  C_26
REMARK                            x       y       z     vdW  Elec       q    Type
REMARK                         _______ _______ _______ _____ _____    ______ ____
ROOT
ATOM      1  C   UNL     1      -0.719   3.828   1.271  0.00  0.00    +0.066 A 
ATOM      2  C   UNL     1      -1.188   4.852   2.095  0.00  0.00    +0.096 A 
ATOM      3  C   UNL     1      -0.968   6.183   1.705  0.00  0.00    +0.081 A 
ATOM      4  C   UNL     1      -0.286   6.342   0.501  0.00  0.00    +0.102 A 
ATOM      5  S   UNL     1       0.031   4.683  -0.038  0.00  0.00    -0.074 S 
ATOM      6  C   UNL     1       0.003   7.608  -0.012  0.00  0.00    +0.268 A 
ATOM      7  O   UNL     1       0.601   7.726  -1.067  0.00  0.00    -0.266 OA
ATOM      8  N   UNL     1      -0.389   8.702   0.679  0.00  0.00    -0.274 N 
ATOM      9  H   UNL     1      -0.188   9.615   0.324  0.00  0.00    +0.173 HD
ATOM     10  C   UNL     1      -1.048   8.563   1.842  0.00  0.00    +0.327 A 
ATOM     11  O   UNL     1      -1.390   9.562   2.444  0.00  0.00    -0.247 OA
ATOM     12  N   UNL     1      -1.342   7.363   2.363  0.00  0.00    -0.306 N 
ATOM     13  H   UNL     1      -1.835   7.309   3.231  0.00  0.00    +0.170 HD
ENDROOT
BRANCH   2  14
ATOM     14  C   UNL     1      -1.879   4.551   3.313  0.00  0.00    +0.103 C 
ATOM     15  N   UNL     1      -2.426   4.313   4.279  0.00  0.00    -0.191 NA
ENDBRANCH   2  14
BRANCH   1  16
ATOM     16  S   UNL     1      -0.851   2.087   1.507  0.00  0.00    -0.107 S 
BRANCH  16  17
ATOM     17  C   UNL     1      -0.005   1.503   0.017  0.00  0.00    +0.171 C 
BRANCH  17  19
ATOM     18  N   UNL     1       0.585  -0.664  -1.018  0.00  0.00    -0.285 N 
ATOM     19  C   UNL     1       0.005  -0.004   0.004  0.00  0.00    +0.227 C 
ATOM     20  O   UNL     1      -0.509  -0.622   0.912  0.00  0.00    -0.275 OA
ATOM     21  H   UNL     1       0.925  -0.174  -1.782  0.00  0.00    +0.155 HD
BRANCH  18  28
ATOM     22  C   UNL     1       0.794  -2.071  -3.482  0.00  0.00    +0.045 C 
ATOM     23  C   UNL     1       0.801  -2.784  -2.155  0.00  0.00    -0.029 A 
ATOM     24  C   UNL     1       0.912  -4.160  -2.110  0.00  0.00    +0.005 A 
ATOM     25  C   UNL     1       0.919  -4.815  -0.892  0.00  0.00    +0.000 A 
ATOM     26  C   UNL     1       0.816  -4.095   0.284  0.00  0.00    +0.002 A 
ATOM     27  C   UNL     1       0.710  -2.719   0.246  0.00  0.00    +0.023 A 
ATOM     28  C   UNL     1       0.697  -2.059  -0.976  0.00  0.00    +0.036 A 
ENDBRANCH  18  28
ENDBRANCH  17  19
ENDBRANCH  16  17
ENDBRANCH   1  16
TORSDOF 5
