REMARK  Name = ZINC44893920
REMARK  10 active torsions:
REMARK  status: ('A' for Active; 'I' for Inactive)
REMARK    1  A    between atoms: C_1  and  O_2
REMARK    2  A    between atoms: O_2  and  C_3
REMARK    3  A    between atoms: C_5  and  C_13
REMARK    4  A    between atoms: C_6  and  O_11
REMARK    5  A    between atoms: C_8  and  O_9
REMARK    6  A    between atoms: O_9  and  C_10
REMARK    7  A    between atoms: O_11  and  C_12
REMARK    8  A    between atoms: C_16  and  O_33
REMARK    9  A    between atoms: N_20  and  C_26
REMARK   10  A    between atoms: C_22  and  C_23
REMARK                            x       y       z     vdW  Elec       q    Type
REMARK                         _______ _______ _______ _____ _____    ______ ____
ROOT
ATOM      1  C   UNL     1       2.401   0.384  -4.230  0.00  0.00    +0.081 C 
ATOM      2  C   UNL     1       3.486   1.292  -3.640  0.00  0.00    +0.110 C 
ATOM      3  C   UNL     1       2.891   2.474  -2.932  0.00  0.00    +0.189 C 
ATOM      4  N   UNL     1       1.783   3.042  -3.304  0.00  0.00    -0.215 NA
ATOM      5  C   UNL     1       1.101   2.522  -4.370  0.00  0.00    +0.103 A 
ATOM      6  C   UNL     1       1.347   1.266  -4.853  0.00  0.00    +0.058 A 
ATOM      7  N   UNL     1       0.518   1.029  -5.901  0.00  0.00    -0.317 N 
ATOM      8  C   UNL     1      -0.272   2.101  -6.131  0.00  0.00    +0.109 A 
ATOM      9  C   UNL     1       0.040   3.085  -5.203  0.00  0.00    +0.107 A 
ENDROOT
BRANCH   7  10
ATOM     10  C   UNL     1       0.486  -0.161  -6.641  0.00  0.00    +0.049 A 
ATOM     11  C   UNL     1       1.664  -0.704  -7.137  0.00  0.00    +0.026 A 
ATOM     12  C   UNL     1       1.630  -1.876  -7.866  0.00  0.00    +0.005 A 
ATOM     13  C   UNL     1       0.425  -2.511  -8.103  0.00  0.00    +0.038 A 
ATOM     14  C   UNL     1      -0.752  -1.973  -7.610  0.00  0.00    +0.125 A 
ATOM     15  C   UNL     1      -0.723  -0.802  -6.874  0.00  0.00    +0.064 A 
ATOM     16  F   UNL     1      -1.929  -2.595  -7.844  0.00  0.00    -0.205 F 
ENDBRANCH   7  10
BRANCH   1  19
ATOM     17  C   UNL     1       0.607  -0.608  -1.057  0.00  0.00    +0.162 A 
ATOM     18  C   UNL     1       1.173   0.160  -2.062  0.00  0.00    +0.057 A 
ATOM     19  C   UNL     1       1.787  -0.453  -3.138  0.00  0.00    +0.007 A 
ATOM     20  C   UNL     1       1.838  -1.837  -3.214  0.00  0.00    +0.128 A 
ATOM     21  C   UNL     1       1.272  -2.609  -2.211  0.00  0.00    +0.095 A 
ATOM     22  C   UNL     1       0.661  -1.996  -1.129  0.00  0.00    +0.165 A 
BRANCH  17  24
ATOM     23  C   UNL     1      -0.017   1.425   0.010  0.00  0.00    +0.277 C 
ATOM     24  O   UNL     1       0.002  -0.004   0.002  0.00  0.00    -0.491 OA
ENDBRANCH  17  24
BRANCH  22  25
ATOM     25  O   UNL     1       0.112  -2.751  -0.140  0.00  0.00    -0.491 OA
ATOM     26  C   UNL     1       0.205  -4.170  -0.279  0.00  0.00    +0.277 C 
ENDBRANCH  22  25
BRANCH  20  27
ATOM     27  O   UNL     1       2.442  -2.437  -4.274  0.00  0.00    -0.495 OA
ATOM     28  C   UNL     1       2.458  -3.866  -4.288  0.00  0.00    +0.277 C 
ENDBRANCH  20  27
ENDBRANCH   1  19
BRANCH   9  29
ATOM     29  C   UNL     1      -0.569   4.413  -5.083  0.00  0.00    +0.390 C 
ATOM     30  O   UNL     1      -1.455   4.753  -5.857  0.00  0.00    -0.240 OA
ATOM     31  O   UNL     1      -0.191   5.183  -4.210  0.00  0.00    -0.240 OA
ENDBRANCH   9  29
BRANCH   3  32
ATOM     32  O   UNL     1       3.539   2.972  -1.857  0.00  0.00    -0.495 OA
ATOM     33  H   UNL     1       3.101   3.732  -1.451  0.00  0.00    +0.293 HD
ENDBRANCH   3  32
TORSDOF 7
