REMARK  Name = ZINC01784314
REMARK  6 active torsions:
REMARK  status: ('A' for Active; 'I' for Inactive)
REMARK    1  A    between atoms: C_4  and  C_7
REMARK    2  A    between atoms: C_7  and  N_8
REMARK    3  A    between atoms: N_16  and  N_17
REMARK    4  A    between atoms: C_18  and  C_20
REMARK    5  A    between atoms: C_20  and  N_21
REMARK    6  A    between atoms: C_29  and  C_31
REMARK                            x       y       z     vdW  Elec       q    Type
REMARK                         _______ _______ _______ _____ _____    ______ ____
ROOT
ATOM      1  N   UNL     1       3.695  -3.970   4.232  0.00  0.00    -0.205 N 
ATOM      2  C   UNL     1       3.638  -4.846   5.254  0.00  0.00    +0.252 C 
ATOM      3  O   UNL     1       4.209  -4.601   6.295  0.00  0.00    -0.272 OA
ATOM      4  H   UNL     1       3.238  -4.165   3.399  0.00  0.00    +0.177 HD
ENDROOT
BRANCH   1  13
ATOM      5  N   UNL     1       4.152  -0.952   1.338  0.00  0.00    -0.261 N 
ATOM      6  C   UNL     1       4.944  -0.078   2.074  0.00  0.00    +0.046 A 
ATOM      7  C   UNL     1       5.496   1.158   1.757  0.00  0.00    +0.024 A 
ATOM      8  C   UNL     1       6.260   1.835   2.686  0.00  0.00    +0.002 A 
ATOM      9  C   UNL     1       6.487   1.295   3.941  0.00  0.00    +0.001 A 
ATOM     10  C   UNL     1       5.947   0.068   4.274  0.00  0.00    +0.012 A 
ATOM     11  C   UNL     1       5.176  -0.621   3.344  0.00  0.00    +0.028 A 
ATOM     12  C   UNL     1       4.470  -1.923   3.378  0.00  0.00    +0.153 C 
ATOM     13  N   UNL     1       4.414  -2.775   4.372  0.00  0.00    -0.174 NA
ATOM     14  C   UNL     1       3.837  -2.048   2.050  0.00  0.00    +0.272 C 
ATOM     15  O   UNL     1       3.154  -2.979   1.666  0.00  0.00    -0.268 OA
BRANCH   5  16
ATOM     16  C   UNL     1       3.711  -0.707  -0.038  0.00  0.00    +0.149 C 
BRANCH  16  20
ATOM     17  C   UNL     1      -0.017   1.378   0.010  0.00  0.00    +0.000 A 
ATOM     18  C   UNL     1       1.171   2.086   0.002  0.00  0.00    +0.000 A 
ATOM     19  C   UNL     1       2.377   1.411  -0.013  0.00  0.00    +0.005 A 
ATOM     20  C   UNL     1       2.396   0.029  -0.020  0.00  0.00    -0.030 A 
ATOM     21  C   UNL     1       1.208  -0.679  -0.012  0.00  0.00    +0.005 A 
ATOM     22  C   UNL     1       0.002  -0.004   0.002  0.00  0.00    +0.000 A 
ENDBRANCH  16  20
ENDBRANCH   5  16
ENDBRANCH   1  13
BRANCH   2  23
ATOM     23  C   UNL     1       2.864  -6.130   5.103  0.00  0.00    +0.223 C 
BRANCH  23  24
ATOM     24  N   UNL     1       2.955  -6.904   6.344  0.00  0.00    -0.290 N 
ATOM     25  C   UNL     1       3.973  -7.789   6.502  0.00  0.00    +0.203 A 
ATOM     26  N   UNL     1       4.088  -8.498   7.593  0.00  0.00    -0.230 NA
ATOM     27  C   UNL     1       3.213  -8.375   8.585  0.00  0.00    +0.116 A 
ATOM     28  C   UNL     1       2.124  -7.484   8.516  0.00  0.00    +0.073 A 
ATOM     29  C   UNL     1       2.032  -6.718   7.305  0.00  0.00    +0.263 A 
ATOM     30  O   UNL     1       1.128  -5.915   7.148  0.00  0.00    -0.267 OA
ATOM     31  C   UNL     1       1.282  -7.462   9.639  0.00  0.00    +0.031 A 
ATOM     32  C   UNL     1       1.546  -8.270  10.698  0.00  0.00    +0.022 A 
ATOM     33  S   UNL     1       3.022  -9.130  10.181  0.00  0.00    -0.068 S 
BRANCH  32  34
ATOM     34  C   UNL     1       0.798  -8.403  11.965  0.00  0.00    -0.011 A 
ATOM     35  C   UNL     1      -0.350  -7.639  12.185  0.00  0.00    +0.009 A 
ATOM     36  C   UNL     1      -1.044  -7.769  13.370  0.00  0.00    +0.001 A 
ATOM     37  C   UNL     1      -0.606  -8.654  14.339  0.00  0.00    +0.000 A 
ATOM     38  C   UNL     1       0.531  -9.414  14.127  0.00  0.00    +0.001 A 
ATOM     39  C   UNL     1       1.231  -9.298  12.945  0.00  0.00    +0.009 A 
ENDBRANCH  32  34
ENDBRANCH  23  24
ENDBRANCH   2  23
TORSDOF 6
