REMARK  Name = ZINC19797110
REMARK  4 active torsions:
REMARK  status: ('A' for Active; 'I' for Inactive)
REMARK    1  A    between atoms: C_1  and  C_2
REMARK    2  A    between atoms: N_13  and  N_18
REMARK    3  A    between atoms: C_14  and  S_16
REMARK    4  A    between atoms: S_16  and  C_17
REMARK                            x       y       z     vdW  Elec       q    Type
REMARK                         _______ _______ _______ _____ _____    ______ ____
ROOT
ATOM      1  C   UNL     1       1.397   3.572   0.258  0.00  0.00    +0.008 C 
ATOM      2  C   UNL     1       1.415   2.064  -0.000  0.00  0.00    -0.009 C 
ATOM      3  C   UNL     1      -0.019   1.524   0.010  0.00  0.00    +0.008 C 
ATOM      4  C   UNL     1       0.002  -0.004   0.002  0.00  0.00    +0.037 C 
ATOM      5  C   UNL     1       0.873  -0.481  -1.157  0.00  0.00    -0.023 A 
ATOM      6  C   UNL     1       1.763   0.356  -1.737  0.00  0.00    -0.004 A 
ATOM      7  S   UNL     1       2.540  -0.602  -3.014  0.00  0.00    -0.073 S 
ATOM      8  C   UNL     1       1.673  -2.120  -2.768  0.00  0.00    +0.117 A 
ATOM      9  C   UNL     1       0.801  -1.830  -1.694  0.00  0.00    +0.077 A 
ATOM     10  C   UNL     1      -0.059  -2.886  -1.246  0.00  0.00    +0.280 A 
ATOM     11  O   UNL     1      -0.846  -2.733  -0.327  0.00  0.00    -0.265 OA
ATOM     12  N   UNL     1       0.056  -4.062  -1.906  0.00  0.00    -0.209 N 
ATOM     13  C   UNL     1       0.928  -4.253  -2.935  0.00  0.00    +0.189 A 
ATOM     14  N   UNL     1       1.737  -3.299  -3.374  0.00  0.00    -0.215 NA
ATOM     15  C   UNL     1       2.034   1.784  -1.377  0.00  0.00    +0.046 C 
ENDROOT
BRANCH  12  16
ATOM     16  N   UNL     1      -0.739  -5.105  -1.523  0.00  0.00    -0.293 N 
ATOM     17  H   UNL     1      -0.666  -6.072  -2.042  0.00  0.00    +0.163 HD
ATOM     18  H   UNL     1      -1.452  -4.978  -0.695  0.00  0.00    +0.163 HD
ENDBRANCH  12  16
BRANCH  13  19
ATOM     19  S   UNL     1       0.983  -5.833  -3.713  0.00  0.00    -0.089 S 
ATOM     20  C   UNL     1       2.262  -5.526  -4.957  0.00  0.00    +0.093 C 
ENDBRANCH  13  19
TORSDOF 2
