REMARK  Name = ZINC08582761
REMARK  8 active torsions:
REMARK  status: ('A' for Active; 'I' for Inactive)
REMARK    1  A    between atoms: C_1  and  C_2
REMARK    2  A    between atoms: C_2  and  C_3
REMARK    3  A    between atoms: C_2  and  N_4
REMARK    4  A    between atoms: C_8  and  S_9
REMARK    5  A    between atoms: S_9  and  C_10
REMARK    6  A    between atoms: C_10  and  C_11
REMARK    7  A    between atoms: N_22  and  C_29
REMARK    8  A    between atoms: N_25  and  C_28
REMARK                            x       y       z     vdW  Elec       q    Type
REMARK                         _______ _______ _______ _____ _____    ______ ____
ROOT
ATOM      1  N   UNL     1      -1.372  -0.511   0.012  0.00  0.00    -0.311 N 
ATOM      2  C   UNL     1      -1.965  -1.320  -0.949  0.00  0.00    +0.153 A 
ATOM      3  C   UNL     1      -3.269  -1.546  -0.521  0.00  0.00    +0.169 A 
ATOM      4  N   UNL     1      -3.431  -0.901   0.635  0.00  0.00    -0.204 NA
ATOM      5  C   UNL     1      -2.314  -0.286   0.968  0.00  0.00    +0.172 A 
ATOM      6  N   UNL     1      -4.100  -2.334  -1.301  0.00  0.00    -0.280 N 
ATOM      7  C   UNL     1      -3.642  -2.866  -2.450  0.00  0.00    +0.333 A 
ATOM      8  O   UNL     1      -4.385  -3.555  -3.122  0.00  0.00    -0.246 OA
ATOM      9  N   UNL     1      -2.384  -2.653  -2.872  0.00  0.00    -0.262 N 
ATOM     10  C   UNL     1      -1.529  -1.895  -2.155  0.00  0.00    +0.282 A 
ATOM     11  O   UNL     1      -0.390  -1.710  -2.549  0.00  0.00    -0.265 OA
ATOM     12  C   UNL     1      -1.933  -3.254  -4.130  0.00  0.00    +0.157 C 
ATOM     13  C   UNL     1      -5.478  -2.589  -0.875  0.00  0.00    +0.155 C 
ENDROOT
BRANCH   1  15
ATOM     14  C   UNL     1      -0.019   1.526   0.010  0.00  0.00    +0.030 C 
ATOM     15  C   UNL     1       0.002  -0.004   0.002  0.00  0.00    +0.084 C 
ATOM     16  C   UNL     1       0.742  -0.511   1.242  0.00  0.00    +0.030 C 
ENDBRANCH   1  15
BRANCH   5  17
ATOM     17  S   UNL     1      -2.078   0.681   2.423  0.00  0.00    -0.083 S 
BRANCH  17  18
ATOM     18  C   UNL     1      -3.679   0.595   3.271  0.00  0.00    +0.113 C 
BRANCH  18  19
ATOM     19  C   UNL     1      -3.613   1.391   4.549  0.00  0.00    -0.023 A 
ATOM     20  C   UNL     1      -4.218   2.601   4.643  0.00  0.00    +0.075 A 
ATOM     21  C   UNL     1      -4.150   3.338   5.845  0.00  0.00    +0.249 A 
ATOM     22  N   UNL     1      -3.493   2.873   6.922  0.00  0.00    -0.322 N 
ATOM     23  C   UNL     1      -2.857   1.650   6.891  0.00  0.00    +0.049 A 
ATOM     24  C   UNL     1      -2.901   0.873   5.718  0.00  0.00    +0.003 A 
ATOM     25  C   UNL     1      -2.262  -0.371   5.683  0.00  0.00    +0.010 A 
ATOM     26  C   UNL     1      -1.605  -0.827   6.791  0.00  0.00    +0.001 A 
ATOM     27  C   UNL     1      -1.566  -0.066   7.951  0.00  0.00    +0.002 A 
ATOM     28  C   UNL     1      -2.177   1.168   8.004  0.00  0.00    +0.026 A 
ATOM     29  O   UNL     1      -4.700   4.424   5.908  0.00  0.00    -0.268 OA
ATOM     30  H   UNL     1      -3.466   3.405   7.732  0.00  0.00    +0.169 HD
ENDBRANCH  18  19
ENDBRANCH  17  18
ENDBRANCH   5  17
TORSDOF 4
