REMARK  Name = ZINC39964694
REMARK  10 active torsions:
REMARK  status: ('A' for Active; 'I' for Inactive)
REMARK    1  A    between atoms: C_1  and  C_2
REMARK    2  A    between atoms: C_2  and  O_3
REMARK    3  A    between atoms: O_3  and  C_4
REMARK    4  A    between atoms: C_4  and  C_6
REMARK    5  A    between atoms: C_7  and  C_33
REMARK    6  A    between atoms: C_10  and  C_12
REMARK    7  A    between atoms: N_16  and  C_17
REMARK    8  A    between atoms: C_19  and  C_32
REMARK    9  A    between atoms: N_21  and  C_31
REMARK   10  A    between atoms: N_22  and  C_25
REMARK                            x       y       z     vdW  Elec       q    Type
REMARK                         _______ _______ _______ _____ _____    ______ ____
ROOT
ATOM      1  C   UNL     1       1.713  -4.855  -2.064  0.00  0.00    +0.067 C 
ATOM      2  C   UNL     1       2.252  -5.950  -2.662  0.00  0.00    +0.051 C 
ATOM      3  N   UNL     1       2.794  -5.661  -3.844  0.00  0.00    -0.240 NA
ATOM      4  C   UNL     1       2.694  -4.401  -4.174  0.00  0.00    +0.110 C 
ATOM      5  C   UNL     1       1.960  -3.716  -3.037  0.00  0.00    +0.088 C 
ATOM      6  C   UNL     1       2.839  -2.639  -2.398  0.00  0.00    +0.020 C 
ATOM      7  N   UNL     1       3.154  -3.817  -5.319  0.00  0.00    -0.257 N 
ATOM      8  C   UNL     1       3.786  -4.561  -6.248  0.00  0.00    +0.305 C 
ATOM      9  O   UNL     1       3.947  -5.752  -6.066  0.00  0.00    -0.252 OA
ATOM     10  N   UNL     1       4.241  -3.984  -7.378  0.00  0.00    -0.286 N 
ATOM     11  C   UNL     1       2.238  -7.330  -2.058  0.00  0.00    +0.066 C 
ATOM     12  H   UNL     1       3.026  -2.866  -5.464  0.00  0.00    +0.158 HD
ATOM     13  H   UNL     1       4.112  -3.034  -7.523  0.00  0.00    +0.151 HD
ENDROOT
BRANCH  10  14
ATOM     14  C   UNL     1       4.928  -4.793  -8.388  0.00  0.00    +0.181 C 
ATOM     15  C   UNL     1       5.824  -3.907  -9.287  0.00  0.00    +0.102 C 
ATOM     16  N   UNL     1       4.923  -3.623 -10.429  0.00  0.00    -0.218 NA
ATOM     17  N   UNL     1       4.027  -4.646 -10.519  0.00  0.00    -0.201 N 
ATOM     18  C   UNL     1       3.938  -5.372  -9.383  0.00  0.00    +0.256 C 
ATOM     19  O   UNL     1       3.201  -6.316  -9.189  0.00  0.00    -0.272 OA
ATOM     20  C   UNL     1       4.237  -2.336 -10.251  0.00  0.00    +0.128 C 
ATOM     21  C   UNL     1       6.217  -2.616  -8.566  0.00  0.00    +0.028 C 
BRANCH  17  22
ATOM     22  C   UNL     1       3.276  -4.918 -11.668  0.00  0.00    +0.053 A 
ATOM     23  C   UNL     1       1.910  -5.143 -11.570  0.00  0.00    +0.025 A 
ATOM     24  C   UNL     1       1.172  -5.411 -12.707  0.00  0.00    +0.002 A 
ATOM     25  C   UNL     1       1.793  -5.456 -13.941  0.00  0.00    +0.000 A 
ATOM     26  C   UNL     1       3.154  -5.233 -14.042  0.00  0.00    +0.002 A 
ATOM     27  C   UNL     1       3.896  -4.957 -12.910  0.00  0.00    +0.025 A 
ENDBRANCH  17  22
ENDBRANCH  10  14
BRANCH   1  28
ATOM     28  C   UNL     1       1.061  -4.792  -0.814  0.00  0.00    +0.338 C 
ATOM     29  O   UNL     1       0.938  -5.798  -0.140  0.00  0.00    -0.245 OA
BRANCH  28  30
ATOM     30  O   UNL     1       0.574  -3.615  -0.365  0.00  0.00    -0.462 OA
BRANCH  30  32
ATOM     31  C   UNL     1      -0.557  -2.212   1.245  0.00  0.00    +0.048 C 
ATOM     32  C   UNL     1      -0.075  -3.625   0.908  0.00  0.00    +0.229 C 
ENDBRANCH  30  32
ENDBRANCH  28  30
ENDBRANCH   1  28
TORSDOF 5
