REMARK  Name = ZINC41183674
REMARK  3 active torsions:
REMARK  status: ('A' for Active; 'I' for Inactive)
REMARK    1  A    between atoms: C_2  and  C_11
REMARK    2  A    between atoms: C_11  and  C_13
REMARK    3  A    between atoms: C_11  and  N_21
REMARK                            x       y       z     vdW  Elec       q    Type
REMARK                         _______ _______ _______ _____ _____    ______ ____
ROOT
ATOM      1  C   UNL     1       1.147   3.597   0.010  0.00  0.00    +0.138 C 
ENDROOT
BRANCH   1   3
ATOM      2  C   UNL     1      -0.017   1.381   0.010  0.00  0.00    +0.055 A 
ATOM      3  C   UNL     1       1.171   2.090   0.002  0.00  0.00    -0.019 A 
ATOM      4  C   UNL     1       2.379   1.419  -0.013  0.00  0.00    +0.029 A 
ATOM      5  C   UNL     1       2.406   0.036  -0.021  0.00  0.00    +0.087 A 
ATOM      6  C   UNL     1       1.219  -0.680  -0.014  0.00  0.00    +0.184 A 
ATOM      7  C   UNL     1       0.002  -0.004   0.002  0.00  0.00    +0.168 A 
ATOM      8  O   UNL     1      -1.007  -0.923   0.006  0.00  0.00    -0.453 OA
ATOM      9  C   UNL     1      -0.404  -2.159  -0.419  0.00  0.00    +0.466 C 
ATOM     10  O   UNL     1       0.973  -2.023  -0.020  0.00  0.00    -0.451 OA
ATOM     11 CL   UNL     1       3.926  -0.802  -0.041  0.00  0.00    -0.080 Cl
ENDBRANCH   1   3
BRANCH   1  12
ATOM     12  C   UNL     1       1.399   4.095   1.410  0.00  0.00    +0.100 A 
ATOM     13  N   UNL     1       2.526   4.136   2.066  0.00  0.00    -0.247 NA
ATOM     14  C   UNL     1       2.609   4.609   3.315  0.00  0.00    +0.052 A 
ATOM     15  C   UNL     1       1.434   5.036   3.838  0.00  0.00    +0.013 A 
ATOM     16  S   UNL     1       0.296   4.743   2.505  0.00  0.00    -0.075 S 
ATOM     17  C   UNL     1       1.591   5.547   5.237  0.00  0.00    +0.044 C 
ATOM     18  C   UNL     1       2.959   4.999   5.702  0.00  0.00    +0.011 C 
ATOM     19  C   UNL     1       3.700   4.817   4.362  0.00  0.00    +0.056 C 
ENDBRANCH   1  12
BRANCH   1  20
ATOM     20  N   UNL     1       2.191   4.108  -0.887  0.00  0.00    -0.318 NA
ATOM     21  H   UNL     1       2.154   5.114  -0.949  0.00  0.00    +0.119 HD
ATOM     22  H   UNL     1       3.105   3.797  -0.593  0.00  0.00    +0.119 HD
ENDBRANCH   1  20
TORSDOF 3
