REMARK  Name = ZINC42170837
REMARK  3 active torsions:
REMARK  status: ('A' for Active; 'I' for Inactive)
REMARK    1  A    between atoms: C_6  and  C_7
REMARK    2  A    between atoms: C_13  and  C_15
REMARK    3  A    between atoms: C_15  and  C_16
REMARK                            x       y       z     vdW  Elec       q    Type
REMARK                         _______ _______ _______ _____ _____    ______ ____
ROOT
ATOM      1  C   UNL     1      -0.017   1.395   0.010  0.00  0.00    +0.017 A 
ATOM      2  C   UNL     1       1.162   2.099   0.002  0.00  0.00    +0.024 A 
ATOM      3  C   UNL     1       2.390   1.428  -0.013  0.00  0.00    +0.040 A 
ATOM      4  C   UNL     1       2.405   0.038  -0.021  0.00  0.00    -0.024 A 
ATOM      5  C   UNL     1       1.229  -0.676  -0.014  0.00  0.00    +0.020 A 
ATOM      6  C   UNL     1       0.002  -0.004   0.002  0.00  0.00    +0.064 A 
ATOM      7  C   UNL     1       3.845  -0.426  -0.036  0.00  0.00    +0.056 C 
ATOM      8  C   UNL     1       4.668   0.873  -0.037  0.00  0.00    +0.118 C 
ATOM      9  N   UNL     1       3.680   1.955  -0.022  0.00  0.00    -0.271 N 
ATOM     10  C   UNL     1       3.976   3.269  -0.018  0.00  0.00    +0.218 C 
ATOM     11  O   UNL     1       5.133   3.631  -0.027  0.00  0.00    -0.275 OA
ENDROOT
BRANCH   6  12
ATOM     12  C   UNL     1      -1.260  -0.763   0.010  0.00  0.00    +0.387 C 
ATOM     13  O   UNL     1      -2.330  -0.171   0.023  0.00  0.00    -0.241 OA
ATOM     14  O   UNL     1      -1.237  -1.986   0.003  0.00  0.00    -0.241 OA
ENDBRANCH   6  12
BRANCH  10  15
ATOM     15  C   UNL     1       2.868   4.291  -0.002  0.00  0.00    +0.080 C 
BRANCH  15  16
ATOM     16  C   UNL     1       3.471   5.697   0.000  0.00  0.00    -0.063 C 
ATOM     17  C   UNL     1       2.349   6.765  -0.035  0.00  0.00    -0.017 C 
ATOM     18  C   UNL     1       3.064   7.991   0.592  0.00  0.00    -0.021 C 
ATOM     19  C   UNL     1       3.978   7.353   1.659  0.00  0.00    -0.082 C 
ATOM     20  N   UNL     1       4.193   5.946   1.266  0.00  0.00    +0.381 N 
ATOM     21  H   UNL     1       3.837   5.335   1.986  0.00  0.00    -0.086 HD
ATOM     22  H   UNL     1       5.178   5.775   1.135  0.00  0.00    -0.086 HD
ENDBRANCH  15  16
ENDBRANCH  10  15
TORSDOF 3
