REMARK  Name = ZINC63751907
REMARK  4 active torsions:
REMARK  status: ('A' for Active; 'I' for Inactive)
REMARK    1  A    between atoms: C_8  and  C_13
REMARK    2  A    between atoms: C_13  and  S_14
REMARK    3  A    between atoms: S_14  and  C_15
REMARK    4  A    between atoms: C_21  and  C_23
REMARK                            x       y       z     vdW  Elec       q    Type
REMARK                         _______ _______ _______ _____ _____    ______ ____
ROOT
ATOM      1  S   UNL     1       1.410  -4.740   1.165  0.00  0.00    -0.094 S 
ENDROOT
BRANCH   1   2
ATOM      2  C   UNL     1       1.654  -5.697   2.624  0.00  0.00    +0.160 A 
ATOM      3  N   UNL     1       2.594  -5.595   3.545  0.00  0.00    -0.133 NA
ATOM      4  N   UNL     1       2.598  -6.457   4.617  0.00  0.00    -0.125 NA
ATOM      5  C   UNL     1       1.663  -7.381   4.720  0.00  0.00    +0.189 A 
ATOM      6  S   UNL     1       0.690  -7.062   3.257  0.00  0.00    -0.024 S 
ATOM      7  N   UNL     1       1.480  -8.343   5.709  0.00  0.00    -0.259 N 
ATOM      8  C   UNL     1       2.334  -8.412   6.748  0.00  0.00    +0.256 C 
ATOM      9  O   UNL     1       3.267  -7.633   6.823  0.00  0.00    -0.269 OA
ATOM     10  H   UNL     1       0.737  -8.964   5.649  0.00  0.00    +0.157 HD
BRANCH   8  11
ATOM     11  C   UNL     1       2.142  -9.426   7.789  0.00  0.00    +0.074 A 
ATOM     12  C   UNL     1       2.893  -9.661   8.931  0.00  0.00    +0.021 A 
ATOM     13  C   UNL     1       2.462 -10.694   9.727  0.00  0.00    +0.008 A 
ATOM     14  C   UNL     1       1.363 -11.397   9.357  0.00  0.00    +0.046 A 
ATOM     15  S   UNL     1       0.875 -10.673   7.922  0.00  0.00    -0.092 S 
ENDBRANCH   8  11
ENDBRANCH   1   2
BRANCH   1  16
ATOM     16  C   UNL     1       2.776  -3.547   1.190  0.00  0.00    +0.110 C 
BRANCH  16  24
ATOM     17  C   UNL     1      -0.016   1.347   0.009  0.00  0.00    +0.002 A 
ATOM     18  C   UNL     1       1.169   2.101   0.002  0.00  0.00    +0.002 A 
ATOM     19  C   UNL     1       2.398   1.533  -0.013  0.00  0.00    +0.025 A 
ATOM     20  C   UNL     1       2.536   0.127  -0.022  0.00  0.00    +0.057 A 
ATOM     21  N   UNL     1       3.739  -0.422  -0.036  0.00  0.00    -0.282 N 
ATOM     22  C   UNL     1       3.903  -1.747  -0.045  0.00  0.00    +0.240 C 
ATOM     23  O   UNL     1       5.019  -2.228  -0.058  0.00  0.00    -0.273 OA
ATOM     24  C   UNL     1       2.683  -2.640  -0.038  0.00  0.00    +0.176 C 
ATOM     25  N   UNL     1       1.360  -1.997  -0.022  0.00  0.00    -0.372 N 
ATOM     26  C   UNL     1       1.301  -0.697  -0.014  0.00  0.00    +0.057 A 
ATOM     27  C   UNL     1       0.002  -0.004   0.002  0.00  0.00    +0.027 A 
ATOM     28  H   UNL     1       0.550  -2.531  -0.017  0.00  0.00    +0.160 HD
ATOM     29  H   UNL     1       4.521   0.152  -0.041  0.00  0.00    +0.155 HD
ENDBRANCH  16  24
ENDBRANCH   1  16
TORSDOF 4
