REMARK  Name = ZINC00857316
REMARK  8 active torsions:
REMARK  status: ('A' for Active; 'I' for Inactive)
REMARK    1  A    between atoms: C_1  and  C_2
REMARK    2  A    between atoms: C_2  and  C_4
REMARK    3  A    between atoms: C_2  and  O_19
REMARK    4  A    between atoms: N_6  and  N_7
REMARK    5  A    between atoms: N_15  and  C_16
REMARK    6  A    between atoms: C_16  and  C_17
REMARK    7  A    between atoms: C_16  and  C_18
REMARK    8  A    between atoms: O_19  and  C_20
REMARK                            x       y       z     vdW  Elec       q    Type
REMARK                         _______ _______ _______ _____ _____    ______ ____
ROOT
ATOM      1  N   UNL     1      -3.674  -0.347  -0.761  0.00  0.00    -0.232 N 
ATOM      2  C   UNL     1      -4.534  -0.083  -1.808  0.00  0.00    +0.237 A 
ATOM      3  N   UNL     1      -5.830  -0.349  -1.687  0.00  0.00    -0.180 NA
ATOM      4  C   UNL     1      -6.654  -0.093  -2.697  0.00  0.00    +0.221 A 
ATOM      5  N   UNL     1      -6.180   0.428  -3.826  0.00  0.00    -0.184 NA
ATOM      6  C   UNL     1      -4.889   0.692  -3.943  0.00  0.00    +0.229 A 
ATOM      7  N   UNL     1      -4.066   0.443  -2.937  0.00  0.00    -0.183 NA
ATOM      8 CL   UNL     1      -4.274   1.372  -5.417  0.00  0.00    -0.041 Cl
ATOM      9  N   UNL     1      -8.001  -0.369  -2.576  0.00  0.00    -0.311 N 
ATOM     10  H   UNL     1      -4.015  -0.731   0.062  0.00  0.00    +0.173 HD
ATOM     11  H   UNL     1      -8.347  -0.749  -1.753  0.00  0.00    +0.149 HD
ENDROOT
BRANCH   1  14
ATOM     12  C   UNL     1      -1.469  -0.320   0.135  0.00  0.00    +0.270 C 
ATOM     13  O   UNL     1      -1.896  -0.799   1.164  0.00  0.00    -0.270 OA
ATOM     14  N   UNL     1      -2.308  -0.061  -0.887  0.00  0.00    -0.231 N 
ATOM     15  H   UNL     1      -1.967   0.323  -1.710  0.00  0.00    +0.173 HD
BRANCH  12  17
ATOM     16  C   UNL     1       0.194   1.500  -0.137  0.00  0.00    +0.062 C 
ATOM     17  C   UNL     1       0.000  -0.012   0.000  0.00  0.00    +0.257 C 
BRANCH  17  18
ATOM     18  O   UNL     1       0.693  -0.477   1.160  0.00  0.00    -0.480 OA
BRANCH  18  19
ATOM     19  C   UNL     1       2.014  -0.764   1.016  0.00  0.00    +0.122 A 
ATOM     20  C   UNL     1       2.721  -1.330   2.067  0.00  0.00    +0.045 A 
ATOM     21  C   UNL     1       4.063  -1.621   1.917  0.00  0.00    +0.004 A 
ATOM     22  C   UNL     1       4.702  -1.348   0.722  0.00  0.00    +0.000 A 
ATOM     23  C   UNL     1       4.000  -0.783  -0.326  0.00  0.00    +0.004 A 
ATOM     24  C   UNL     1       2.656  -0.496  -0.184  0.00  0.00    +0.045 A 
ENDBRANCH  18  19
ENDBRANCH  17  18
ENDBRANCH  12  17
ENDBRANCH   1  14
BRANCH   9  25
ATOM     25  C   UNL     1      -8.910  -0.086  -3.690  0.00  0.00    +0.067 C 
ATOM     26  C   UNL     1      -8.906  -1.267  -4.663  0.00  0.00    +0.027 C 
ATOM     27  C   UNL     1     -10.326   0.126  -3.152  0.00  0.00    +0.027 C 
ENDBRANCH   9  25
TORSDOF 5
