REMARK  Name = ZINC40638087
REMARK  6 active torsions:
REMARK  status: ('A' for Active; 'I' for Inactive)
REMARK    1  A    between atoms: C_4  and  N_21
REMARK    2  A    between atoms: C_5  and  C_7
REMARK    3  A    between atoms: N_9  and  C_10
REMARK    4  A    between atoms: C_15  and  S_16
REMARK    5  A    between atoms: S_16  and  C_17
REMARK    6  A    between atoms: C_17  and  C_18
REMARK                            x       y       z     vdW  Elec       q    Type
REMARK                         _______ _______ _______ _____ _____    ______ ____
ROOT
ATOM      1  C   UNL     1       1.130  -2.242  -0.619  0.00  0.00    +0.250 C 
ATOM      2  O   UNL     1       2.107  -2.796  -1.086  0.00  0.00    -0.270 OA
ATOM      3  N   UNL     1       0.105  -2.975  -0.142  0.00  0.00    -0.280 N 
ATOM      4  H   UNL     1      -0.708  -2.536   0.156  0.00  0.00    +0.155 HD
ENDROOT
BRANCH   1   9
ATOM      5  C   UNL     1      -0.053   1.246   0.095  0.00  0.00    +0.001 A 
ATOM      6  C   UNL     1       0.950   2.001  -0.492  0.00  0.00    +0.002 A 
ATOM      7  C   UNL     1       2.012   1.384  -1.121  0.00  0.00    +0.023 A 
ATOM      8  C   UNL     1       2.082  -0.003  -1.169  0.00  0.00    +0.037 A 
ATOM      9  C   UNL     1       1.068  -0.770  -0.575  0.00  0.00    +0.058 A 
ATOM     10  C   UNL     1      -0.001  -0.130   0.058  0.00  0.00    +0.015 A 
BRANCH   8  11
ATOM     11  N   UNL     1       3.150  -0.626  -1.801  0.00  0.00    -0.357 N 
ATOM     12  H   UNL     1       3.810  -0.096  -2.275  0.00  0.00    +0.142 HD
ATOM     13  H   UNL     1       3.236  -1.592  -1.770  0.00  0.00    +0.142 HD
ENDBRANCH   8  11
ENDBRANCH   1   9
BRANCH   3  14
ATOM     14  C   UNL     1       0.211  -4.370  -0.075  0.00  0.00    +0.047 A 
ATOM     15  C   UNL     1       1.459  -4.969   0.007  0.00  0.00    +0.024 A 
ATOM     16  C   UNL     1       1.562  -6.346   0.073  0.00  0.00    +0.002 A 
ATOM     17  C   UNL     1       0.423  -7.130   0.056  0.00  0.00    +0.001 A 
ATOM     18  C   UNL     1      -0.825  -6.543  -0.025  0.00  0.00    +0.016 A 
ATOM     19  C   UNL     1      -0.938  -5.161  -0.086  0.00  0.00    +0.030 A 
BRANCH  19  20
ATOM     20  S   UNL     1      -2.528  -4.408  -0.183  0.00  0.00    -0.114 S 
BRANCH  20  21
ATOM     21  C   UNL     1      -3.679  -5.810  -0.167  0.00  0.00    +0.169 C 
BRANCH  21  22
ATOM     22  C   UNL     1      -5.095  -5.298  -0.246  0.00  0.00    +0.221 C 
ATOM     23  O   UNL     1      -5.306  -4.106  -0.308  0.00  0.00    -0.275 OA
ATOM     24  N   UNL     1      -6.126  -6.167  -0.249  0.00  0.00    -0.329 N 
ATOM     25  H   UNL     1      -5.957  -7.120  -0.199  0.00  0.00    +0.145 HD
ATOM     26  H   UNL     1      -7.037  -5.837  -0.300  0.00  0.00    +0.145 HD
ENDBRANCH  21  22
ENDBRANCH  20  21
ENDBRANCH  19  20
ENDBRANCH   3  14
TORSDOF 6
