REMARK  Name = ZINC36737723
REMARK  4 active torsions:
REMARK  status: ('A' for Active; 'I' for Inactive)
REMARK    1  A    between atoms: C_6  and  C_7
REMARK    2  A    between atoms: N_9  and  C_10
REMARK    3  A    between atoms: C_13  and  N_18
REMARK    4  A    between atoms: C_15  and  C_16
REMARK                            x       y       z     vdW  Elec       q    Type
REMARK                         _______ _______ _______ _____ _____    ______ ____
ROOT
ATOM      1  C   UNL     1      -1.266  -0.763   0.005  0.00  0.00    +0.248 C 
ATOM      2  O   UNL     1      -2.329  -0.173   0.023  0.00  0.00    -0.270 OA
ATOM      3  N   UNL     1      -1.244  -2.111   0.003  0.00  0.00    -0.280 N 
ATOM      4  H   UNL     1      -0.400  -2.582  -0.077  0.00  0.00    +0.155 HD
ENDROOT
BRANCH   1  10
ATOM      5  C   UNL     1      -0.018   1.392  -0.011  0.00  0.00    +0.014 A 
ATOM      6  C   UNL     1       1.168   2.096  -0.029  0.00  0.00    +0.015 A 
ATOM      7  C   UNL     1       2.376   1.420  -0.049  0.00  0.00    +0.013 A 
ATOM      8  C   UNL     1       2.402   0.036  -0.052  0.00  0.00    +0.015 A 
ATOM      9  C   UNL     1       1.223  -0.679  -0.034  0.00  0.00    +0.014 A 
ATOM     10  C   UNL     1       0.001  -0.004  -0.014  0.00  0.00    +0.037 A 
ATOM     11  I   UNL     1       4.173   2.497  -0.076  0.00  0.00    -0.044 I 
ENDBRANCH   1  10
BRANCH   3  12
ATOM     12  C   UNL     1      -2.435  -2.828   0.116  0.00  0.00    +0.051 A 
ATOM     13  C   UNL     1      -3.599  -2.340  -0.460  0.00  0.00    +0.026 A 
ATOM     14  C   UNL     1      -4.779  -3.048  -0.349  0.00  0.00    +0.024 A 
ATOM     15  C   UNL     1      -4.810  -4.256   0.341  0.00  0.00    +0.026 A 
ATOM     16  C   UNL     1      -3.657  -4.756   0.922  0.00  0.00    +0.043 A 
ATOM     17  C   UNL     1      -2.459  -4.048   0.808  0.00  0.00    +0.075 A 
BRANCH  15  18
ATOM     18  N   UNL     1      -6.011  -4.967   0.448  0.00  0.00    -0.358 N 
ATOM     19  H   UNL     1      -6.819  -4.617   0.042  0.00  0.00    +0.142 HD
ATOM     20  H   UNL     1      -6.034  -5.809   0.929  0.00  0.00    +0.142 HD
ENDBRANCH  15  18
BRANCH  17  21
ATOM     21  C   UNL     1      -1.261  -4.562   1.401  0.00  0.00    +0.101 C 
ATOM     22  N   UNL     1      -0.310  -4.970   1.872  0.00  0.00    -0.191 NA
ENDBRANCH  17  21
ENDBRANCH   3  12
TORSDOF 4
