REMARK  Name = ZINC36491389
REMARK  11 active torsions:
REMARK  status: ('A' for Active; 'I' for Inactive)
REMARK    1  A    between atoms: C_1  and  C_2
REMARK    2  A    between atoms: C_5  and  S_8
REMARK    3  A    between atoms: S_8  and  C_11
REMARK    4  A    between atoms: C_11  and  N_12
REMARK    5  A    between atoms: C_13  and  C_15
REMARK    6  A    between atoms: C_15  and  C_17
REMARK    7  A    between atoms: C_15  and  N_26
REMARK    8  A    between atoms: C_20  and  N_23
REMARK    9  A    between atoms: N_26  and  C_27
REMARK   10  A    between atoms: C_33  and  C_35
REMARK   11  A    between atoms: C_35  and  C_37
REMARK                            x       y       z     vdW  Elec       q    Type
REMARK                         _______ _______ _______ _____ _____    ______ ____
ROOT
ATOM      1  C   UNL     1       2.582  -4.410   3.352  0.00  0.00    +0.193 C 
ENDROOT
BRANCH   1   2
ATOM      2  C   UNL     1       3.305  -3.225   2.766  0.00  0.00    -0.018 A 
ATOM      3  C   UNL     1       4.588  -2.923   3.183  0.00  0.00    +0.008 A 
ATOM      4  C   UNL     1       5.252  -1.836   2.646  0.00  0.00    +0.033 A 
ATOM      5  C   UNL     1       4.633  -1.051   1.691  0.00  0.00    +0.126 A 
ATOM      6  C   UNL     1       3.350  -1.353   1.273  0.00  0.00    +0.033 A 
ATOM      7  C   UNL     1       2.688  -2.443   1.807  0.00  0.00    +0.008 A 
BRANCH   5   8
ATOM      8  N   UNL     1       5.343   0.114   1.117  0.00  0.00    +0.056 N 
ATOM      9  O   UNL     1       6.465   0.378   1.482  0.00  0.00    -0.126 OA
ATOM     10  O   UNL     1       4.802   0.800   0.281  0.00  0.00    -0.126 OA
ENDBRANCH   5   8
ENDBRANCH   1   2
BRANCH   1  12
ATOM     11  N   UNL     1       4.135  -6.161   2.553  0.00  0.00    -0.294 N 
ATOM     12  C   UNL     1       3.563  -5.527   3.595  0.00  0.00    +0.239 C 
ATOM     13  O   UNL     1       3.838  -5.856   4.730  0.00  0.00    -0.273 OA
ATOM     14  H   UNL     1       3.994  -5.834   1.650  0.00  0.00    +0.150 HD
BRANCH  11  15
ATOM     15  C   UNL     1       4.969  -7.344   2.782  0.00  0.00    +0.278 C 
BRANCH  15  16
ATOM     16  S   UNL     1       3.930  -8.831   2.755  0.00  0.00    +0.013 S 
ATOM     17  O   UNL     1       2.851  -8.691   3.668  0.00  0.00    -0.168 OA
ATOM     18  O   UNL     1       4.744  -9.996   2.768  0.00  0.00    -0.168 OA
BRANCH  16  23
ATOM     19  C   UNL     1       1.345  -8.820  -2.697  0.00  0.00    +0.044 C 
ATOM     20  C   UNL     1       1.991  -8.822  -1.335  0.00  0.00    -0.050 A 
ATOM     21  C   UNL     1       3.255  -9.356  -1.171  0.00  0.00    +0.005 A 
ATOM     22  C   UNL     1       3.848  -9.358   0.078  0.00  0.00    +0.027 A 
ATOM     23  C   UNL     1       3.176  -8.827   1.163  0.00  0.00    +0.090 A 
ATOM     24  C   UNL     1       1.911  -8.293   0.998  0.00  0.00    +0.027 A 
ATOM     25  C   UNL     1       1.321  -8.286  -0.252  0.00  0.00    +0.005 A 
ENDBRANCH  16  23
ENDBRANCH  15  16
ENDBRANCH  11  15
ENDBRANCH   1  12
BRANCH   1  26
ATOM     26  N   UNL     1       1.957  -4.023   4.619  0.00  0.00    -0.279 N 
ATOM     27  C   UNL     1       1.102  -4.864   5.234  0.00  0.00    +0.243 C 
ATOM     28  O   UNL     1       0.872  -4.738   6.421  0.00  0.00    -0.270 OA
BRANCH  26  29
ATOM     29  C   UNL     1       2.263  -2.722   5.219  0.00  0.00    +0.077 C 
ATOM     30  C   UNL     1       2.961  -2.932   6.564  0.00  0.00    +0.022 C 
ATOM     31  C   UNL     1       3.279  -1.573   7.191  0.00  0.00    +0.002 C 
ATOM     32  C   UNL     1       1.980  -0.793   7.406  0.00  0.00    +0.000 C 
ATOM     33  C   UNL     1       1.282  -0.583   6.061  0.00  0.00    +0.002 C 
ATOM     34  C   UNL     1       0.964  -1.942   5.435  0.00  0.00    +0.022 C 
ENDBRANCH  26  29
BRANCH  27  35
ATOM     35  C   UNL     1       0.447  -5.936   4.468  0.00  0.00    +0.004 C 
ATOM     36  C   UNL     1      -0.454  -6.718   5.056  0.00  0.00    +0.017 C 
ATOM     37  C   UNL     1       0.797  -6.147   3.017  0.00  0.00    +0.048 C 
ENDBRANCH  27  35
ENDBRANCH   1  26
TORSDOF 9
