REMARK  Name = ZINC44893920
REMARK  9 active torsions:
REMARK  status: ('A' for Active; 'I' for Inactive)
REMARK    1  A    between atoms: C_1  and  O_2
REMARK    2  A    between atoms: O_2  and  C_3
REMARK    3  A    between atoms: C_5  and  C_13
REMARK    4  A    between atoms: C_6  and  O_11
REMARK    5  A    between atoms: C_8  and  O_9
REMARK    6  A    between atoms: O_9  and  C_10
REMARK    7  A    between atoms: O_11  and  C_12
REMARK    8  A    between atoms: N_21  and  C_27
REMARK    9  A    between atoms: C_23  and  C_24
REMARK                            x       y       z     vdW  Elec       q    Type
REMARK                         _______ _______ _______ _____ _____    ______ ____
ROOT
ATOM      1  C   UNL     1       2.401   0.384  -4.230  0.00  0.00    +0.080 C 
ATOM      2  C   UNL     1       3.490   1.283  -3.638  0.00  0.00    +0.110 C 
ATOM      3  C   UNL     1       2.901   2.442  -2.887  0.00  0.00    +0.218 C 
ATOM      4  O   UNL     1       3.452   2.832  -1.879  0.00  0.00    -0.275 OA
ATOM      5  N   UNL     1       1.775   3.065  -3.302  0.00  0.00    -0.283 N 
ATOM      6  C   UNL     1       1.085   2.510  -4.388  0.00  0.00    +0.070 A 
ATOM      7  C   UNL     1       1.343   1.257  -4.857  0.00  0.00    +0.054 A 
ATOM      8  N   UNL     1       0.518   0.998  -5.909  0.00  0.00    -0.317 N 
ATOM      9  C   UNL     1      -0.284   2.058  -6.149  0.00  0.00    +0.108 A 
ATOM     10  C   UNL     1       0.020   3.058  -5.220  0.00  0.00    +0.102 A 
ATOM     11  H   UNL     1       1.455   3.868  -2.862  0.00  0.00    +0.155 HD
ENDROOT
BRANCH   8  12
ATOM     12  C   UNL     1       0.504  -0.198  -6.639  0.00  0.00    +0.049 A 
ATOM     13  C   UNL     1       1.691  -0.729  -7.127  0.00  0.00    +0.026 A 
ATOM     14  C   UNL     1       1.676  -1.907  -7.846  0.00  0.00    +0.005 A 
ATOM     15  C   UNL     1       0.480  -2.560  -8.082  0.00  0.00    +0.038 A 
ATOM     16  C   UNL     1      -0.706  -2.034  -7.598  0.00  0.00    +0.125 A 
ATOM     17  C   UNL     1      -0.695  -0.857  -6.871  0.00  0.00    +0.064 A 
ATOM     18  F   UNL     1      -1.873  -2.673  -7.830  0.00  0.00    -0.205 F 
ENDBRANCH   8  12
BRANCH   1  21
ATOM     19  C   UNL     1       0.607  -0.608  -1.057  0.00  0.00    +0.162 A 
ATOM     20  C   UNL     1       1.173   0.160  -2.062  0.00  0.00    +0.057 A 
ATOM     21  C   UNL     1       1.787  -0.453  -3.138  0.00  0.00    +0.007 A 
ATOM     22  C   UNL     1       1.838  -1.837  -3.214  0.00  0.00    +0.128 A 
ATOM     23  C   UNL     1       1.272  -2.609  -2.211  0.00  0.00    +0.095 A 
ATOM     24  C   UNL     1       0.661  -1.996  -1.129  0.00  0.00    +0.165 A 
BRANCH  19  26
ATOM     25  C   UNL     1      -0.017   1.425   0.010  0.00  0.00    +0.277 C 
ATOM     26  O   UNL     1       0.002  -0.004   0.002  0.00  0.00    -0.491 OA
ENDBRANCH  19  26
BRANCH  24  27
ATOM     27  O   UNL     1       0.112  -2.751  -0.140  0.00  0.00    -0.491 OA
ATOM     28  C   UNL     1       0.205  -4.170  -0.279  0.00  0.00    +0.277 C 
ENDBRANCH  24  27
BRANCH  22  29
ATOM     29  O   UNL     1       2.442  -2.437  -4.274  0.00  0.00    -0.495 OA
ATOM     30  C   UNL     1       2.458  -3.866  -4.288  0.00  0.00    +0.277 C 
ENDBRANCH  22  29
ENDBRANCH   1  21
BRANCH  10  31
ATOM     31  C   UNL     1      -0.600   4.382  -5.107  0.00  0.00    +0.390 C 
ATOM     32  O   UNL     1      -1.490   4.709  -5.881  0.00  0.00    -0.240 OA
ATOM     33  O   UNL     1      -0.228   5.160  -4.238  0.00  0.00    -0.240 OA
ENDBRANCH  10  31
TORSDOF 6
