REMARK  Name = ZINC06383939
REMARK  6 active torsions:
REMARK  status: ('A' for Active; 'I' for Inactive)
REMARK    1  A    between atoms: C_7  and  C_11
REMARK    2  A    between atoms: C_11  and  C_12
REMARK    3  A    between atoms: C_12  and  O_14
REMARK    4  A    between atoms: O_14  and  C_15
REMARK    5  A    between atoms: C_15  and  C_16
REMARK    6  A    between atoms: C_18  and  N_26
REMARK                            x       y       z     vdW  Elec       q    Type
REMARK                         _______ _______ _______ _____ _____    ______ ____
ROOT
ATOM      1  O   UNL     1      -2.751  -1.896  -1.641  0.00  0.00    -0.460 OA
ENDROOT
BRANCH   1   2
ATOM      2  C   UNL     1      -1.686  -1.115  -1.403  0.00  0.00    +0.312 C 
ATOM      3  O   UNL     1      -1.119  -0.571  -2.320  0.00  0.00    -0.250 OA
BRANCH   2   4
ATOM      4  C   UNL     1      -1.197  -0.917   0.009  0.00  0.00    +0.157 C 
BRANCH   4  11
ATOM      5  C   UNL     1      -0.716   3.746   0.030  0.00  0.00    +0.001 A 
ATOM      6  C   UNL     1       0.611   4.153   0.019  0.00  0.00    +0.002 A 
ATOM      7  C   UNL     1       1.630   3.226   0.004  0.00  0.00    +0.026 A 
ATOM      8  C   UNL     1       1.329   1.868  -0.001  0.00  0.00    +0.047 A 
ATOM      9  C   UNL     1      -0.018   1.461   0.010  0.00  0.00    +0.003 A 
ATOM     10  C   UNL     1      -1.035   2.417   0.030  0.00  0.00    +0.010 A 
ATOM     11  C   UNL     1       0.002  -0.004   0.002  0.00  0.00    -0.012 A 
ATOM     12  C   UNL     1       1.291  -0.379  -0.012  0.00  0.00    +0.087 A 
ATOM     13  N   UNL     1       2.098   0.726  -0.014  0.00  0.00    -0.360 N 
ATOM     14  H   UNL     1       3.068   0.708  -0.024  0.00  0.00    +0.165 HD
ENDBRANCH   4  11
ENDBRANCH   2   4
ENDBRANCH   1   2
BRANCH   1  15
ATOM     15  C   UNL     1      -3.166  -2.042  -3.025  0.00  0.00    +0.271 C 
BRANCH  15  16
ATOM     16  C   UNL     1      -4.368  -2.947  -3.096  0.00  0.00    +0.034 A 
ATOM     17  C   UNL     1      -4.894  -3.490  -1.940  0.00  0.00    +0.043 A 
ATOM     18  C   UNL     1      -5.997  -4.321  -2.005  0.00  0.00    +0.127 A 
ATOM     19  C   UNL     1      -6.574  -4.612  -3.227  0.00  0.00    +0.042 A 
ATOM     20  C   UNL     1      -6.052  -4.072  -4.387  0.00  0.00    +0.022 A 
ATOM     21  C   UNL     1      -4.951  -3.232  -4.324  0.00  0.00    +0.135 A 
ATOM     22  O   UNL     1      -4.428  -2.692  -5.457  0.00  0.00    -0.465 OA
ATOM     23  C   UNL     1      -4.814  -3.291  -6.697  0.00  0.00    +0.394 C 
ATOM     24  O   UNL     1      -6.236  -3.463  -6.698  0.00  0.00    -0.339 OA
ATOM     25  C   UNL     1      -6.687  -4.399  -5.714  0.00  0.00    +0.202 C 
BRANCH  18  26
ATOM     26  N   UNL     1      -6.560  -4.900  -0.765  0.00  0.00    +0.056 N 
ATOM     27  O   UNL     1      -6.052  -4.644   0.312  0.00  0.00    -0.126 OA
ATOM     28  O   UNL     1      -7.532  -5.632  -0.821  0.00  0.00    -0.126 OA
ENDBRANCH  18  26
ENDBRANCH  15  16
ENDBRANCH   1  15
TORSDOF 6
