REMARK  Name = ZINC32959047
REMARK  5 active torsions:
REMARK  status: ('A' for Active; 'I' for Inactive)
REMARK    1  A    between atoms: C_1  and  C_2
REMARK    2  A    between atoms: C_7  and  S_8
REMARK    3  A    between atoms: S_8  and  N_11
REMARK    4  A    between atoms: C_14  and  C_17
REMARK    5  A    between atoms: C_26  and  C_31
REMARK                            x       y       z     vdW  Elec       q    Type
REMARK                         _______ _______ _______ _____ _____    ______ ____
ROOT
ATOM      1  S   UNL     1       1.483   3.520   0.546  0.00  0.00    +0.061 S 
ATOM      2  O   UNL     1       2.337   4.431  -0.132  0.00  0.00    -0.153 OA
ATOM      3  O   UNL     1       0.247   3.919   1.122  0.00  0.00    -0.153 OA
ENDROOT
BRANCH   1  10
ATOM      4  C   UNL     1       0.395   1.552   2.561  0.00  0.00    +0.046 C 
ATOM      5  C   UNL     1       1.849   1.914   2.721  0.00  0.00    -0.022 A 
ATOM      6  C   UNL     1       2.592   1.351   3.743  0.00  0.00    +0.032 A 
ATOM      7  C   UNL     1       3.928   1.685   3.888  0.00  0.00    +0.076 A 
ATOM      8  C   UNL     1       4.521   2.587   3.005  0.00  0.00    +0.145 A 
ATOM      9  C   UNL     1       3.773   3.141   1.982  0.00  0.00    +0.076 A 
ATOM     10  C   UNL     1       2.437   2.808   1.845  0.00  0.00    +0.112 A 
ATOM     11  O   UNL     1       5.833   2.908   3.158  0.00  0.00    -0.478 OA
ATOM     12  C   UNL     1       6.338   2.929   4.496  0.00  0.00    +0.256 C 
ATOM     13  C   UNL     1       5.885   1.691   5.228  0.00  0.00    +0.258 C 
ATOM     14  O   UNL     1       6.583   1.205   6.093  0.00  0.00    -0.271 OA
ATOM     15  N   UNL     1       4.699   1.125   4.916  0.00  0.00    -0.280 N 
ATOM     16  C   UNL     1       7.867   2.970   4.463  0.00  0.00    +0.062 C 
ATOM     17  H   UNL     1       4.335   0.237   5.455  0.00  0.00    +0.155 HD
ENDBRANCH   1  10
BRANCH   1  18
ATOM     18  N   UNL     1       1.136   2.308  -0.528  0.00  0.00    -0.177 NA
ATOM     19  C   UNL     1      -0.115   1.546  -0.417  0.00  0.00    +0.110 C 
ATOM     20  C   UNL     1       0.221   0.052  -0.368  0.00  0.00    +0.030 C 
ATOM     21  C   UNL     1       1.075  -0.315  -1.584  0.00  0.00    +0.078 C 
ATOM     22  C   UNL     1       2.385   0.476  -1.546  0.00  0.00    +0.030 C 
ATOM     23  C   UNL     1       2.074   1.974  -1.609  0.00  0.00    +0.110 C 
BRANCH  21  24
ATOM     24  C   UNL     1       1.379  -1.791  -1.557  0.00  0.00    +0.219 C 
ATOM     25  O   UNL     1       1.544  -2.357  -0.497  0.00  0.00    -0.275 OA
ATOM     26  N   UNL     1       1.467  -2.482  -2.710  0.00  0.00    -0.301 N 
ATOM     27  C   UNL     1       1.385  -1.792  -4.005  0.00  0.00    +0.108 C 
ATOM     28  C   UNL     1       2.615  -2.173  -4.841  0.00  0.00    +0.019 C 
ATOM     29  C   UNL     1       2.701  -3.697  -4.947  0.00  0.00    +0.003 C 
ATOM     30  C   UNL     1       2.864  -4.299  -3.549  0.00  0.00    +0.019 C 
ATOM     31  C   UNL     1       1.641  -3.941  -2.698  0.00  0.00    +0.108 C 
ENDBRANCH  21  24
ENDBRANCH   1  18
TORSDOF 3
