REMARK  Name = ZINC42178590
REMARK  11 active torsions:
REMARK  status: ('A' for Active; 'I' for Inactive)
REMARK    1  A    between atoms: C_1  and  C_2
REMARK    2  A    between atoms: C_2  and  C_3
REMARK    3  A    between atoms: C_2  and  C_4
REMARK    4  A    between atoms: C_4  and  C_5
REMARK    5  A    between atoms: C_4  and  C_6
REMARK    6  A    between atoms: C_4  and  N_8
REMARK    7  A    between atoms: C_9  and  C_11
REMARK    8  A    between atoms: C_11  and  N_12
REMARK    9  A    between atoms: C_15  and  C_19
REMARK   10  A    between atoms: C_15  and  C_20
REMARK   11  A    between atoms: C_24  and  C_26
REMARK                            x       y       z     vdW  Elec       q    Type
REMARK                         _______ _______ _______ _____ _____    ______ ____
ROOT
ATOM      1  N   UNL     1      -3.932  -4.690  -0.251  0.00  0.00    -0.215 N 
ATOM      2  C   UNL     1      -4.600  -5.044   0.864  0.00  0.00    +0.251 C 
ATOM      3  O   UNL     1      -4.192  -5.005   2.006  0.00  0.00    -0.272 OA
ATOM      4  C   UNL     1      -5.967  -5.501   0.396  0.00  0.00    +0.135 C 
ATOM      5  N   UNL     1      -5.905  -5.336  -1.067  0.00  0.00    -0.281 N 
ATOM      6  C   UNL     1      -4.681  -4.853  -1.348  0.00  0.00    +0.310 C 
ATOM      7  O   UNL     1      -4.298  -4.597  -2.472  0.00  0.00    -0.252 OA
ATOM      8  C   UNL     1      -7.064  -4.616   0.992  0.00  0.00    +0.047 C 
ATOM      9  H   UNL     1      -6.610  -5.534  -1.703  0.00  0.00    +0.152 HD
ENDROOT
BRANCH   4  10
ATOM     10  C   UNL     1      -6.196  -6.946   0.757  0.00  0.00    -0.015 A 
ATOM     11  C   UNL     1      -5.601  -7.479   1.885  0.00  0.00    +0.006 A 
ATOM     12  C   UNL     1      -5.810  -8.805   2.216  0.00  0.00    +0.001 A 
ATOM     13  C   UNL     1      -6.615  -9.597   1.420  0.00  0.00    +0.012 A 
ATOM     14  C   UNL     1      -7.211  -9.064   0.292  0.00  0.00    +0.055 A 
ATOM     15  C   UNL     1      -7.004  -7.737  -0.037  0.00  0.00    +0.018 A 
BRANCH  14  16
ATOM     16  C   UNL     1      -8.088  -9.928  -0.577  0.00  0.00    +0.417 C 
ATOM     17  F   UNL     1      -8.146 -11.220  -0.042  0.00  0.00    -0.166 F 
ATOM     18  F   UNL     1      -9.376  -9.385  -0.626  0.00  0.00    -0.166 F 
ATOM     19  F   UNL     1      -7.555  -9.982  -1.869  0.00  0.00    -0.166 F 
ENDBRANCH  14  16
ENDBRANCH   4  10
BRANCH   1  20
ATOM     20  C   UNL     1      -2.558  -4.183  -0.262  0.00  0.00    +0.213 C 
BRANCH  20  22
ATOM     21  N   UNL     1      -1.416  -1.993  -0.116  0.00  0.00    -0.296 N 
ATOM     22  C   UNL     1      -2.575  -2.682  -0.130  0.00  0.00    +0.232 C 
ATOM     23  O   UNL     1      -3.631  -2.093  -0.036  0.00  0.00    -0.274 OA
ATOM     24  H   UNL     1      -0.572  -2.463  -0.190  0.00  0.00    +0.150 HD
BRANCH  21  25
ATOM     25  C   UNL     1      -1.433  -0.534   0.013  0.00  0.00    +0.121 C 
ATOM     26  C   UNL     1      -2.209   0.072  -1.158  0.00  0.00    +0.048 C 
BRANCH  25  28
ATOM     27  C   UNL     1      -0.019   1.526   0.010  0.00  0.00    +0.010 C 
ATOM     28  C   UNL     1       0.002  -0.004   0.002  0.00  0.00    +0.020 C 
ATOM     29  C   UNL     1       0.742  -0.511   1.242  0.00  0.00    +0.010 C 
ENDBRANCH  25  28
BRANCH  25  30
ATOM     30  C   UNL     1      -2.085  -0.160   1.279  0.00  0.00    +0.088 C 
ATOM     31  N   UNL     1      -2.587   0.128   2.256  0.00  0.00    -0.194 NA
ENDBRANCH  25  30
ENDBRANCH  21  25
ENDBRANCH  20  22
ENDBRANCH   1  20
TORSDOF 7
