REMARK  Name = ZINC15513248
REMARK  7 active torsions:
REMARK  status: ('A' for Active; 'I' for Inactive)
REMARK    1  A    between atoms: C_1  and  C_2
REMARK    2  A    between atoms: C_6  and  N_9
REMARK    3  A    between atoms: C_7  and  C_8
REMARK    4  A    between atoms: C_10  and  S_14
REMARK    5  A    between atoms: S_14  and  C_15
REMARK    6  A    between atoms: C_15  and  C_17
REMARK    7  A    between atoms: C_15  and  C_23
REMARK                            x       y       z     vdW  Elec       q    Type
REMARK                         _______ _______ _______ _____ _____    ______ ____
ROOT
ATOM      1  C   UNL     1      -1.041  -2.239  -0.103  0.00  0.00    +0.170 C 
ENDROOT
BRANCH   1   2
ATOM      2  C   UNL     1      -1.109  -0.736  -0.023  0.00  0.00    +0.238 C 
ATOM      3  O   UNL     1      -1.952  -0.133  -0.650  0.00  0.00    -0.274 OA
ATOM      4  N   UNL     1      -0.231  -0.062   0.747  0.00  0.00    -0.239 N 
ATOM      5  C   UNL     1      -0.220   1.286   0.734  0.00  0.00    +0.303 C 
ATOM      6  O   UNL     1      -0.998   1.893   0.025  0.00  0.00    -0.253 OA
ATOM      7  N   UNL     1       0.657   1.960   1.504  0.00  0.00    -0.313 N 
ATOM      8  H   UNL     1       0.392  -0.547   1.310  0.00  0.00    +0.159 HD
ATOM      9  H   UNL     1       1.281   1.475   2.067  0.00  0.00    +0.146 HD
ATOM     10  H   UNL     1       0.666   2.930   1.494  0.00  0.00    +0.146 HD
ENDBRANCH   1   2
BRANCH   1  11
ATOM     11  C   UNL     1      -0.070  -2.641  -1.183  0.00  0.00    -0.025 A 
ATOM     12  C   UNL     1       1.272  -2.336  -1.055  0.00  0.00    +0.005 A 
ATOM     13  C   UNL     1       2.163  -2.709  -2.044  0.00  0.00    +0.000 A 
ATOM     14  C   UNL     1       1.710  -3.378  -3.166  0.00  0.00    +0.000 A 
ATOM     15  C   UNL     1       0.368  -3.679  -3.296  0.00  0.00    +0.000 A 
ATOM     16  C   UNL     1      -0.523  -3.310  -2.305  0.00  0.00    +0.005 A 
ENDBRANCH   1  11
BRANCH   1  17
ATOM     17  S   UNL     1      -0.484  -2.904   1.486  0.00  0.00    -0.067 S 
BRANCH  17  19
ATOM     18  N   UNL     1      -1.971  -2.669   3.837  0.00  0.00    -0.187 N 
ATOM     19  C   UNL     1      -1.839  -2.428   2.508  0.00  0.00    +0.215 A 
ATOM     20  N   UNL     1      -2.911  -1.768   2.128  0.00  0.00    -0.101 NA
ATOM     21  N   UNL     1      -3.705  -1.588   3.121  0.00  0.00    -0.022 NA
ATOM     22  N   UNL     1      -3.206  -2.101   4.193  0.00  0.00    -0.038 NA
BRANCH  18  28
ATOM     23  C   UNL     1       0.599  -2.833   8.027  0.00  0.00    +0.044 C 
ATOM     24  C   UNL     1       0.194  -3.442   6.710  0.00  0.00    -0.046 A 
ATOM     25  C   UNL     1       0.712  -4.666   6.326  0.00  0.00    +0.004 A 
ATOM     26  C   UNL     1       0.342  -5.228   5.119  0.00  0.00    +0.002 A 
ATOM     27  C   UNL     1      -0.551  -4.572   4.294  0.00  0.00    +0.028 A 
ATOM     28  C   UNL     1      -1.068  -3.341   4.674  0.00  0.00    +0.073 A 
ATOM     29  C   UNL     1      -0.695  -2.779   5.888  0.00  0.00    -0.022 A 
ATOM     30  C   UNL     1      -1.259  -1.445   6.306  0.00  0.00    +0.046 C 
ENDBRANCH  18  28
ENDBRANCH  17  19
ENDBRANCH   1  17
TORSDOF 5
