REMARK  Name = ZINC09185187
REMARK  9 active torsions:
REMARK  status: ('A' for Active; 'I' for Inactive)
REMARK    1  A    between atoms: C_1  and  C_2
REMARK    2  A    between atoms: C_2  and  O_3
REMARK    3  A    between atoms: O_3  and  C_4
REMARK    4  A    between atoms: C_4  and  C_6
REMARK    5  A    between atoms: C_9  and  N_12
REMARK    6  A    between atoms: C_18  and  C_26
REMARK    7  A    between atoms: C_20  and  C_24
REMARK    8  A    between atoms: C_26  and  O_27
REMARK    9  A    between atoms: O_27  and  C_28
REMARK                            x       y       z     vdW  Elec       q    Type
REMARK                         _______ _______ _______ _____ _____    ______ ____
ROOT
ATOM      1  N   UNL     1       3.913  -1.228  -0.042  0.00  0.00    -0.177 N 
ATOM      2  C   UNL     1       2.648  -1.349   0.429  0.00  0.00    +0.289 A 
ATOM      3  O   UNL     1       2.234  -2.416   0.850  0.00  0.00    -0.265 OA
ATOM      4  C   UNL     1       1.830  -0.208   0.416  0.00  0.00    +0.108 A 
ATOM      5  C   UNL     1       2.295   1.014  -0.063  0.00  0.00    +0.117 A 
ATOM      6  C   UNL     1       1.335   2.131  -0.020  0.00  0.00    +0.042 A 
ATOM      7  C   UNL     1       1.544   3.466  -0.440  0.00  0.00    +0.006 A 
ATOM      8  C   UNL     1       0.515   4.373  -0.317  0.00  0.00    +0.045 A 
ATOM      9  C   UNL     1      -0.706   3.978   0.210  0.00  0.00    +0.054 A 
ATOM     10  N   UNL     1      -0.892   2.733   0.602  0.00  0.00    -0.244 NA
ATOM     11  C   UNL     1       0.062   1.832   0.500  0.00  0.00    +0.112 A 
ATOM     12  S   UNL     1       0.159   0.107   0.915  0.00  0.00    -0.062 S 
ATOM     13  C   UNL     1      -1.825   4.979   0.339  0.00  0.00    +0.067 C 
ATOM     14 BR   UNL     1       0.767   6.164  -0.869  0.00  0.00    -0.048 Br
ATOM     15  N   UNL     1       3.579   1.049  -0.518  0.00  0.00    -0.129 NA
ATOM     16  N   UNL     1       4.338   0.019  -0.514  0.00  0.00    -0.057 NA
ENDROOT
BRANCH   1  20
ATOM     17  C   UNL     1       6.489  -4.504  -0.084  0.00  0.00    +0.059 A 
ATOM     18  C   UNL     1       5.189  -4.628  -0.583  0.00  0.00    +0.017 A 
ATOM     19  C   UNL     1       4.341  -3.544  -0.567  0.00  0.00    +0.029 A 
ATOM     20  C   UNL     1       4.776  -2.325  -0.056  0.00  0.00    +0.071 A 
ATOM     21  C   UNL     1       6.071  -2.197   0.437  0.00  0.00    +0.029 A 
ATOM     22  C   UNL     1       6.922  -3.279   0.430  0.00  0.00    +0.017 A 
BRANCH  17  23
ATOM     23  C   UNL     1       7.401  -5.664  -0.099  0.00  0.00    +0.339 C 
ATOM     24  O   UNL     1       7.022  -6.728  -0.546  0.00  0.00    -0.245 OA
BRANCH  23  25
ATOM     25  O   UNL     1       8.653  -5.542   0.383  0.00  0.00    -0.461 OA
BRANCH  25  27
ATOM     26  C   UNL     1      10.870  -6.395   0.921  0.00  0.00    +0.048 C 
ATOM     27  C   UNL     1       9.495  -6.724   0.336  0.00  0.00    +0.229 C 
ENDBRANCH  25  27
ENDBRANCH  23  25
ENDBRANCH  17  23
ENDBRANCH   1  20
BRANCH   7  28
ATOM     28  C   UNL     1       2.873   3.890  -1.011  0.00  0.00    +0.196 C 
BRANCH  28  29
ATOM     29  O   UNL     1       2.864   3.702  -2.427  0.00  0.00    -0.378 OA
ATOM     30  C   UNL     1       4.084   4.076  -3.071  0.00  0.00    +0.194 C 
ENDBRANCH  28  29
ENDBRANCH   7  28
TORSDOF 6
