REMARK  Name = ZINC33445527
REMARK  8 active torsions:
REMARK  status: ('A' for Active; 'I' for Inactive)
REMARK    1  A    between atoms: C_1  and  C_2
REMARK    2  A    between atoms: C_2  and  O_3
REMARK    3  A    between atoms: O_3  and  C_4
REMARK    4  A    between atoms: C_6  and  C_11
REMARK    5  A    between atoms: C_9  and  O_10
REMARK    6  A    between atoms: C_13  and  C_14
REMARK    7  A    between atoms: C_14  and  C_15
REMARK    8  A    between atoms: C_29  and  C_32
REMARK                            x       y       z     vdW  Elec       q    Type
REMARK                         _______ _______ _______ _____ _____    ______ ____
ROOT
ATOM      1  C   UNL     1       3.356   1.624  -0.087  0.00  0.00    +0.151 C 
ATOM      2  C   UNL     1       4.065   2.055  -1.351  0.00  0.00    +0.077 C 
ATOM      3  C   UNL     1       5.296   1.379  -1.357  0.00  0.00    +0.250 C 
ATOM      4  O   UNL     1       6.154   1.465  -2.216  0.00  0.00    -0.282 OA
ATOM      5  C   UNL     1       5.370   0.539  -0.131  0.00  0.00    +0.293 C 
ATOM      6  O   UNL     1       6.306  -0.174   0.169  0.00  0.00    -0.266 OA
ATOM      7  N   UNL     1       4.250   0.685   0.597  0.00  0.00    -0.235 N 
ATOM      8  C   UNL     1       3.981   0.046   1.806  0.00  0.00    +0.172 A 
ATOM      9  C   UNL     1       2.771   0.101   2.548  0.00  0.00    +0.091 A 
ATOM     10  C   UNL     1       3.016  -0.676   3.628  0.00  0.00    +0.136 A 
ATOM     11  O   UNL     1       4.271  -1.131   3.496  0.00  0.00    -0.358 OA
ATOM     12  N   UNL     1       4.790  -0.727   2.482  0.00  0.00    -0.063 NA
ATOM     13  C   UNL     1       2.064  -0.974   4.758  0.00  0.00    +0.089 C 
ENDROOT
BRANCH   1  16
ATOM     14  C   UNL     1       0.877  -0.930  -1.354  0.00  0.00    +0.162 A 
ATOM     15  C   UNL     1       2.070  -0.301  -1.038  0.00  0.00    +0.055 A 
ATOM     16  C   UNL     1       2.057   0.942  -0.432  0.00  0.00    -0.018 A 
ATOM     17  C   UNL     1       0.855   1.560  -0.141  0.00  0.00    +0.009 A 
ATOM     18  C   UNL     1      -0.339   0.937  -0.454  0.00  0.00    +0.049 A 
ATOM     19  C   UNL     1      -0.333  -0.308  -1.061  0.00  0.00    +0.158 A 
BRANCH  19  20
ATOM     20  O   UNL     1      -1.507  -0.922  -1.369  0.00  0.00    -0.503 OA
ATOM     21  H   UNL     1      -2.463  -0.429  -1.137  0.00  0.00    +0.292 HD
ENDBRANCH  19  20
BRANCH  14  22
ATOM     22  O   UNL     1       0.888  -2.155  -1.945  0.00  0.00    -0.489 OA
BRANCH  22  24
ATOM     23  C   UNL     1       1.968  -4.018  -3.043  0.00  0.00    +0.048 C 
ATOM     24  C   UNL     1       2.161  -2.681  -2.324  0.00  0.00    +0.226 C 
ENDBRANCH  22  24
ENDBRANCH  14  22
ENDBRANCH   1  16
BRANCH   2  25
ATOM     25  C   UNL     1       3.597   2.934  -2.305  0.00  0.00    +0.195 C 
ATOM     26  O   UNL     1       4.301   3.137  -3.438  0.00  0.00    -0.287 OA
BRANCH  25  27
ATOM     27  C   UNL     1       2.328   3.651  -2.087  0.00  0.00    +0.022 A 
ATOM     28  C   UNL     1       1.358   3.684  -3.093  0.00  0.00    +0.012 A 
ATOM     29  C   UNL     1       0.171   4.354  -2.880  0.00  0.00    +0.001 A 
ATOM     30  C   UNL     1      -0.056   5.000  -1.678  0.00  0.00    +0.000 A 
ATOM     31  C   UNL     1       0.902   4.977  -0.679  0.00  0.00    +0.001 A 
ATOM     32  C   UNL     1       2.091   4.308  -0.875  0.00  0.00    +0.012 A 
ENDBRANCH  25  27
ENDBRANCH   2  25
TORSDOF 6
