REMARK  Name = ZINC39469734
REMARK  5 active torsions:
REMARK  status: ('A' for Active; 'I' for Inactive)
REMARK    1  A    between atoms: C_4  and  C_7
REMARK    2  A    between atoms: C_7  and  C_8
REMARK    3  A    between atoms: P_24  and  S_27
REMARK    4  A    between atoms: S_27  and  O_30
REMARK    5  A    between atoms: O_30  and  C_31
REMARK                            x       y       z     vdW  Elec       q    Type
REMARK                         _______ _______ _______ _____ _____    ______ ____
ROOT
ATOM      1  C   UNL     1       4.164  -0.959   1.377  0.00  0.00    -0.029 C 
ATOM      2  C   UNL     1       3.894  -2.119   1.971  0.00  0.00    -0.019 C 
ATOM      3  C   UNL     1       4.344  -2.349   3.389  0.00  0.00    +0.005 C 
ATOM      4  C   UNL     1       3.494  -3.421   4.055  0.00  0.00    -0.046 C 
ATOM      5  N   UNL     1       2.083  -3.011   4.130  0.00  0.00    +0.398 N 
ATOM      6  C   UNL     1       1.950  -1.786   4.922  0.00  0.00    -0.020 C 
ATOM      7  C   UNL     1       2.761  -0.653   4.281  0.00  0.00    -0.003 C 
ATOM      8  C   UNL     1       4.215  -1.048   4.185  0.00  0.00    +0.017 C 
ATOM      9  C   UNL     1       4.939   0.050   3.444  0.00  0.00    -0.003 C 
ATOM     10  C   UNL     1       4.916   0.074   2.112  0.00  0.00    +0.041 C 
ATOM     11 CL   UNL     1       5.760   1.318   1.244  0.00  0.00    -0.084 Cl
ATOM     12  C   UNL     1       0.493  -1.311   4.987  0.00  0.00    +0.158 C 
ATOM     13  O   UNL     1      -0.313  -2.316   5.626  0.00  0.00    -0.301 OA
ATOM     14  P   UNL     1      -0.190  -3.843   5.077  0.00  0.00    +0.431 P 
ATOM     15  O   UNL     1      -1.003  -4.016   3.853  0.00  0.00    -0.246 OA
ATOM     16  N   UNL     1       1.417  -4.054   4.739  0.00  0.00    -0.271 NA
ATOM     17  H   UNL     1       1.874  -4.882   4.955  0.00  0.00    +0.113 HD
ATOM     18  H   UNL     1       1.718  -2.872   3.200  0.00  0.00    -0.055 HD
ENDROOT
BRANCH  14  19
ATOM     19  S   UNL     1      -0.813  -5.213   6.571  0.00  0.00    +0.209 S 
ATOM     20  O   UNL     1      -0.812  -6.500   5.967  0.00  0.00    -0.126 OA
ATOM     21  O   UNL     1      -0.053  -4.918   7.735  0.00  0.00    -0.126 OA
BRANCH  19  22
ATOM     22  O   UNL     1      -2.262  -4.889   6.902  0.00  0.00    -0.339 OA
BRANCH  22  23
ATOM     23  C   UNL     1      -3.150  -5.294   5.957  0.00  0.00    +0.157 A 
ATOM     24  C   UNL     1      -3.490  -4.445   4.914  0.00  0.00    +0.048 A 
ATOM     25  C   UNL     1      -4.392  -4.859   3.953  0.00  0.00    +0.004 A 
ATOM     26  C   UNL     1      -4.956  -6.119   4.031  0.00  0.00    +0.000 A 
ATOM     27  C   UNL     1      -4.620  -6.967   5.069  0.00  0.00    +0.004 A 
ATOM     28  C   UNL     1      -3.713  -6.560   6.029  0.00  0.00    +0.048 A 
ENDBRANCH  22  23
ENDBRANCH  19  22
ENDBRANCH  14  19
BRANCH   1  29
ATOM     29  C   UNL     1       3.711  -0.707  -0.038  0.00  0.00    +0.071 C 
BRANCH  29  33
ATOM     30  C   UNL     1      -0.017   1.378   0.010  0.00  0.00    +0.000 A 
ATOM     31  C   UNL     1       1.171   2.086   0.002  0.00  0.00    +0.000 A 
ATOM     32  C   UNL     1       2.377   1.411  -0.013  0.00  0.00    +0.004 A 
ATOM     33  C   UNL     1       2.396   0.029  -0.020  0.00  0.00    -0.043 A 
ATOM     34  C   UNL     1       1.208  -0.679  -0.012  0.00  0.00    +0.004 A 
ATOM     35  C   UNL     1       0.002  -0.004   0.002  0.00  0.00    +0.000 A 
ENDBRANCH  29  33
ENDBRANCH   1  29
TORSDOF 5
