REMARK  Name = ZINC28617583
REMARK  7 active torsions:
REMARK  status: ('A' for Active; 'I' for Inactive)
REMARK    1  A    between atoms: C_1  and  C_2
REMARK    2  A    between atoms: C_2  and  C_3
REMARK    3  A    between atoms: C_3  and  N_4
REMARK    4  A    between atoms: N_6  and  C_7
REMARK    5  A    between atoms: C_7  and  N_8
REMARK    6  A    between atoms: N_16  and  C_17
REMARK    7  A    between atoms: C_20  and  O_23
REMARK                            x       y       z     vdW  Elec       q    Type
REMARK                         _______ _______ _______ _____ _____    ______ ____
ROOT
ATOM      1  N   UNL     1       2.151   0.755  -0.014  0.00  0.00    -0.246 N 
ATOM      2  C   UNL     1       1.352  -0.383  -0.013  0.00  0.00    +0.048 A 
ATOM      3  C   UNL     1       1.673  -1.736  -0.023  0.00  0.00    +0.024 A 
ATOM      4  C   UNL     1       0.671  -2.686  -0.019  0.00  0.00    +0.002 A 
ATOM      5  C   UNL     1      -0.661  -2.308  -0.004  0.00  0.00    +0.001 A 
ATOM      6  C   UNL     1      -1.000  -0.970   0.006  0.00  0.00    +0.012 A 
ATOM      7  C   UNL     1       0.002  -0.004   0.002  0.00  0.00    +0.027 A 
ATOM      8  C   UNL     1      -0.018   1.475   0.010  0.00  0.00    +0.135 C 
ATOM      9  N   UNL     1      -1.069   2.260   0.020  0.00  0.00    -0.242 NA
ATOM     10  C   UNL     1       1.410   1.877  -0.001  0.00  0.00    +0.271 C 
ATOM     11  O   UNL     1       1.834   3.016   0.000  0.00  0.00    -0.268 OA
ENDROOT
BRANCH   9  12
ATOM     12  C   UNL     1      -0.909   3.608   0.026  0.00  0.00    +0.065 A 
ATOM     13  C   UNL     1       0.025   4.202   0.886  0.00  0.00    +0.031 A 
ATOM     14  C   UNL     1       0.185   5.564   0.885  0.00  0.00    +0.047 A 
ATOM     15  C   UNL     1      -0.585   6.357   0.041  0.00  0.00    +0.117 A 
ATOM     16  C   UNL     1      -1.517   5.774  -0.812  0.00  0.00    +0.047 A 
ATOM     17  C   UNL     1      -1.683   4.413  -0.823  0.00  0.00    +0.031 A 
BRANCH  15  18
ATOM     18  O   UNL     1      -0.426   7.704   0.048  0.00  0.00    -0.507 OA
ATOM     19  H   UNL     1      -1.033   8.334  -0.619  0.00  0.00    +0.292 HD
ENDBRANCH  15  18
ENDBRANCH   9  12
BRANCH   1  20
ATOM     20  C   UNL     1       3.616   0.735  -0.029  0.00  0.00    +0.258 C 
BRANCH  20  23
ATOM     21  N   UNL     1       5.314   1.745  -3.105  0.00  0.00    -0.250 N 
ATOM     22  C   UNL     1       4.843   1.697  -1.839  0.00  0.00    +0.111 C 
ATOM     23  N   UNL     1       4.091   0.736  -1.414  0.00  0.00    -0.253 NA
ATOM     24  C   UNL     1       5.270   2.854  -0.949  0.00  0.00    +0.150 C 
ATOM     25  S   UNL     1       6.285   3.818  -2.138  0.00  0.00    -0.060 S 
ATOM     26  C   UNL     1       6.092   2.746  -3.553  0.00  0.00    +0.280 C 
ATOM     27  O   UNL     1       6.561   2.887  -4.666  0.00  0.00    -0.262 OA
BRANCH  21  28
ATOM     28  C   UNL     1       4.957   0.666  -4.029  0.00  0.00    +0.115 C 
BRANCH  28  30
ATOM     29  C   UNL     1       3.288  -0.101  -5.723  0.00  0.00    +0.005 C 
ATOM     30  C   UNL     1       3.661   1.026  -4.758  0.00  0.00    +0.016 C 
ENDBRANCH  28  30
ENDBRANCH  21  28
ENDBRANCH  20  23
ENDBRANCH   1  20
TORSDOF 6
