REMARK  Name = ZINC33302031
REMARK  9 active torsions:
REMARK  status: ('A' for Active; 'I' for Inactive)
REMARK    1  A    between atoms: C_1  and  C_2
REMARK    2  A    between atoms: N_10  and  C_24
REMARK    3  A    between atoms: N_11  and  C_12
REMARK    4  A    between atoms: C_12  and  C_13
REMARK    5  A    between atoms: N_15  and  C_16
REMARK    6  A    between atoms: C_19  and  C_23
REMARK    7  A    between atoms: C_24  and  C_25
REMARK    8  A    between atoms: C_24  and  C_26
REMARK    9  A    between atoms: C_24  and  C_27
REMARK                            x       y       z     vdW  Elec       q    Type
REMARK                         _______ _______ _______ _____ _____    ______ ____
ROOT
ATOM      1  C   UNL     1      -5.276   2.575  -0.573  0.00  0.00    +0.044 C 
ATOM      2  C   UNL     1      -3.797   2.857  -0.526  0.00  0.00    -0.050 A 
ATOM      3  C   UNL     1      -3.329   4.131  -0.810  0.00  0.00    +0.005 A 
ATOM      4  C   UNL     1      -1.977   4.408  -0.763  0.00  0.00    +0.028 A 
ATOM      5  C   UNL     1      -1.075   3.404  -0.441  0.00  0.00    +0.071 A 
ATOM      6  C   UNL     1      -1.548   2.112  -0.157  0.00  0.00    +0.066 A 
ATOM      7  C   UNL     1      -2.916   1.848  -0.200  0.00  0.00    +0.018 A 
ATOM      8  C   UNL     1      -0.364   1.289   0.146  0.00  0.00    +0.275 A 
ATOM      9  O   UNL     1      -0.363   0.110   0.444  0.00  0.00    -0.266 OA
ATOM     10  N   UNL     1       0.717   2.085   0.026  0.00  0.00    -0.243 N 
ATOM     11  N   UNL     1       0.307   3.374  -0.331  0.00  0.00    -0.271 N 
ENDROOT
BRANCH  10  12
ATOM     12  C   UNL     1       2.105   1.665   0.235  0.00  0.00    +0.057 C 
ATOM     13  C   UNL     1       2.153   0.152   0.452  0.00  0.00    +0.036 C 
ATOM     14  C   UNL     1       2.939   2.031  -0.995  0.00  0.00    +0.036 C 
ATOM     15  C   UNL     1       2.673   2.376   1.465  0.00  0.00    +0.036 C 
ENDBRANCH  10  12
BRANCH  11  16
ATOM     16  C   UNL     1       1.199   4.514  -0.552  0.00  0.00    +0.238 C 
BRANCH  16  17
ATOM     17  C   UNL     1       1.464   4.665  -2.028  0.00  0.00    +0.239 C 
ATOM     18  O   UNL     1       0.958   3.896  -2.817  0.00  0.00    -0.273 OA
ATOM     19  N   UNL     1       2.264   5.655  -2.471  0.00  0.00    -0.283 N 
ATOM     20  H   UNL     1       2.798   6.294  -1.752  0.00  0.00    +0.155 HD
BRANCH  19  21
ATOM     21  C   UNL     1       2.415   5.871  -3.846  0.00  0.00    +0.052 A 
ATOM     22  C   UNL     1       1.377   5.567  -4.716  0.00  0.00    +0.025 A 
ATOM     23  C   UNL     1       1.529   5.780  -6.072  0.00  0.00    +0.005 A 
ATOM     24  C   UNL     1       2.714   6.296  -6.564  0.00  0.00    -0.049 A 
ATOM     25  C   UNL     1       3.750   6.601  -5.701  0.00  0.00    +0.025 A 
ATOM     26  C   UNL     1       3.603   6.395  -4.342  0.00  0.00    +0.062 A 
ATOM     27 CL   UNL     1       4.902   6.783  -3.258  0.00  0.00    -0.082 Cl
ATOM     28  C   UNL     1       2.876   6.528  -8.044  0.00  0.00    +0.044 C 
ENDBRANCH  19  21
ENDBRANCH  16  17
ENDBRANCH  11  16
TORSDOF 4
