REMARK  Name = ZINC62875760
REMARK  7 active torsions:
REMARK  status: ('A' for Active; 'I' for Inactive)
REMARK    1  A    between atoms: C_1  and  C_2
REMARK    2  A    between atoms: C_2  and  C_3
REMARK    3  A    between atoms: C_2  and  N_4
REMARK    4  A    between atoms: C_8  and  C_10
REMARK    5  A    between atoms: C_10  and  N_11
REMARK    6  A    between atoms: C_15  and  C_17
REMARK    7  A    between atoms: C_15  and  C_18
REMARK                            x       y       z     vdW  Elec       q    Type
REMARK                         _______ _______ _______ _____ _____    ______ ____
ROOT
ATOM      1  C   UNL     1      -5.408  -1.762  -2.281  0.00  0.00    +0.019 C 
ENDROOT
BRANCH   1   6
ATOM      2  N   UNL     1      -1.372  -0.511   0.012  0.00  0.00    -0.297 N 
ATOM      3  C   UNL     1      -2.051  -0.643  -1.145  0.00  0.00    +0.306 C 
ATOM      4  O   UNL     1      -1.522  -0.341  -2.197  0.00  0.00    -0.252 OA
ATOM      5  N   UNL     1      -3.315  -1.109  -1.135  0.00  0.00    -0.242 N 
ATOM      6  C   UNL     1      -3.994  -1.241  -2.292  0.00  0.00    +0.204 C 
ATOM      7  O   UNL     1      -3.467  -0.940  -3.341  0.00  0.00    -0.277 OA
ATOM      8  H   UNL     1      -1.794  -0.752   0.852  0.00  0.00    +0.151 HD
ATOM      9  H   UNL     1      -3.737  -1.350  -0.295  0.00  0.00    +0.159 HD
BRANCH   2  11
ATOM     10  C   UNL     1      -0.019   1.526   0.010  0.00  0.00    +0.027 C 
ATOM     11  C   UNL     1       0.002  -0.004   0.002  0.00  0.00    +0.068 C 
ATOM     12  C   UNL     1       0.742  -0.511   1.242  0.00  0.00    +0.027 C 
ENDBRANCH   2  11
ENDBRANCH   1   6
BRANCH   1  13
ATOM     13  N   UNL     1      -5.922  -1.811  -3.657  0.00  0.00    +0.386 N 
ATOM     14  C   UNL     1      -5.146  -2.785  -4.433  0.00  0.00    -0.078 C 
ATOM     15  C   UNL     1      -5.624  -2.781  -5.887  0.00  0.00    -0.018 C 
ATOM     16  C   UNL     1      -7.108  -3.157  -5.931  0.00  0.00    +0.014 C 
ATOM     17  C   UNL     1      -7.898  -2.179  -5.058  0.00  0.00    +0.055 C 
ATOM     18  C   UNL     1      -7.336  -2.205  -3.635  0.00  0.00    -0.060 C 
ATOM     19  C   UNL     1      -7.773  -0.766  -5.631  0.00  0.00    +0.021 C 
ATOM     20  H   UNL     1      -5.834  -0.900  -4.080  0.00  0.00    -0.081 HD
BRANCH  17  21
ATOM     21  C   UNL     1      -9.349  -2.586  -5.033  0.00  0.00    +0.360 C 
ATOM     22  O   UNL     1      -9.718  -3.567  -5.655  0.00  0.00    -0.246 OA
ATOM     23  O   UNL     1     -10.154  -1.934  -4.390  0.00  0.00    -0.246 OA
ENDBRANCH  17  21
ENDBRANCH   1  13
TORSDOF 4
