REMARK  Name = ZINC07080912
REMARK  10 active torsions:
REMARK  status: ('A' for Active; 'I' for Inactive)
REMARK    1  A    between atoms: C_1  and  C_2
REMARK    2  A    between atoms: C_2  and  C_3
REMARK    3  A    between atoms: C_3  and  C_4
REMARK    4  A    between atoms: C_3  and  C_5
REMARK    5  A    between atoms: C_3  and  N_6
REMARK    6  A    between atoms: C_7  and  C_9
REMARK    7  A    between atoms: C_9  and  N_10
REMARK    8  A    between atoms: C_13  and  C_17
REMARK    9  A    between atoms: C_13  and  C_18
REMARK   10  A    between atoms: C_18  and  C_19
REMARK                            x       y       z     vdW  Elec       q    Type
REMARK                         _______ _______ _______ _____ _____    ______ ____
ROOT
ATOM      1  N   UNL     1       2.027  -4.602  -3.498  0.00  0.00    -0.215 N 
ATOM      2  C   UNL     1       1.412  -4.851  -4.671  0.00  0.00    +0.247 C 
ATOM      3  O   UNL     1       0.231  -4.731  -4.918  0.00  0.00    -0.273 OA
ATOM      4  C   UNL     1       2.503  -5.312  -5.617  0.00  0.00    +0.114 C 
ATOM      5  N   UNL     1       3.721  -5.264  -4.790  0.00  0.00    -0.285 N 
ATOM      6  C   UNL     1       3.343  -4.834  -3.573  0.00  0.00    +0.310 C 
ATOM      7  O   UNL     1       4.110  -4.677  -2.643  0.00  0.00    -0.252 OA
ATOM      8  C   UNL     1       2.622  -4.357  -6.807  0.00  0.00    +0.042 C 
ATOM      9  H   UNL     1       4.621  -5.495  -5.069  0.00  0.00    +0.151 HD
ENDROOT
BRANCH   1  10
ATOM     10  C   UNL     1       1.341  -4.130  -2.293  0.00  0.00    +0.213 C 
BRANCH  10  12
ATOM     11  N   UNL     1       0.738  -1.962  -1.265  0.00  0.00    -0.309 N 
ATOM     12  C   UNL     1       1.321  -2.623  -2.285  0.00  0.00    +0.231 C 
ATOM     13  O   UNL     1       1.829  -2.004  -3.196  0.00  0.00    -0.274 OA
ATOM     14  H   UNL     1       0.332  -2.457  -0.536  0.00  0.00    +0.149 HD
BRANCH  11  15
ATOM     15  C   UNL     1       0.718  -0.497  -1.257  0.00  0.00    +0.029 C 
ATOM     16  C   UNL     1      -0.022   0.009  -2.496  0.00  0.00    +0.031 C 
ATOM     17  C   UNL     1       2.154   0.032  -1.268  0.00  0.00    +0.031 C 
BRANCH  15  19
ATOM     18  C   UNL     1      -0.019   1.526   0.010  0.00  0.00    +0.006 C 
ATOM     19  C   UNL     1       0.002  -0.004   0.002  0.00  0.00    +0.022 C 
ENDBRANCH  15  19
ENDBRANCH  11  15
ENDBRANCH  10  12
ENDBRANCH   1  10
BRANCH   4  20
ATOM     20  C   UNL     1       2.233  -6.740  -6.096  0.00  0.00    +0.070 C 
BRANCH  20  21
ATOM     21  C   UNL     1       3.391  -7.216  -6.934  0.00  0.00    -0.041 A 
ATOM     22  C   UNL     1       3.390  -6.998  -8.300  0.00  0.00    +0.007 A 
ATOM     23  C   UNL     1       4.450  -7.433  -9.073  0.00  0.00    +0.050 A 
ATOM     24  C   UNL     1       5.518  -8.088  -8.480  0.00  0.00    +0.166 A 
ATOM     25  C   UNL     1       5.519  -8.307  -7.105  0.00  0.00    +0.166 A 
ATOM     26  C   UNL     1       4.455  -7.864  -6.336  0.00  0.00    +0.053 A 
ATOM     27  O   UNL     1       6.667  -8.965  -6.769  0.00  0.00    -0.453 OA
ATOM     28  C   UNL     1       7.175  -9.506  -8.003  0.00  0.00    +0.466 C 
ATOM     29  O   UNL     1       6.665  -8.608  -9.006  0.00  0.00    -0.453 OA
ENDBRANCH  20  21
ENDBRANCH   4  20
TORSDOF 6
