REMARK  Name = ZINC64636545
REMARK  4 active torsions:
REMARK  status: ('A' for Active; 'I' for Inactive)
REMARK    1  A    between atoms: C_5  and  C_12
REMARK    2  A    between atoms: C_18  and  C_20
REMARK    3  A    between atoms: N_22  and  C_25
REMARK    4  A    between atoms: C_25  and  C_26
REMARK                            x       y       z     vdW  Elec       q    Type
REMARK                         _______ _______ _______ _____ _____    ______ ____
ROOT
ATOM      1  C   UNL     1       5.401   0.783  -1.300  0.00  0.00    +0.119 C 
ATOM      2  C   UNL     1       6.336  -0.444  -1.315  0.00  0.00    +0.028 C 
ATOM      3  C   UNL     1       6.344  -0.856  -2.811  0.00  0.00    +0.021 C 
ATOM      4  C   UNL     1       4.888  -0.534  -3.230  0.00  0.00    +0.108 C 
ATOM      5  N   UNL     1       4.546   0.700  -2.493  0.00  0.00    -0.289 N 
ATOM      6  C   UNL     1       3.608   1.599  -2.852  0.00  0.00    +0.269 C 
ATOM      7  O   UNL     1       3.412   2.581  -2.163  0.00  0.00    -0.268 OA
ENDROOT
BRANCH   1  12
ATOM      8  C   UNL     1      -0.017   1.405   0.010  0.00  0.00    +0.040 A 
ATOM      9  C   UNL     1       1.108   2.146   0.003  0.00  0.00    +0.030 A 
ATOM     10  C   UNL     1       2.417   1.477  -0.013  0.00  0.00    +0.060 A 
ATOM     11  N   UNL     1       3.639   1.925  -0.023  0.00  0.00    -0.362 N 
ATOM     12  C   UNL     1       4.536   0.763  -0.038  0.00  0.00    +0.195 C 
ATOM     13  N   UNL     1       3.673  -0.425  -0.036  0.00  0.00    -0.362 N 
ATOM     14  C   UNL     1       2.438  -0.011  -0.021  0.00  0.00    +0.063 A 
ATOM     15  C   UNL     1       1.151  -0.715  -0.012  0.00  0.00    +0.065 A 
ATOM     16  C   UNL     1       0.002  -0.004   0.002  0.00  0.00    +0.125 A 
ATOM     17  F   UNL     1      -1.174  -0.669   0.010  0.00  0.00    -0.205 F 
ATOM     18  H   UNL     1       3.908   2.857  -0.020  0.00  0.00    +0.162 HD
ATOM     19  H   UNL     1       3.969  -1.349  -0.043  0.00  0.00    +0.162 HD
ENDBRANCH   1  12
BRANCH   6  20
ATOM     20  C   UNL     1       2.818   1.390  -4.080  0.00  0.00    +0.167 A 
ATOM     21  C   UNL     1       1.846   2.224  -4.556  0.00  0.00    +0.143 A 
ATOM     22  N   UNL     1       1.379   1.671  -5.693  0.00  0.00    -0.251 N 
ATOM     23  N   UNL     1       2.095   0.482  -5.889  0.00  0.00    -0.065 NA
ATOM     24  N   UNL     1       2.938   0.351  -4.924  0.00  0.00    -0.125 NA
BRANCH  22  25
ATOM     25  C   UNL     1       0.325   2.208  -6.557  0.00  0.00    +0.148 C 
BRANCH  25  26
ATOM     26  C   UNL     1       0.855   2.339  -7.987  0.00  0.00    +0.010 C 
ATOM     27  C   UNL     1       1.977   3.379  -8.021  0.00  0.00    +0.005 C 
ATOM     28  C   UNL     1       2.507   3.509  -9.451  0.00  0.00    +0.000 C 
ATOM     29  C   UNL     1       1.373   3.952 -10.377  0.00  0.00    +0.000 C 
ATOM     30  C   UNL     1       0.251   2.913 -10.342  0.00  0.00    +0.000 C 
ATOM     31  C   UNL     1      -0.279   2.782  -8.912  0.00  0.00    +0.005 C 
ENDBRANCH  25  26
ENDBRANCH  22  25
ENDBRANCH   6  20
TORSDOF 4
