REMARK  Name = ZINC63383809
REMARK  11 active torsions:
REMARK  status: ('A' for Active; 'I' for Inactive)
REMARK    1  A    between atoms: C_1  and  C_2
REMARK    2  A    between atoms: C_2  and  C_3
REMARK    3  A    between atoms: C_3  and  C_4
REMARK    4  A    between atoms: C_4  and  N_5
REMARK    5  A    between atoms: C_6  and  C_8
REMARK    6  A    between atoms: C_8  and  C_10
REMARK    7  A    between atoms: C_8  and  N_14
REMARK    8  A    between atoms: C_10  and  C_11
REMARK    9  A    between atoms: C_11  and  C_12
REMARK   10  A    between atoms: C_11  and  C_13
REMARK   11  A    between atoms: C_15  and  C_17
REMARK                            x       y       z     vdW  Elec       q    Type
REMARK                         _______ _______ _______ _____ _____    ______ ____
ROOT
ATOM      1  C   UNL     1       2.187  -8.075  -4.806  0.00  0.00    +0.167 C 
ATOM      2  C   UNL     1       3.437  -8.877  -4.395  0.00  0.00    +0.065 C 
ATOM      3  C   UNL     1       3.201 -10.308  -4.811  0.00  0.00    -0.034 C 
ATOM      4  C   UNL     1       3.274 -11.437  -4.115  0.00  0.00    -0.001 A 
ATOM      5  C   UNL     1       3.700 -11.707  -2.732  0.00  0.00    +0.010 A 
ATOM      6  C   UNL     1       3.631 -13.002  -2.326  0.00  0.00    +0.001 A 
ATOM      7  C   UNL     1       3.185 -14.043  -3.147  0.00  0.00    +0.002 A 
ATOM      8  C   UNL     1       2.783 -13.887  -4.434  0.00  0.00    +0.026 A 
ATOM      9  C   UNL     1       2.819 -12.570  -4.977  0.00  0.00    +0.043 A 
ATOM     10  N   UNL     1       2.517 -12.142  -6.166  0.00  0.00    -0.375 N 
ATOM     11  C   UNL     1       2.791 -10.704  -6.225  0.00  0.00    +0.131 C 
ATOM     12  C   UNL     1       1.526  -9.902  -6.552  0.00  0.00    +0.134 C 
ATOM     13  N   UNL     1       1.783  -8.500  -6.153  0.00  0.00    -0.276 N 
ATOM     14  C   UNL     1       1.596  -7.706  -7.222  0.00  0.00    +0.248 C 
ATOM     15  O   UNL     1       1.647  -6.491  -7.204  0.00  0.00    -0.270 OA
ATOM     16  C   UNL     1       1.322  -8.516  -8.410  0.00  0.00    +0.042 A 
ATOM     17  C   UNL     1       1.266  -9.892  -8.023  0.00  0.00    -0.013 A 
ATOM     18  C   UNL     1       1.019 -10.909  -8.918  0.00  0.00    +0.006 A 
ATOM     19  C   UNL     1       0.809 -10.546 -10.246  0.00  0.00    +0.000 A 
ATOM     20  C   UNL     1       0.845  -9.227 -10.653  0.00  0.00    +0.001 A 
ATOM     21  C   UNL     1       1.116  -8.143  -9.741  0.00  0.00    +0.013 A 
ATOM     22  H   UNL     1       2.170 -12.683  -6.893  0.00  0.00    +0.160 HD
ENDROOT
BRANCH   1  24
ATOM     23  N   UNL     1       1.951  -5.785  -3.900  0.00  0.00    -0.302 N 
ATOM     24  C   UNL     1       2.509  -6.602  -4.815  0.00  0.00    +0.235 C 
ATOM     25  O   UNL     1       3.271  -6.153  -5.645  0.00  0.00    -0.274 OA
ATOM     26  H   UNL     1       1.402  -6.154  -3.191  0.00  0.00    +0.150 HD
BRANCH  23  27
ATOM     27  C   UNL     1       2.175  -4.339  -3.976  0.00  0.00    +0.159 C 
BRANCH  27  29
ATOM     28  N   UNL     1       2.324  -2.454  -2.382  0.00  0.00    -0.314 N 
ATOM     29  C   UNL     1       1.937  -3.722  -2.622  0.00  0.00    +0.233 C 
ATOM     30  O   UNL     1       1.396  -4.366  -1.749  0.00  0.00    -0.274 OA
ATOM     31  H   UNL     1       2.798  -1.954  -3.066  0.00  0.00    +0.149 HD
BRANCH  28  32
ATOM     32  C   UNL     1       2.030  -1.830  -1.090  0.00  0.00    +0.104 C 
BRANCH  32  33
ATOM     33  C   UNL     1       2.574  -0.400  -1.078  0.00  0.00    +0.018 C 
BRANCH  33  35
ATOM     34  C   UNL     1       2.811   1.681   0.283  0.00  0.00    +0.004 C 
ATOM     35  C   UNL     1       2.267   0.252   0.272  0.00  0.00    -0.002 C 
ENDBRANCH  33  35
ENDBRANCH  32  33
ENDBRANCH  28  32
ENDBRANCH  27  29
BRANCH  27  36
ATOM     36  C   UNL     1       1.209  -3.727  -4.993  0.00  0.00    +0.034 C 
BRANCH  36  37
ATOM     37  C   UNL     1       1.464  -2.222  -5.096  0.00  0.00    -0.015 C 
ATOM     38  C   UNL     1       2.848  -1.979  -5.699  0.00  0.00    +0.007 C 
ATOM     39  C   UNL     1       0.399  -1.585  -5.991  0.00  0.00    +0.007 C 
ENDBRANCH  36  37
ENDBRANCH  27  36
ENDBRANCH  23  27
ENDBRANCH   1  24
TORSDOF 8
