REMARK  Name = ZINC12475521
REMARK  11 active torsions:
REMARK  status: ('A' for Active; 'I' for Inactive)
REMARK    1  A    between atoms: C_1  and  C_2
REMARK    2  A    between atoms: C_2  and  O_3
REMARK    3  A    between atoms: O_3  and  C_4
REMARK    4  A    between atoms: C_4  and  C_6
REMARK    5  A    between atoms: C_7  and  C_31
REMARK    6  A    between atoms: C_11  and  C_15
REMARK    7  A    between atoms: C_15  and  S_16
REMARK    8  A    between atoms: S_16  and  C_17
REMARK    9  A    between atoms: C_20  and  C_29
REMARK   10  A    between atoms: N_21  and  C_22
REMARK   11  A    between atoms: C_27  and  C_28
REMARK                            x       y       z     vdW  Elec       q    Type
REMARK                         _______ _______ _______ _____ _____    ______ ____
ROOT
ATOM      1  C   UNL     1       7.224  -6.962  -1.731  0.00  0.00    +0.102 A 
ATOM      2  C   UNL     1       7.047  -6.499  -0.462  0.00  0.00    -0.017 A 
ATOM      3  C   UNL     1       6.380  -5.287  -0.249  0.00  0.00    +0.051 A 
ATOM      4  C   UNL     1       6.086  -4.621   0.979  0.00  0.00    +0.128 A 
ATOM      5  N   UNL     1       5.441  -3.467   0.949  0.00  0.00    -0.216 NA
ATOM      6  C   UNL     1       5.047  -2.908  -0.182  0.00  0.00    +0.143 A 
ATOM      7  N   UNL     1       5.288  -3.473  -1.350  0.00  0.00    -0.224 NA
ATOM      8  C   UNL     1       5.929  -4.621  -1.416  0.00  0.00    +0.115 A 
ATOM      9  S   UNL     1       6.449  -5.699  -2.726  0.00  0.00    -0.062 S 
ATOM     10  N   UNL     1       6.475  -5.172   2.183  0.00  0.00    -0.343 N 
ATOM     11  C   UNL     1       7.569  -7.290   0.709  0.00  0.00    +0.046 C 
ATOM     12  H   UNL     1       7.246  -5.760   2.221  0.00  0.00    +0.144 HD
ATOM     13  H   UNL     1       5.978  -4.972   2.991  0.00  0.00    +0.144 HD
ENDROOT
BRANCH   1  14
ATOM     14  C   UNL     1       7.887  -8.193  -2.171  0.00  0.00    +0.346 C 
ATOM     15  O   UNL     1       8.367  -8.951  -1.351  0.00  0.00    -0.244 OA
BRANCH  14  16
ATOM     16  O   UNL     1       7.964  -8.485  -3.486  0.00  0.00    -0.461 OA
BRANCH  16  18
ATOM     17  C   UNL     1       8.623  -9.879  -5.371  0.00  0.00    +0.048 C 
ATOM     18  C   UNL     1       8.635  -9.720  -3.849  0.00  0.00    +0.229 C 
ENDBRANCH  16  18
ENDBRANCH  14  16
ENDBRANCH   1  14
BRANCH   6  19
ATOM     19  C   UNL     1       4.312  -1.593  -0.137  0.00  0.00    +0.153 C 
BRANCH  19  20
ATOM     20  S   UNL     1       2.532  -1.901  -0.022  0.00  0.00    -0.078 S 
BRANCH  20  21
ATOM     21  C   UNL     1       1.937  -0.243   0.014  0.00  0.00    +0.197 A 
ATOM     22  N   UNL     1       2.663   0.849  -0.035  0.00  0.00    -0.122 NA
ATOM     23  N   UNL     1       1.903   1.883   0.011  0.00  0.00    -0.133 NA
ATOM     24  C   UNL     1       0.654   1.519   0.093  0.00  0.00    +0.135 A 
ATOM     25  N   UNL     1       0.629   0.150   0.097  0.00  0.00    -0.274 N 
ATOM     26  C   UNL     1      -0.541   2.435   0.162  0.00  0.00    +0.088 C 
BRANCH  25  27
ATOM     27  C   UNL     1      -0.501  -0.677   0.172  0.00  0.00    +0.053 A 
ATOM     28  C   UNL     1      -1.140  -1.089  -0.989  0.00  0.00    +0.026 A 
ATOM     29  C   UNL     1      -2.253  -1.903  -0.912  0.00  0.00    +0.002 A 
ATOM     30  C   UNL     1      -2.731  -2.308   0.321  0.00  0.00    +0.000 A 
ATOM     31  C   UNL     1      -2.097  -1.899   1.479  0.00  0.00    +0.005 A 
ATOM     32  C   UNL     1      -0.981  -1.089   1.408  0.00  0.00    -0.027 A 
ATOM     33  C   UNL     1      -0.287  -0.648   2.671  0.00  0.00    +0.046 C 
ENDBRANCH  25  27
ENDBRANCH  20  21
ENDBRANCH  19  20
ENDBRANCH   6  19
TORSDOF 7
