REMARK  Name = ZINC14013364
REMARK  10 active torsions:
REMARK  status: ('A' for Active; 'I' for Inactive)
REMARK    1  A    between atoms: C_1  and  C_2
REMARK    2  A    between atoms: C_2  and  O_3
REMARK    3  A    between atoms: O_3  and  C_4
REMARK    4  A    between atoms: C_4  and  C_6
REMARK    5  A    between atoms: C_9  and  N_12
REMARK    6  A    between atoms: C_13  and  C_15
REMARK    7  A    between atoms: C_15  and  C_16
REMARK    8  A    between atoms: N_27  and  C_30
REMARK    9  A    between atoms: C_33  and  C_37
REMARK   10  A    between atoms: C_34  and  C_36
REMARK                            x       y       z     vdW  Elec       q    Type
REMARK                         _______ _______ _______ _____ _____    ______ ____
ROOT
ATOM      1  C   UNL     1      -0.788   2.053   1.223  0.00  0.00    +0.112 C 
ATOM      2  C   UNL     1      -1.081   3.553   1.072  0.00  0.00    +0.103 C 
ATOM      3  S   UNL     1      -0.112   4.243   2.463  0.00  0.00    -0.085 S 
ATOM      4  C   UNL     1       0.568   2.734   3.119  0.00  0.00    +0.174 A 
ATOM      5  N   UNL     1       0.097   1.718   2.337  0.00  0.00    -0.283 N 
ATOM      6  C   UNL     1       0.493   0.443   2.656  0.00  0.00    +0.266 A 
ATOM      7  O   UNL     1       0.103  -0.501   1.992  0.00  0.00    -0.267 OA
ATOM      8  C   UNL     1       1.351   0.227   3.755  0.00  0.00    +0.103 A 
ATOM      9  C   UNL     1       1.933  -0.918   4.340  0.00  0.00    +0.150 A 
ATOM     10  N   UNL     1       2.658  -0.541   5.356  0.00  0.00    -0.172 NA
ATOM     11  N   UNL     1       2.591   0.851   5.489  0.00  0.00    -0.214 N 
ATOM     12  C   UNL     1       1.786   1.334   4.503  0.00  0.00    +0.171 A 
ATOM     13  N   UNL     1       1.368   2.553   4.146  0.00  0.00    -0.203 NA
ENDROOT
BRANCH  11  14
ATOM     14  C   UNL     1       3.240   1.615   6.467  0.00  0.00    +0.068 A 
ATOM     15  C   UNL     1       3.727   2.878   6.155  0.00  0.00    +0.028 A 
ATOM     16  C   UNL     1       4.361   3.631   7.123  0.00  0.00    +0.006 A 
ATOM     17  C   UNL     1       4.524   3.124   8.399  0.00  0.00    -0.047 A 
ATOM     18  C   UNL     1       4.046   1.865   8.712  0.00  0.00    -0.046 A 
ATOM     19  C   UNL     1       3.405   1.109   7.750  0.00  0.00    +0.031 A 
ATOM     20  C   UNL     1       4.224   1.316  10.104  0.00  0.00    +0.044 C 
ATOM     21  C   UNL     1       5.222   3.946   9.452  0.00  0.00    +0.044 C 
ENDBRANCH  11  14
BRANCH   1  22
ATOM     22  C   UNL     1      -0.147   1.552  -0.073  0.00  0.00    +0.122 C 
BRANCH  22  24
ATOM     23  N   UNL     1      -0.715   1.490  -2.480  0.00  0.00    -0.285 N 
ATOM     24  C   UNL     1      -1.110   1.743  -1.216  0.00  0.00    +0.219 C 
ATOM     25  O   UNL     1      -2.241   2.125  -0.999  0.00  0.00    -0.275 OA
ATOM     26  H   UNL     1       0.168   1.127  -2.648  0.00  0.00    +0.155 HD
BRANCH  23  30
ATOM     27  C   UNL     1      -3.287   2.271  -5.662  0.00  0.00    +0.059 A 
ATOM     28  C   UNL     1      -1.911   2.471  -5.808  0.00  0.00    +0.017 A 
ATOM     29  C   UNL     1      -1.064   2.212  -4.754  0.00  0.00    +0.024 A 
ATOM     30  C   UNL     1      -1.576   1.752  -3.545  0.00  0.00    +0.033 A 
ATOM     31  C   UNL     1      -2.944   1.547  -3.398  0.00  0.00    +0.024 A 
ATOM     32  C   UNL     1      -3.798   1.810  -4.445  0.00  0.00    +0.017 A 
BRANCH  27  33
ATOM     33  C   UNL     1      -4.197   2.547  -6.789  0.00  0.00    +0.339 C 
ATOM     34  O   UNL     1      -3.752   2.948  -7.846  0.00  0.00    -0.245 OA
BRANCH  33  35
ATOM     35  O   UNL     1      -5.523   2.354  -6.646  0.00  0.00    -0.461 OA
BRANCH  35  37
ATOM     36  C   UNL     1      -7.823   2.369  -7.448  0.00  0.00    +0.048 C 
ATOM     37  C   UNL     1      -6.359   2.646  -7.797  0.00  0.00    +0.229 C 
ENDBRANCH  35  37
ENDBRANCH  33  35
ENDBRANCH  27  33
ENDBRANCH  23  30
ENDBRANCH  22  24
ENDBRANCH   1  22
TORSDOF 7
