REMARK  Name = ZINC63373166
REMARK  9 active torsions:
REMARK  status: ('A' for Active; 'I' for Inactive)
REMARK    1  A    between atoms: C_1  and  C_2
REMARK    2  A    between atoms: C_2  and  C_3
REMARK    3  A    between atoms: C_2  and  C_4
REMARK    4  A    between atoms: C_4  and  C_6
REMARK    5  A    between atoms: C_4  and  N_18
REMARK    6  A    between atoms: N_8  and  C_9
REMARK    7  A    between atoms: C_9  and  C_10
REMARK    8  A    between atoms: C_10  and  C_11
REMARK    9  A    between atoms: C_21  and  C_37
REMARK                            x       y       z     vdW  Elec       q    Type
REMARK                         _______ _______ _______ _____ _____    ______ ____
ROOT
ATOM      1  N   UNL     1      -2.075  -0.691  -1.344  0.00  0.00    -0.212 N 
ATOM      2  C   UNL     1      -2.413  -1.820  -1.999  0.00  0.00    +0.249 C 
ATOM      3  O   UNL     1      -2.183  -2.961  -1.658  0.00  0.00    -0.273 OA
ATOM      4  C   UNL     1      -3.138  -1.369  -3.248  0.00  0.00    +0.136 C 
ATOM      5  C   UNL     1      -2.373  -1.826  -4.496  0.00  0.00    +0.139 C 
ATOM      6  C   UNL     1      -2.816  -0.913  -5.633  0.00  0.00    -0.034 C 
ATOM      7  C   UNL     1      -3.301  -1.707  -6.582  0.00  0.00    -0.001 A 
ATOM      8  C   UNL     1      -3.819  -1.415  -7.929  0.00  0.00    +0.010 A 
ATOM      9  C   UNL     1      -4.253  -2.485  -8.648  0.00  0.00    +0.001 A 
ATOM     10  C   UNL     1      -4.223  -3.798  -8.168  0.00  0.00    +0.002 A 
ATOM     11  C   UNL     1      -3.758  -4.157  -6.944  0.00  0.00    +0.026 A 
ATOM     12  C   UNL     1      -3.271  -3.119  -6.096  0.00  0.00    +0.043 A 
ATOM     13  N   UNL     1      -2.757  -3.183  -4.891  0.00  0.00    -0.375 N 
ATOM     14  C   UNL     1      -2.740   0.593  -5.562  0.00  0.00    +0.052 C 
ATOM     15  C   UNL     1      -3.439   1.023  -4.256  0.00  0.00    +0.115 C 
ATOM     16  N   UNL     1      -3.024   0.105  -3.191  0.00  0.00    -0.269 N 
ATOM     17  C   UNL     1      -2.457   0.404  -2.015  0.00  0.00    +0.313 C 
ATOM     18  O   UNL     1      -2.302   1.537  -1.606  0.00  0.00    -0.252 OA
ATOM     19  C   UNL     1      -4.596  -1.832  -3.261  0.00  0.00    +0.044 C 
ATOM     20  H   UNL     1      -2.650  -3.982  -4.352  0.00  0.00    +0.160 HD
ENDROOT
BRANCH   1  21
ATOM     21  C   UNL     1      -1.383  -0.664  -0.053  0.00  0.00    +0.174 C 
BRANCH  21  22
ATOM     22  C   UNL     1      -2.297  -0.087   0.996  0.00  0.00    +0.234 C 
ATOM     23  O   UNL     1      -3.268   0.560   0.665  0.00  0.00    -0.274 OA
ATOM     24  N   UNL     1      -2.037  -0.289   2.303  0.00  0.00    -0.313 N 
ATOM     25  H   UNL     1      -1.220  -0.740   2.571  0.00  0.00    +0.149 HD
BRANCH  24  26
ATOM     26  C   UNL     1      -2.986   0.171   3.319  0.00  0.00    +0.109 C 
BRANCH  26  27
ATOM     27  C   UNL     1      -2.454  -0.180   4.710  0.00  0.00    +0.056 C 
BRANCH  27  28
ATOM     28  C   UNL     1      -3.431   0.293   5.756  0.00  0.00    -0.011 A 
ATOM     29  C   UNL     1      -3.257   1.526   6.356  0.00  0.00    +0.006 A 
ATOM     30  C   UNL     1      -4.152   1.961   7.316  0.00  0.00    +0.000 A 
ATOM     31  C   UNL     1      -5.223   1.163   7.675  0.00  0.00    +0.003 A 
ATOM     32  C   UNL     1      -5.399  -0.069   7.076  0.00  0.00    +0.038 A 
ATOM     33  C   UNL     1      -4.505  -0.504   6.111  0.00  0.00    +0.127 A 
ATOM     34  F   UNL     1      -4.679  -1.706   5.521  0.00  0.00    -0.205 F 
ENDBRANCH  27  28
ENDBRANCH  26  27
ENDBRANCH  24  26
ENDBRANCH  21  22
BRANCH  21  36
ATOM     35  C   UNL     1       0.657   0.137   1.146  0.00  0.00    +0.009 C 
ATOM     36  C   UNL     1      -0.126   0.201  -0.166  0.00  0.00    +0.013 C 
ATOM     37  C   UNL     1       0.749  -0.318  -1.309  0.00  0.00    +0.009 C 
ENDBRANCH  21  36
ENDBRANCH   1  21
TORSDOF 6
