REMARK  Name = ZINC61118856
REMARK  3 active torsions:
REMARK  status: ('A' for Active; 'I' for Inactive)
REMARK    1  A    between atoms: C_1  and  C_2
REMARK    2  A    between atoms: C_4  and  N_9
REMARK    3  A    between atoms: C_15  and  N_20
REMARK                            x       y       z     vdW  Elec       q    Type
REMARK                         _______ _______ _______ _____ _____    ______ ____
ROOT
ATOM      1  N   UNL     1       0.028  -2.771  -2.423  0.00  0.00    -0.202 N 
ATOM      2  C   UNL     1       0.020  -2.186  -3.634  0.00  0.00    +0.258 C 
ATOM      3  O   UNL     1       0.008  -0.989  -3.842  0.00  0.00    -0.269 OA
ATOM      4  C   UNL     1       0.027  -3.238  -4.667  0.00  0.00    +0.050 A 
ATOM      5  C   UNL     1       0.023  -3.231  -6.056  0.00  0.00    +0.015 A 
ATOM      6  C   UNL     1       0.032  -4.426  -6.750  0.00  0.00    +0.023 A 
ATOM      7  C   UNL     1       0.044  -5.637  -6.066  0.00  0.00    +0.025 A 
ATOM      8  C   UNL     1       0.049  -5.657  -4.670  0.00  0.00    +0.036 A 
ATOM      9  C   UNL     1       0.040  -4.465  -3.969  0.00  0.00    +0.051 A 
ATOM     10  C   UNL     1       0.046  -4.112  -2.533  0.00  0.00    +0.258 C 
ATOM     11  O   UNL     1       0.062  -4.900  -1.609  0.00  0.00    -0.269 OA
ENDROOT
BRANCH   1  15
ATOM     12  C   UNL     1      -0.018   1.503   0.010  0.00  0.00    +0.047 C 
ATOM     13  C   UNL     1       0.002  -0.004   0.002  0.00  0.00    -0.013 A 
ATOM     14  C   UNL     1       0.006  -0.688  -1.198  0.00  0.00    +0.030 A 
ATOM     15  C   UNL     1       0.025  -2.076  -1.205  0.00  0.00    +0.045 A 
ATOM     16  C   UNL     1       0.041  -2.774  -0.006  0.00  0.00    +0.027 A 
ATOM     17  C   UNL     1       0.037  -2.087   1.192  0.00  0.00    +0.040 A 
ATOM     18  C   UNL     1       0.023  -0.702   1.197  0.00  0.00    +0.126 A 
ATOM     19  F   UNL     1       0.024  -0.032   2.370  0.00  0.00    -0.205 F 
ENDBRANCH   1  15
BRANCH   7  20
ATOM     20  N   UNL     1       0.052  -6.833  -6.775  0.00  0.00    -0.358 N 
ATOM     21  H   UNL     1       0.049  -6.821  -7.745  0.00  0.00    +0.142 HD
ATOM     22  H   UNL     1       0.061  -7.678  -6.300  0.00  0.00    +0.142 HD
ENDBRANCH   7  20
TORSDOF 2
