REMARK  Name = ZINC39938829
REMARK  7 active torsions:
REMARK  status: ('A' for Active; 'I' for Inactive)
REMARK    1  A    between atoms: C_4  and  C_7
REMARK    2  A    between atoms: C_7  and  S_8
REMARK    3  A    between atoms: S_8  and  N_11
REMARK    4  A    between atoms: C_17  and  C_19
REMARK    5  A    between atoms: C_19  and  S_20
REMARK    6  A    between atoms: S_20  and  C_21
REMARK    7  A    between atoms: C_25  and  C_27
REMARK                            x       y       z     vdW  Elec       q    Type
REMARK                         _______ _______ _______ _____ _____    ______ ____
ROOT
ATOM      1  N   UNL     1       5.696  -1.816   1.514  0.00  0.00    -0.178 NA
ATOM      2  C   UNL     1       5.728  -3.283   1.441  0.00  0.00    +0.128 C 
ATOM      3  C   UNL     1       6.471  -3.694   0.164  0.00  0.00    +0.125 C 
ATOM      4  N   UNL     1       7.739  -2.954   0.100  0.00  0.00    -0.298 N 
ATOM      5  C   UNL     1       7.707  -1.486   0.173  0.00  0.00    +0.125 C 
ATOM      6  C   UNL     1       6.964  -1.076   1.445  0.00  0.00    +0.128 C 
ATOM      7  C   UNL     1       8.911  -3.609  -0.023  0.00  0.00    +0.226 C 
ATOM      8  O   UNL     1       8.925  -4.821  -0.083  0.00  0.00    -0.275 OA
ENDROOT
BRANCH   1   9
ATOM      9  S   UNL     1       4.257  -1.011   1.666  0.00  0.00    +0.036 S 
ATOM     10  O   UNL     1       4.593   0.216   2.298  0.00  0.00    -0.158 OA
ATOM     11  O   UNL     1       3.387  -1.939   2.300  0.00  0.00    -0.158 OA
BRANCH   9  12
ATOM     12  C   UNL     1       3.711  -0.707  -0.038  0.00  0.00    +0.220 C 
BRANCH  12  16
ATOM     13  C   UNL     1      -0.017   1.378   0.010  0.00  0.00    +0.000 A 
ATOM     14  C   UNL     1       1.171   2.086   0.002  0.00  0.00    +0.000 A 
ATOM     15  C   UNL     1       2.377   1.411  -0.013  0.00  0.00    +0.005 A 
ATOM     16  C   UNL     1       2.396   0.029  -0.020  0.00  0.00    -0.025 A 
ATOM     17  C   UNL     1       1.208  -0.679  -0.012  0.00  0.00    +0.005 A 
ATOM     18  C   UNL     1       0.002  -0.004   0.002  0.00  0.00    +0.000 A 
ENDBRANCH  12  16
ENDBRANCH   9  12
ENDBRANCH   1   9
BRANCH   7  19
ATOM     19  C   UNL     1      10.203  -2.837  -0.087  0.00  0.00    +0.170 C 
BRANCH  19  20
ATOM     20  S   UNL     1      11.591  -3.993  -0.252  0.00  0.00    -0.087 S 
BRANCH  20  21
ATOM     21  C   UNL     1      13.052  -2.919  -0.314  0.00  0.00    +0.339 C 
ATOM     22  N   UNL     1      13.131  -2.088   0.899  0.00  0.00    -0.219 N 
ATOM     23  N   UNL     1      13.056  -0.761   0.450  0.00  0.00    -0.145 NA
ATOM     24  C   UNL     1      12.945  -0.732  -0.851  0.00  0.00    +0.238 C 
ATOM     25  O   UNL     1      12.936  -1.978  -1.391  0.00  0.00    -0.443 OA
ATOM     26  H   UNL     1      13.217  -2.393   1.815  0.00  0.00    +0.173 HD
BRANCH  24  27
ATOM     27  C   UNL     1      12.848   0.447  -1.603  0.00  0.00    +0.043 C 
ATOM     28  C   UNL     1      12.858   1.758  -1.123  0.00  0.00    +0.008 A 
ATOM     29  C   UNL     1      12.960   2.295   0.178  0.00  0.00    +0.010 A 
ATOM     30  C   UNL     1      12.942   3.642   0.353  0.00  0.00    +0.001 A 
ATOM     31  C   UNL     1      12.824   4.518  -0.727  0.00  0.00    +0.002 A 
ATOM     32  C   UNL     1      12.722   4.072  -2.003  0.00  0.00    +0.026 A 
ATOM     33  C   UNL     1      12.734   2.677  -2.265  0.00  0.00    +0.043 A 
ATOM     34  N   UNL     1      12.650   2.001  -3.395  0.00  0.00    -0.380 N 
ATOM     35  C   UNL     1      12.718   0.566  -3.106  0.00  0.00    +0.154 C 
ATOM     36  H   UNL     1      12.562   2.393  -4.278  0.00  0.00    +0.160 HD
ENDBRANCH  24  27
ENDBRANCH  20  21
ENDBRANCH  19  20
ENDBRANCH   7  19
TORSDOF 7
