REMARK  Name = ZINC19794374
REMARK  11 active torsions:
REMARK  status: ('A' for Active; 'I' for Inactive)
REMARK    1  A    between atoms: C_1  and  C_2
REMARK    2  A    between atoms: C_2  and  O_3
REMARK    3  A    between atoms: O_3  and  C_4
REMARK    4  A    between atoms: C_4  and  C_6
REMARK    5  A    between atoms: C_9  and  C_10
REMARK    6  A    between atoms: C_13  and  C_15
REMARK    7  A    between atoms: C_15  and  N_16
REMARK    8  A    between atoms: C_17  and  C_19
REMARK    9  A    between atoms: N_21  and  C_22
REMARK   10  A    between atoms: C_25  and  C_28
REMARK   11  A    between atoms: C_30  and  C_31
REMARK                            x       y       z     vdW  Elec       q    Type
REMARK                         _______ _______ _______ _____ _____    ______ ____
ROOT
ATOM      1  C   UNL     1       3.540  -4.802   5.845  0.00  0.00    +0.130 A 
ATOM      2  C   UNL     1       4.014  -5.852   6.620  0.00  0.00    +0.049 A 
ATOM      3  C   UNL     1       4.645  -5.275   7.726  0.00  0.00    +0.047 A 
ATOM      4  C   UNL     1       4.538  -3.930   7.595  0.00  0.00    +0.123 A 
ATOM      5  O   UNL     1       3.881  -3.650   6.463  0.00  0.00    -0.459 OA
ENDROOT
BRANCH   1   9
ATOM      6  C   UNL     1       1.522  -2.380   2.441  0.00  0.00    +0.128 C 
ATOM      7  C   UNL     1       1.717  -3.737   2.736  0.00  0.00    +0.220 C 
ATOM      8  C   UNL     1       2.427  -3.768   3.958  0.00  0.00    +0.115 C 
ATOM      9  C   UNL     1       2.840  -4.916   4.636  0.00  0.00    +0.077 C 
ATOM     10  N   UNL     1       2.637  -2.488   4.356  0.00  0.00    -0.248 NA
ATOM     11  C   UNL     1       2.128  -1.651   3.490  0.00  0.00    +0.057 C 
ATOM     12  C   UNL     1       2.174  -0.149   3.596  0.00  0.00    +0.066 C 
ATOM     13  O   UNL     1       1.307  -4.800   2.002  0.00  0.00    -0.285 OA
BRANCH   6  14
ATOM     14  C   UNL     1       0.834  -1.827   1.272  0.00  0.00    +0.345 C 
ATOM     15  O   UNL     1       0.356  -2.572   0.438  0.00  0.00    -0.245 OA
BRANCH  14  16
ATOM     16  O   UNL     1       0.732  -0.491   1.120  0.00  0.00    -0.461 OA
BRANCH  16  18
ATOM     17  C   UNL     1       0.032   1.509  -0.043  0.00  0.00    +0.048 C 
ATOM     18  C   UNL     1       0.047  -0.021  -0.044  0.00  0.00    +0.229 C 
ENDBRANCH  16  18
ENDBRANCH  14  16
ENDBRANCH   6  14
ENDBRANCH   1   9
BRANCH   4  19
ATOM     19  C   UNL     1       5.080  -2.912   8.565  0.00  0.00    +0.179 C 
BRANCH  19  20
ATOM     20  N   UNL     1       6.449  -2.556   8.185  0.00  0.00    -0.300 N 
ATOM     21  C   UNL     1       7.138  -1.656   8.914  0.00  0.00    +0.300 C 
ATOM     22  O   UNL     1       6.625  -1.141   9.885  0.00  0.00    -0.265 OA
ATOM     23  H   UNL     1       6.860  -2.967   7.408  0.00  0.00    +0.150 HD
BRANCH  21  24
ATOM     24  C   UNL     1       8.534  -1.292   8.527  0.00  0.00    +0.303 C 
ATOM     25  O   UNL     1       9.048  -1.808   7.555  0.00  0.00    -0.265 OA
ATOM     26  N   UNL     1       9.224  -0.393   9.256  0.00  0.00    -0.278 N 
ATOM     27  H   UNL     1       8.791   0.069   9.992  0.00  0.00    +0.155 HD
BRANCH  26  28
ATOM     28  C   UNL     1      10.561  -0.124   8.952  0.00  0.00    +0.034 A 
ATOM     29  C   UNL     1      11.464   0.151   9.971  0.00  0.00    +0.023 A 
ATOM     30  C   UNL     1      12.785   0.416   9.667  0.00  0.00    +0.005 A 
ATOM     31  C   UNL     1      13.209   0.407   8.351  0.00  0.00    -0.050 A 
ATOM     32  C   UNL     1      12.312   0.134   7.334  0.00  0.00    +0.005 A 
ATOM     33  C   UNL     1      10.991  -0.138   7.631  0.00  0.00    +0.023 A 
ATOM     34  C   UNL     1      14.651   0.697   8.023  0.00  0.00    +0.044 C 
ENDBRANCH  26  28
ENDBRANCH  21  24
ENDBRANCH  19  20
ENDBRANCH   4  19
TORSDOF 8
