REMARK  Name = ZINC20149900
REMARK  3 active torsions:
REMARK  status: ('A' for Active; 'I' for Inactive)
REMARK    1  A    between atoms: C_1  and  C_2
REMARK    2  A    between atoms: C_7  and  N_8
REMARK    3  A    between atoms: C_11  and  C_17
REMARK                            x       y       z     vdW  Elec       q    Type
REMARK                         _______ _______ _______ _____ _____    ______ ____
ROOT
ATOM      1  N   UNL     1      -1.234   2.963   0.029  0.00  0.00    -0.256 N 
ATOM      2  C   UNL     1      -0.097   3.686   0.022  0.00  0.00    +0.265 A 
ATOM      3  O   UNL     1      -0.145   4.904   0.028  0.00  0.00    -0.267 OA
ATOM      4  C   UNL     1       1.144   3.026   0.007  0.00  0.00    +0.072 A 
ATOM      5  C   UNL     1       1.170   1.663  -0.000  0.00  0.00    +0.258 A 
ATOM      6  N   UNL     1      -0.011   0.966   0.007  0.00  0.00    -0.302 N 
ATOM      7  C   UNL     1      -1.188   1.618   0.017  0.00  0.00    +0.168 A 
ATOM      8  S   UNL     1      -2.648   0.724   0.019  0.00  0.00    -0.012 S 
ATOM      9  O   UNL     1       2.348   1.005  -0.015  0.00  0.00    -0.267 OA
ATOM     10  H   UNL     1      -0.000  -0.134   0.006  0.00  0.00    +0.171 HD
ENDROOT
BRANCH   4  11
ATOM     11  C   UNL     1       2.429   3.815  -0.001  0.00  0.00    +0.001 C 
ATOM     12  C   UNL     1       2.526   4.594  -1.286  0.00  0.00    -0.054 A 
ATOM     13  C   UNL     1       2.163   3.965  -2.468  0.00  0.00    +0.002 A 
ATOM     14  C   UNL     1       2.240   4.639  -3.670  0.00  0.00    +0.000 A 
ATOM     15  C   UNL     1       2.682   5.949  -3.697  0.00  0.00    +0.000 A 
ATOM     16  C   UNL     1       3.043   6.577  -2.522  0.00  0.00    +0.004 A 
ATOM     17  C   UNL     1       2.964   5.900  -1.314  0.00  0.00    -0.047 A 
ATOM     18  C   UNL     1       3.364   6.627  -0.056  0.00  0.00    +0.016 C 
ATOM     19  C   UNL     1       3.607   5.624   1.072  0.00  0.00    -0.077 C 
ATOM     20  N   UNL     1       2.446   4.722   1.152  0.00  0.00    +0.387 N 
ATOM     21  H   UNL     1       1.524   5.322   1.160  0.00  0.00    -0.085 HD
ATOM     22  H   UNL     1       2.511   4.134   2.079  0.00  0.00    -0.085 HD
ENDBRANCH   4  11
BRANCH   1  29
ATOM     23  C   UNL     1      -2.407   3.567   2.551  0.00  0.00    +0.046 C 
ATOM     24  C   UNL     1      -3.080   3.929   1.253  0.00  0.00    -0.026 A 
ATOM     25  C   UNL     1      -4.300   4.578   1.264  0.00  0.00    +0.005 A 
ATOM     26  C   UNL     1      -4.921   4.905   0.073  0.00  0.00    +0.000 A 
ATOM     27  C   UNL     1      -4.322   4.590  -1.133  0.00  0.00    +0.002 A 
ATOM     28  C   UNL     1      -3.100   3.946  -1.151  0.00  0.00    +0.026 A 
ATOM     29  C   UNL     1      -2.474   3.616   0.044  0.00  0.00    +0.055 A 
ENDBRANCH   1  29
TORSDOF 2
