REMARK  Name = ZINC64058013
REMARK  6 active torsions:
REMARK  status: ('A' for Active; 'I' for Inactive)
REMARK    1  A    between atoms: C_1  and  C_2
REMARK    2  A    between atoms: C_7  and  C_8
REMARK    3  A    between atoms: C_8  and  C_9
REMARK    4  A    between atoms: N_18  and  C_19
REMARK    5  A    between atoms: C_25  and  C_27
REMARK    6  A    between atoms: C_27  and  C_28
REMARK                            x       y       z     vdW  Elec       q    Type
REMARK                         _______ _______ _______ _____ _____    ______ ____
ROOT
ATOM      1  C   UNL     1      -1.413   0.387   2.899  0.00  0.00    +0.164 C 
ATOM      2  N   UNL     1      -2.155  -0.838   3.220  0.00  0.00    -0.323 N 
ATOM      3  C   UNL     1      -2.565  -0.733   4.555  0.00  0.00    +0.067 A 
ATOM      4  C   UNL     1      -3.293  -1.607   5.354  0.00  0.00    +0.028 A 
ATOM      5  C   UNL     1      -3.560  -1.240   6.666  0.00  0.00    +0.019 A 
ATOM      6  C   UNL     1      -3.097  -0.026   7.133  0.00  0.00    +0.084 A 
ATOM      7  N   UNL     1      -2.409   0.785   6.353  0.00  0.00    -0.348 N 
ATOM      8  C   UNL     1      -2.129   0.477   5.093  0.00  0.00    +0.122 A 
ATOM      9  N   UNL     1      -1.423   1.195   4.124  0.00  0.00    -0.293 N 
ATOM     10  H   UNL     1      -2.330  -1.580   2.621  0.00  0.00    +0.148 HD
ATOM     11  H   UNL     1      -2.098   1.631   6.711  0.00  0.00    +0.167 HD
ENDROOT
BRANCH   9  12
ATOM     12  C   UNL     1      -0.807   2.513   4.298  0.00  0.00    +0.080 C 
ATOM     13  C   UNL     1       0.242   2.442   5.410  0.00  0.00    +0.041 C 
ATOM     14  C   UNL     1       0.909   3.812   5.566  0.00  0.00    +0.109 C 
ATOM     15  N   UNL     1      -0.135   4.824   5.784  0.00  0.00    -0.301 N 
ATOM     16  C   UNL     1      -1.241   4.917   4.821  0.00  0.00    +0.109 C 
ATOM     17  C   UNL     1      -1.883   3.534   4.673  0.00  0.00    +0.041 C 
ATOM     18  C   UNL     1      -0.078   5.651   6.846  0.00  0.00    +0.220 C 
ATOM     19  O   UNL     1       0.840   5.564   7.634  0.00  0.00    -0.275 OA
BRANCH  18  20
ATOM     20  C   UNL     1      -1.156   6.683   7.056  0.00  0.00    +0.129 C 
BRANCH  20  21
ATOM     21  C   UNL     1      -0.860   7.472   8.305  0.00  0.00    -0.033 C 
ATOM     22  C   UNL     1      -0.218   8.659   8.384  0.00  0.00    -0.001 A 
ATOM     23  C   UNL     1       0.376   9.538   7.370  0.00  0.00    +0.010 A 
ATOM     24  C   UNL     1       0.966  10.690   7.763  0.00  0.00    +0.001 A 
ATOM     25  C   UNL     1       1.024  11.065   9.113  0.00  0.00    +0.002 A 
ATOM     26  C   UNL     1       0.500  10.310  10.102  0.00  0.00    +0.026 A 
ATOM     27  C   UNL     1      -0.144   9.078   9.802  0.00  0.00    +0.043 A 
ATOM     28  N   UNL     1      -0.718   8.184  10.570  0.00  0.00    -0.380 N 
ATOM     29  C   UNL     1      -1.227   7.099   9.724  0.00  0.00    +0.145 C 
ATOM     30  H   UNL     1      -0.797   8.234  11.536  0.00  0.00    +0.160 HD
ENDBRANCH  20  21
ENDBRANCH  18  20
ENDBRANCH   9  12
BRANCH   1  31
ATOM     31  C   UNL     1       0.025   0.045   2.504  0.00  0.00    +0.077 C 
BRANCH  31  38
ATOM     32  C   UNL     1      -0.018   1.503   0.010  0.00  0.00    +0.044 C 
ATOM     33  C   UNL     1       0.002  -0.004   0.002  0.00  0.00    -0.047 A 
ATOM     34  C   UNL     1       0.006  -0.689  -1.199  0.00  0.00    +0.003 A 
ATOM     35  C   UNL     1       0.025  -2.071  -1.207  0.00  0.00    +0.000 A 
ATOM     36  C   UNL     1       0.040  -2.768  -0.013  0.00  0.00    +0.000 A 
ATOM     37  C   UNL     1       0.037  -2.084   1.188  0.00  0.00    +0.004 A 
ATOM     38  C   UNL     1       0.023  -0.702   1.195  0.00  0.00    -0.041 A 
ENDBRANCH  31  38
ENDBRANCH   1  31
TORSDOF 5
