REMARK  Name = ZINC21141798
REMARK  6 active torsions:
REMARK  status: ('A' for Active; 'I' for Inactive)
REMARK    1  A    between atoms: C_1  and  C_2
REMARK    2  A    between atoms: C_2  and  C_4
REMARK    3  A    between atoms: C_2  and  S_15
REMARK    4  A    between atoms: S_15  and  C_16
REMARK    5  A    between atoms: N_29  and  C_30
REMARK    6  A    between atoms: C_30  and  C_31
REMARK                            x       y       z     vdW  Elec       q    Type
REMARK                         _______ _______ _______ _____ _____    ______ ____
ROOT
ATOM      1  C   UNL     1       0.001  -0.004   0.028  0.00  0.00    +0.173 A 
ATOM      2  N   UNL     1       1.156  -0.638  -0.000  0.00  0.00    -0.216 NA
ATOM      3  C   UNL     1       1.202  -1.965  -0.008  0.00  0.00    +0.117 A 
ATOM      4  C   UNL     1       0.040  -2.754   0.013  0.00  0.00    +0.076 A 
ATOM      5  C   UNL     1       0.251  -4.203   0.000  0.00  0.00    -0.023 A 
ATOM      6  C   UNL     1       1.527  -4.636  -0.030  0.00  0.00    -0.004 A 
ATOM      7  S   UNL     1       2.513  -3.162  -0.043  0.00  0.00    -0.073 S 
ATOM      8  C   UNL     1       2.004  -6.056  -0.048  0.00  0.00    +0.043 C 
ATOM      9  C   UNL     1       0.832  -6.966   0.346  0.00  0.00    +0.005 C 
ATOM     10  C   UNL     1      -0.402  -6.555  -0.462  0.00  0.00    +0.005 C 
ATOM     11  C   UNL     1      -0.909  -5.195   0.019  0.00  0.00    +0.037 C 
ATOM     12  C   UNL     1      -1.199  -2.039   0.044  0.00  0.00    +0.263 A 
ATOM     13  O   UNL     1      -2.259  -2.640   0.063  0.00  0.00    -0.267 OA
ATOM     14  N   UNL     1      -1.177  -0.693   0.055  0.00  0.00    -0.285 N 
ENDROOT
BRANCH   1  15
ATOM     15  S   UNL     1      -0.023   1.758   0.037  0.00  0.00    -0.075 S 
BRANCH  15  17
ATOM     16  C   UNL     1       2.341   1.599  -1.323  0.00  0.00    +0.029 C 
ATOM     17  C   UNL     1       1.755   2.096   0.000  0.00  0.00    +0.137 C 
BRANCH  17  18
ATOM     18  C   UNL     1       1.986   3.580   0.126  0.00  0.00    +0.233 C 
ATOM     19  O   UNL     1       1.128   4.360  -0.229  0.00  0.00    -0.274 OA
ATOM     20  N   UNL     1       3.147   4.040   0.634  0.00  0.00    -0.270 N 
ATOM     21  C   UNL     1       4.293   3.204   1.001  0.00  0.00    +0.118 C 
ATOM     22  C   UNL     1       5.357   4.185   1.520  0.00  0.00    +0.056 C 
ATOM     23  C   UNL     1       4.706   5.546   1.412  0.00  0.00    -0.024 A 
ATOM     24  C   UNL     1       3.431   5.385   0.892  0.00  0.00    +0.040 A 
ATOM     25  C   UNL     1       2.631   6.512   0.700  0.00  0.00    +0.024 A 
ATOM     26  C   UNL     1       3.105   7.765   1.024  0.00  0.00    +0.002 A 
ATOM     27  C   UNL     1       4.378   7.915   1.542  0.00  0.00    +0.000 A 
ATOM     28  C   UNL     1       5.177   6.803   1.735  0.00  0.00    +0.005 A 
ENDBRANCH  17  18
ENDBRANCH  15  17
ENDBRANCH   1  15
BRANCH  14  29
ATOM     29  C   UNL     1      -2.441   0.045   0.092  0.00  0.00    +0.159 C 
BRANCH  29  30
ATOM     30  C   UNL     1      -2.919   0.310  -1.337  0.00  0.00    +0.138 C 
ATOM     31  C   UNL     1      -4.219   1.153  -1.322  0.00  0.00    +0.035 C 
ATOM     32  C   UNL     1      -4.153   1.823  -2.722  0.00  0.00    +0.031 C 
ATOM     33  C   UNL     1      -2.635   2.028  -2.915  0.00  0.00    +0.160 C 
ATOM     34  O   UNL     1      -1.960   1.113  -2.043  0.00  0.00    -0.375 OA
ENDBRANCH  29  30
ENDBRANCH  14  29
TORSDOF 5
