REMARK  Name = ZINC64452276
REMARK  6 active torsions:
REMARK  status: ('A' for Active; 'I' for Inactive)
REMARK    1  A    between atoms: C_1  and  C_2
REMARK    2  A    between atoms: N_5  and  S_8
REMARK    3  A    between atoms: S_8  and  C_11
REMARK    4  A    between atoms: N_13  and  C_16
REMARK    5  A    between atoms: C_16  and  C_17
REMARK    6  A    between atoms: C_20  and  C_23
REMARK                            x       y       z     vdW  Elec       q    Type
REMARK                         _______ _______ _______ _____ _____    ______ ____
ROOT
ATOM      1  C   UNL     1       6.399   0.515  -1.807  0.00  0.00    +0.157 C 
ATOM      2  N   UNL     1       5.327   1.057  -1.355  0.00  0.00    -0.070 NA
ATOM      3  O   UNL     1       5.223   2.405  -1.774  0.00  0.00    -0.367 OA
ATOM      4  C   UNL     1       6.388   2.670  -2.571  0.00  0.00    +0.318 C 
ATOM      5  N   UNL     1       7.133   1.401  -2.560  0.00  0.00    -0.290 N 
ATOM      6  H   UNL     1       7.979   1.223  -3.001  0.00  0.00    +0.151 HD
ENDROOT
BRANCH   4   7
ATOM      7  C   UNL     1       7.226   3.785  -1.941  0.00  0.00    +0.165 C 
ATOM      8  C   UNL     1       7.695   3.370  -0.565  0.00  0.00    +0.012 C 
ATOM      9  C   UNL     1       7.169   4.269   0.298  0.00  0.00    -0.002 A 
ATOM     10  C   UNL     1       7.253   4.414   1.756  0.00  0.00    +0.029 A 
ATOM     11  C   UNL     1       6.603   5.441   2.352  0.00  0.00    +0.042 A 
ATOM     12  C   UNL     1       5.853   6.367   1.611  0.00  0.00    +0.022 A 
ATOM     13  C   UNL     1       5.730   6.298   0.269  0.00  0.00    +0.027 A 
ATOM     14  C   UNL     1       6.372   5.260  -0.460  0.00  0.00    +0.043 A 
ATOM     15  N   UNL     1       6.404   4.984  -1.743  0.00  0.00    -0.373 N 
ATOM     16 CL   UNL     1       6.699   5.616   4.076  0.00  0.00    -0.084 Cl
ATOM     17  H   UNL     1       5.959   5.487  -2.442  0.00  0.00    +0.160 HD
ENDBRANCH   4   7
BRANCH   1  18
ATOM     18  C   UNL     1       6.805  -0.912  -1.541  0.00  0.00    +0.197 C 
BRANCH  18  21
ATOM     19  C   UNL     1       4.033  -2.672  -0.053  0.00  0.00    +0.211 A 
ATOM     20  C   UNL     1       4.690  -2.242  -1.148  0.00  0.00    +0.136 A 
ATOM     21  N   UNL     1       5.791  -1.560  -0.706  0.00  0.00    -0.328 N 
ATOM     22  C   UNL     1       5.769  -1.597   0.644  0.00  0.00    +0.202 A 
ATOM     23  N   UNL     1       4.712  -2.260   1.027  0.00  0.00    -0.216 NA
BRANCH  19  24
ATOM     24  S   UNL     1       2.539  -3.606  -0.043  0.00  0.00    +0.080 S 
ATOM     25  O   UNL     1       2.499  -4.295   1.199  0.00  0.00    -0.151 OA
ATOM     26  O   UNL     1       2.474  -4.282  -1.291  0.00  0.00    -0.151 OA
BRANCH  24  31
ATOM     27  C   UNL     1      -0.019   1.526   0.010  0.00  0.00    +0.007 C 
ATOM     28  C   UNL     1       0.002  -0.004   0.002  0.00  0.00    -0.012 C 
ATOM     29  C   UNL     1       0.717  -0.497  -1.258  0.00  0.00    +0.020 C 
ATOM     30  C   UNL     1       0.705  -2.029  -1.280  0.00  0.00    +0.110 C 
ATOM     31  N   UNL     1       1.285  -2.525  -0.025  0.00  0.00    -0.175 NA
ATOM     32  C   UNL     1       0.731  -2.043   1.248  0.00  0.00    +0.110 C 
ATOM     33  C   UNL     1       0.742  -0.511   1.242  0.00  0.00    +0.020 C 
ENDBRANCH  24  31
ENDBRANCH  19  24
ENDBRANCH  18  21
ENDBRANCH   1  18
TORSDOF 5
