REMARK  Name = ZINC08267069
REMARK  8 active torsions:
REMARK  status: ('A' for Active; 'I' for Inactive)
REMARK    1  A    between atoms: C_1  and  C_2
REMARK    2  A    between atoms: C_3  and  N_11
REMARK    3  A    between atoms: C_7  and  N_8
REMARK    4  A    between atoms: C_12  and  C_14
REMARK    5  A    between atoms: C_17  and  S_20
REMARK    6  A    between atoms: S_20  and  N_23
REMARK    7  A    between atoms: N_23  and  C_24
REMARK    8  A    between atoms: C_24  and  C_25
REMARK                            x       y       z     vdW  Elec       q    Type
REMARK                         _______ _______ _______ _____ _____    ______ ____
ROOT
ATOM      1  C   UNL     1       0.234  -3.042  -4.796  0.00  0.00    +0.037 A 
ATOM      2  C   UNL     1      -0.967  -2.596  -5.351  0.00  0.00    +0.015 A 
ATOM      3  C   UNL     1      -1.272  -1.251  -5.335  0.00  0.00    +0.029 A 
ATOM      4  C   UNL     1      -0.392  -0.345  -4.771  0.00  0.00    +0.105 A 
ATOM      5  C   UNL     1       0.802  -0.780  -4.223  0.00  0.00    +0.029 A 
ATOM      6  C   UNL     1       1.117  -2.123  -4.228  0.00  0.00    +0.015 A 
ENDROOT
BRANCH   1   8
ATOM      7  N   UNL     1       1.728  -4.910  -4.273  0.00  0.00    -0.281 N 
ATOM      8  C   UNL     1       0.568  -4.482  -4.810  0.00  0.00    +0.248 C 
ATOM      9  O   UNL     1      -0.203  -5.280  -5.306  0.00  0.00    -0.270 OA
ATOM     10  H   UNL     1       2.377  -4.268  -3.945  0.00  0.00    +0.155 HD
BRANCH   7  13
ATOM     11  C   UNL     1       4.433  -5.732  -3.951  0.00  0.00    +0.048 C 
ATOM     12  C   UNL     1       3.302  -6.725  -4.031  0.00  0.00    +0.001 A 
ATOM     13  C   UNL     1       1.996  -6.280  -4.188  0.00  0.00    +0.039 A 
ATOM     14  C   UNL     1       0.958  -7.198  -4.267  0.00  0.00    +0.024 A 
ATOM     15  C   UNL     1       1.226  -8.551  -4.184  0.00  0.00    +0.004 A 
ATOM     16  C   UNL     1       2.527  -8.990  -4.022  0.00  0.00    +0.033 A 
ATOM     17  C   UNL     1       3.563  -8.078  -3.943  0.00  0.00    +0.131 A 
BRANCH  17  18
ATOM     18  N   UNL     1       4.954  -8.553  -3.770  0.00  0.00    +0.057 N 
ATOM     19  O   UNL     1       5.204  -9.744  -3.833  0.00  0.00    -0.126 OA
ATOM     20  O   UNL     1       5.850  -7.753  -3.564  0.00  0.00    -0.126 OA
ENDBRANCH  17  18
ENDBRANCH   7  13
ENDBRANCH   1   8
BRANCH   4  21
ATOM     21  S   UNL     1      -0.791   1.371  -4.754  0.00  0.00    +0.058 S 
ATOM     22  O   UNL     1      -1.708   1.585  -5.818  0.00  0.00    -0.153 OA
ATOM     23  O   UNL     1       0.441   2.073  -4.659  0.00  0.00    -0.153 OA
BRANCH  21  24
ATOM     24  N   UNL     1      -1.616   1.669  -3.350  0.00  0.00    -0.187 NA
ATOM     25  H   UNL     1      -2.544   1.950  -3.383  0.00  0.00    +0.148 HD
BRANCH  24  26
ATOM     26  C   UNL     1      -0.944   1.509  -2.058  0.00  0.00    +0.137 C 
BRANCH  26  27
ATOM     27  C   UNL     1      -1.772   2.188  -0.965  0.00  0.00    +0.134 C 
ATOM     28  C   UNL     1      -1.023   2.141   0.385  0.00  0.00    +0.035 C 
ATOM     29  C   UNL     1      -2.141   1.916   1.427  0.00  0.00    +0.031 C 
ATOM     30  C   UNL     1      -3.434   1.854   0.584  0.00  0.00    +0.160 C 
ATOM     31  O   UNL     1      -2.996   1.456  -0.734  0.00  0.00    -0.375 OA
ENDBRANCH  26  27
ENDBRANCH  24  26
ENDBRANCH  21  24
ENDBRANCH   4  21
TORSDOF 7
