REMARK  Name = ZINC04539589
REMARK  5 active torsions:
REMARK  status: ('A' for Active; 'I' for Inactive)
REMARK    1  A    between atoms: C_1  and  N_2
REMARK    2  A    between atoms: N_6  and  N_7
REMARK    3  A    between atoms: C_10  and  C_13
REMARK    4  A    between atoms: C_19  and  O_24
REMARK    5  A    between atoms: O_24  and  C_25
REMARK                            x       y       z     vdW  Elec       q    Type
REMARK                         _______ _______ _______ _____ _____    ______ ____
ROOT
ATOM      1  N   UNL     1       2.461  -4.046   1.150  0.00  0.00    -0.215 N 
ATOM      2  C   UNL     1       3.437  -5.028   1.123  0.00  0.00    +0.178 A 
ATOM      3  N   UNL     1       4.074  -5.602   2.128  0.00  0.00    -0.223 NA
ATOM      4  C   UNL     1       4.990  -6.536   1.918  0.00  0.00    +0.087 A 
ATOM      5  C   UNL     1       5.282  -6.912   0.635  0.00  0.00    +0.077 A 
ATOM      6  S   UNL     1       4.164  -5.860  -0.282  0.00  0.00    -0.059 S 
ATOM      7  H   UNL     1       2.161  -3.683   1.999  0.00  0.00    +0.176 HD
ENDROOT
BRANCH   4   8
ATOM      8  C   UNL     1       5.692  -7.166   3.060  0.00  0.00    +0.086 A 
ATOM      9  C   UNL     1       5.411  -6.808   4.357  0.00  0.00    +0.028 A 
ATOM     10  C   UNL     1       6.156  -7.487   5.420  0.00  0.00    +0.022 A 
ATOM     11  C   UNL     1       5.755  -7.382   6.758  0.00  0.00    +0.012 A 
ATOM     12  C   UNL     1       6.463  -8.028   7.732  0.00  0.00    +0.004 A 
ATOM     13  C   UNL     1       7.578  -8.787   7.409  0.00  0.00    +0.049 A 
ATOM     14  C   UNL     1       7.995  -8.903   6.095  0.00  0.00    +0.163 A 
ATOM     15  C   UNL     1       7.288  -8.252   5.087  0.00  0.00    +0.180 A 
ATOM     16  O   UNL     1       7.679  -8.345   3.793  0.00  0.00    -0.418 OA
ATOM     17  C   UNL     1       6.715  -8.206   2.852  0.00  0.00    +0.347 A 
ATOM     18  O   UNL     1       6.695  -8.915   1.863  0.00  0.00    -0.244 OA
BRANCH  14  19
ATOM     19  O   UNL     1       9.090  -9.648   5.788  0.00  0.00    -0.491 OA
ATOM     20  C   UNL     1       9.764 -10.287   6.874  0.00  0.00    +0.277 C 
ENDBRANCH  14  19
ENDBRANCH   4   8
BRANCH   1  26
ATOM     21  C   UNL     1       0.008   1.475  -0.007  0.00  0.00    -0.096 C 
ATOM     22  N   UNL     1       0.020   0.006  -0.007  0.00  0.00    +0.378 N 
ATOM     23  C   UNL     1       0.683  -0.475  -1.226  0.00  0.00    -0.073 C 
ATOM     24  C   UNL     1       0.545  -1.999  -1.314  0.00  0.00    +0.034 C 
ATOM     25  C   UNL     1       1.080  -2.598  -0.029  0.00  0.00    +0.033 C 
ATOM     26  N   UNL     1       1.906  -3.575  -0.047  0.00  0.00    -0.190 NA
ATOM     27  C   UNL     1       0.602  -1.998   1.277  0.00  0.00    +0.034 C 
ATOM     28  C   UNL     1       0.735  -0.474   1.181  0.00  0.00    -0.073 C 
ATOM     29  H   UNL     1      -0.928  -0.337   0.013  0.00  0.00    -0.082 HD
ENDBRANCH   1  26
TORSDOF 3
