REMARK  Name = ZINC12550688
REMARK  7 active torsions:
REMARK  status: ('A' for Active; 'I' for Inactive)
REMARK    1  A    between atoms: C_1  and  C_2
REMARK    2  A    between atoms: C_2  and  C_4
REMARK    3  A    between atoms: C_2  and  N_29
REMARK    4  A    between atoms: C_7  and  S_16
REMARK    5  A    between atoms: N_8  and  C_9
REMARK    6  A    between atoms: S_16  and  C_17
REMARK    7  A    between atoms: C_17  and  C_18
REMARK                            x       y       z     vdW  Elec       q    Type
REMARK                         _______ _______ _______ _____ _____    ______ ____
ROOT
ATOM      1  C   UNL     1      -1.412  -0.526   0.013  0.00  0.00    +0.125 A 
ATOM      2  N   UNL     1      -2.238  -0.538  -0.995  0.00  0.00    -0.135 NA
ATOM      3  N   UNL     1      -3.361  -1.052  -0.640  0.00  0.00    -0.122 NA
ATOM      4  C   UNL     1      -3.314  -1.400   0.625  0.00  0.00    +0.196 A 
ATOM      5  N   UNL     1      -2.064  -1.080   1.081  0.00  0.00    -0.275 N 
ENDROOT
BRANCH   5   6
ATOM      6  C   UNL     1      -1.558  -1.276   2.376  0.00  0.00    +0.050 A 
ATOM      7  C   UNL     1      -0.500  -2.150   2.583  0.00  0.00    +0.029 A 
ATOM      8  C   UNL     1      -0.003  -2.342   3.857  0.00  0.00    +0.040 A 
ATOM      9  C   UNL     1      -0.560  -1.663   4.928  0.00  0.00    +0.124 A 
ATOM     10  C   UNL     1      -1.616  -0.791   4.723  0.00  0.00    +0.040 A 
ATOM     11  C   UNL     1      -2.112  -0.592   3.449  0.00  0.00    +0.029 A 
ATOM     12  F   UNL     1      -0.073  -1.853   6.174  0.00  0.00    -0.205 F 
ENDBRANCH   5   6
BRANCH   1  14
ATOM     13  C   UNL     1      -0.019   1.526   0.010  0.00  0.00    -0.005 C 
ATOM     14  C   UNL     1       0.002  -0.004   0.002  0.00  0.00    -0.002 C 
BRANCH  14  15
ATOM     15  N   UNL     1       0.690  -0.478  -1.207  0.00  0.00    +0.386 N 
ATOM     16  C   UNL     1       0.701  -1.946  -1.218  0.00  0.00    -0.078 C 
ATOM     17  C   UNL     1       1.344  -2.445  -2.514  0.00  0.00    -0.019 C 
ATOM     18  C   UNL     1       2.781  -1.921  -2.599  0.00  0.00    -0.004 C 
ATOM     19  C   UNL     1       2.762  -0.392  -2.511  0.00  0.00    -0.019 C 
ATOM     20  C   UNL     1       2.067   0.031  -1.216  0.00  0.00    -0.078 C 
ATOM     21  H   UNL     1       0.202  -0.141  -2.023  0.00  0.00    -0.081 HD
ENDBRANCH  14  15
ENDBRANCH   1  14
BRANCH   4  22
ATOM     22  S   UNL     1      -4.611  -2.144   1.557  0.00  0.00    -0.078 S 
BRANCH  22  23
ATOM     23  C   UNL     1      -5.972  -2.300   0.368  0.00  0.00    +0.151 C 
BRANCH  23  24
ATOM     24  C   UNL     1      -7.161  -2.932   1.045  0.00  0.00    +0.121 A 
ATOM     25  N   UNL     1      -8.287  -3.139   0.313  0.00  0.00    -0.309 N 
ATOM     26  H   UNL     1      -8.316  -2.885  -0.623  0.00  0.00    +0.170 HD
ATOM     27  C   UNL     1      -9.367  -3.705   0.902  0.00  0.00    +0.266 A 
ATOM     28  O   UNL     1     -10.392  -3.905   0.272  0.00  0.00    -0.267 OA
ATOM     29  C   UNL     1      -9.274  -4.054   2.250  0.00  0.00    +0.102 A 
ATOM     30  C   UNL     1      -8.097  -3.828   2.985  0.00  0.00    +0.085 A 
ATOM     31  N   UNL     1      -7.058  -3.254   2.295  0.00  0.00    -0.232 NA
ATOM     32  C   UNL     1      -8.139  -4.225   4.329  0.00  0.00    +0.036 A 
ATOM     33  C   UNL     1      -9.259  -4.783   4.837  0.00  0.00    +0.048 A 
ATOM     34  S   UNL     1     -10.365  -4.793   3.436  0.00  0.00    -0.090 S 
ENDBRANCH  23  24
ENDBRANCH  22  23
ENDBRANCH   4  22
TORSDOF 6
