REMARK  Name = ZINC36291706
REMARK  6 active torsions:
REMARK  status: ('A' for Active; 'I' for Inactive)
REMARK    1  A    between atoms: C_3  and  N_22
REMARK    2  A    between atoms: C_4  and  O_17
REMARK    3  A    between atoms: C_6  and  C_7
REMARK    4  A    between atoms: N_9  and  C_10
REMARK    5  A    between atoms: O_17  and  C_18
REMARK    6  A    between atoms: C_18  and  C_19
REMARK                            x       y       z     vdW  Elec       q    Type
REMARK                         _______ _______ _______ _____ _____    ______ ____
ROOT
ATOM      1  C   UNL     1      -0.017   1.393   0.010  0.00  0.00    +0.015 A 
ATOM      2  C   UNL     1       1.166   2.098   0.002  0.00  0.00    +0.027 A 
ATOM      3  C   UNL     1       2.381   1.423  -0.013  0.00  0.00    +0.067 A 
ATOM      4  C   UNL     1       2.406   0.027  -0.021  0.00  0.00    +0.142 A 
ATOM      5  C   UNL     1       1.224  -0.684  -0.013  0.00  0.00    +0.060 A 
ATOM      6  C   UNL     1       0.002  -0.004   0.002  0.00  0.00    +0.040 A 
ENDROOT
BRANCH   6   7
ATOM      7  C   UNL     1      -1.265  -0.760   0.011  0.00  0.00    +0.244 C 
ATOM      8  O   UNL     1      -1.247  -1.976   0.004  0.00  0.00    -0.270 OA
ATOM      9  N   UNL     1      -2.441  -0.103   0.026  0.00  0.00    -0.308 N 
ATOM     10  H   UNL     1      -2.455   0.867   0.031  0.00  0.00    +0.149 HD
BRANCH   9  11
ATOM     11  C   UNL     1      -3.699  -0.854   0.034  0.00  0.00    +0.073 C 
ATOM     12  C   UNL     1      -4.040  -1.274  -1.410  0.00  0.00    +0.022 C 
ATOM     13  C   UNL     1      -4.998  -2.434  -1.357  0.00  0.00    +0.002 C 
ATOM     14  C   UNL     1      -6.470  -1.986  -1.445  0.00  0.00    +0.000 C 
ATOM     15  C   UNL     1      -6.763  -0.730  -0.602  0.00  0.00    +0.000 C 
ATOM     16  C   UNL     1      -6.087  -0.767   0.741  0.00  0.00    +0.002 C 
ATOM     17  C   UNL     1      -4.738  -0.027   0.631  0.00  0.00    +0.022 C 
ENDBRANCH   9  11
ENDBRANCH   6   7
BRANCH   3  18
ATOM     18  N   UNL     1       3.575   2.140  -0.022  0.00  0.00    -0.355 N 
ATOM     19  H   UNL     1       3.559   3.110  -0.017  0.00  0.00    +0.142 HD
ATOM     20  H   UNL     1       4.423   1.669  -0.033  0.00  0.00    +0.142 HD
ENDBRANCH   3  18
BRANCH   4  21
ATOM     21  O   UNL     1       3.596  -0.632  -0.037  0.00  0.00    -0.481 OA
BRANCH  21  22
ATOM     22  C   UNL     1       3.547  -2.060  -0.044  0.00  0.00    +0.324 C 
BRANCH  22  23
ATOM     23  C   UNL     1       4.950  -2.611  -0.062  0.00  0.00    +0.248 C 
ATOM     24  O   UNL     1       5.898  -1.855  -0.067  0.00  0.00    -0.272 OA
ATOM     25  N   UNL     1       5.150  -3.944  -0.071  0.00  0.00    -0.327 N 
ATOM     26  H   UNL     1       4.391  -4.549  -0.066  0.00  0.00    +0.145 HD
ATOM     27  H   UNL     1       6.053  -4.299  -0.082  0.00  0.00    +0.145 HD
ENDBRANCH  22  23
ENDBRANCH  21  22
ENDBRANCH   4  21
TORSDOF 6
