REMARK  Name = ZINC66135796
REMARK  9 active torsions:
REMARK  status: ('A' for Active; 'I' for Inactive)
REMARK    1  A    between atoms: C_1  and  C_2
REMARK    2  A    between atoms: C_3  and  C_22
REMARK    3  A    between atoms: C_4  and  C_9
REMARK    4  A    between atoms: C_14  and  O_15
REMARK    5  A    between atoms: O_15  and  C_16
REMARK    6  A    between atoms: C_16  and  C_17
REMARK    7  A    between atoms: C_17  and  C_18
REMARK    8  A    between atoms: C_18  and  C_19
REMARK    9  A    between atoms: C_18  and  C_20
REMARK                            x       y       z     vdW  Elec       q    Type
REMARK                         _______ _______ _______ _____ _____    ______ ____
ROOT
ATOM      1  C   UNL     1      -2.013   0.572   0.598  0.00  0.00    +0.066 C 
ATOM      2  C   UNL     1      -0.950  -0.448   0.283  0.00  0.00    +0.056 A 
ATOM      3  C   UNL     1      -0.996  -1.174  -0.913  0.00  0.00    +0.084 A 
ATOM      4  C   UNL     1       0.025  -2.119  -1.159  0.00  0.00    +0.092 A 
ATOM      5  N   UNL     1       0.982  -2.278  -0.250  0.00  0.00    -0.214 NA
ATOM      6  C   UNL     1       0.981  -1.566   0.867  0.00  0.00    +0.213 A 
ATOM      7  N   UNL     1       0.040  -0.666   1.128  0.00  0.00    -0.219 NA
ATOM      8  N   UNL     1       1.992  -1.762   1.785  0.00  0.00    -0.327 N 
ATOM      9  H   UNL     1       2.689  -2.412   1.608  0.00  0.00    +0.145 HD
ATOM     10  H   UNL     1       2.005  -1.248   2.608  0.00  0.00    +0.145 HD
ENDROOT
BRANCH   4  11
ATOM     11  C   UNL     1       0.030  -2.916  -2.405  0.00  0.00    +0.044 A 
ATOM     12  C   UNL     1      -0.084  -2.282  -3.643  0.00  0.00    +0.029 A 
ATOM     13  C   UNL     1      -0.079  -3.031  -4.802  0.00  0.00    +0.019 A 
ATOM     14  C   UNL     1       0.039  -4.410  -4.742  0.00  0.00    +0.019 A 
ATOM     15  C   UNL     1       0.152  -5.048  -3.522  0.00  0.00    +0.047 A 
ATOM     16  C   UNL     1       0.154  -4.309  -2.349  0.00  0.00    +0.130 A 
ATOM     17 BR   UNL     1      -0.234  -2.172  -6.479  0.00  0.00    -0.050 Br
BRANCH  16  18
ATOM     18  O   UNL     1       0.271  -4.934  -1.149  0.00  0.00    -0.491 OA
BRANCH  18  19
ATOM     19  C   UNL     1       0.395  -6.358  -1.169  0.00  0.00    +0.229 C 
BRANCH  19  20
ATOM     20  C   UNL     1       0.515  -6.880   0.264  0.00  0.00    +0.044 C 
BRANCH  20  21
ATOM     21  C   UNL     1       0.647  -8.404   0.242  0.00  0.00    -0.014 C 
ATOM     22  C   UNL     1       1.959  -8.792  -0.441  0.00  0.00    +0.007 C 
ATOM     23  C   UNL     1       0.641  -8.936   1.677  0.00  0.00    +0.007 C 
ENDBRANCH  20  21
ENDBRANCH  19  20
ENDBRANCH  18  19
ENDBRANCH  16  18
ENDBRANCH   4  11
BRANCH   3  24
ATOM     24  C   UNL     1      -2.079  -0.959  -1.888  0.00  0.00    +0.245 C 
ATOM     25  O   UNL     1      -1.952  -0.126  -2.764  0.00  0.00    -0.270 OA
ATOM     26  N   UNL     1      -3.211  -1.687  -1.808  0.00  0.00    -0.325 N 
ATOM     27  H   UNL     1      -3.312  -2.351  -1.109  0.00  0.00    +0.145 HD
ATOM     28  H   UNL     1      -3.925  -1.545  -2.450  0.00  0.00    +0.145 HD
ENDBRANCH   3  24
TORSDOF 6
