REMARK  Name = ZINC18142226
REMARK  4 active torsions:
REMARK  status: ('A' for Active; 'I' for Inactive)
REMARK    1  A    between atoms: C_1  and  O_2
REMARK    2  A    between atoms: O_2  and  C_3
REMARK    3  A    between atoms: C_3  and  C_5
REMARK    4  A    between atoms: N_14  and  C_17
REMARK                            x       y       z     vdW  Elec       q    Type
REMARK                         _______ _______ _______ _____ _____    ______ ____
ROOT
ATOM      1  C   UNL     1      -1.248  -2.093   0.003  0.00  0.00    +0.156 C 
ATOM      2  N   UNL     1      -0.226  -2.943  -0.006  0.00  0.00    -0.183 NA
ATOM      3  N   UNL     1      -0.566  -4.200   0.109  0.00  0.00    -0.255 N 
ATOM      4  C   UNL     1      -1.889  -4.228   0.711  0.00  0.00    +0.194 C 
ATOM      5  C   UNL     1      -2.418  -2.921   0.009  0.00  0.00    +0.164 C 
ATOM      6  C   UNL     1      -3.833  -3.022   0.215  0.00  0.00    +0.238 C 
ATOM      7  O   UNL     1      -4.620  -2.113   0.370  0.00  0.00    -0.274 OA
ATOM      8  N   UNL     1      -4.108  -4.368   0.197  0.00  0.00    -0.207 N 
ATOM      9  C   UNL     1      -2.966  -5.147   0.223  0.00  0.00    +0.249 C 
ATOM     10  O   UNL     1      -2.851  -6.316  -0.075  0.00  0.00    -0.273 OA
ATOM     11  H   UNL     1      -0.037  -4.968  -0.157  0.00  0.00    +0.169 HD
ENDROOT
BRANCH   8  12
ATOM     12  C   UNL     1      -5.405  -4.899   0.162  0.00  0.00    +0.062 A 
ATOM     13  C   UNL     1      -6.017  -5.158  -1.057  0.00  0.00    +0.027 A 
ATOM     14  C   UNL     1      -7.295  -5.682  -1.090  0.00  0.00    +0.022 A 
ATOM     15  C   UNL     1      -7.965  -5.949   0.091  0.00  0.00    +0.042 A 
ATOM     16  C   UNL     1      -7.358  -5.692   1.307  0.00  0.00    +0.042 A 
ATOM     17  C   UNL     1      -6.078  -5.173   1.346  0.00  0.00    +0.064 A 
ATOM     18 CL   UNL     1      -5.313  -4.858   2.872  0.00  0.00    -0.082 Cl
ATOM     19 CL   UNL     1      -9.571  -6.607   0.046  0.00  0.00    -0.083 Cl
ENDBRANCH   8  12
BRANCH   1  20
ATOM     20  C   UNL     1      -1.192  -0.633   0.010  0.00  0.00    +0.356 C 
ATOM     21  O   UNL     1      -2.221   0.016   0.023  0.00  0.00    -0.244 OA
BRANCH  20  23
ATOM     22  C   UNL     1      -0.017   1.425   0.010  0.00  0.00    +0.280 C 
ATOM     23  O   UNL     1       0.002  -0.004   0.002  0.00  0.00    -0.464 OA
ENDBRANCH  20  23
ENDBRANCH   1  20
TORSDOF 3
