REMARK  Name = ZINC63830700
REMARK  11 active torsions:
REMARK  status: ('A' for Active; 'I' for Inactive)
REMARK    1  A    between atoms: C_1  and  C_2
REMARK    2  A    between atoms: C_2  and  C_3
REMARK    3  A    between atoms: C_3  and  C_34
REMARK    4  A    between atoms: N_6  and  C_10
REMARK    5  A    between atoms: C_10  and  C_11
REMARK    6  A    between atoms: N_13  and  C_14
REMARK    7  A    between atoms: C_14  and  C_15
REMARK    8  A    between atoms: C_15  and  C_17
REMARK    9  A    between atoms: C_15  and  C_25
REMARK   10  A    between atoms: C_20  and  O_23
REMARK   11  A    between atoms: O_23  and  C_24
REMARK                            x       y       z     vdW  Elec       q    Type
REMARK                         _______ _______ _______ _____ _____    ______ ____
ROOT
ATOM      1  C   UNL     1      -5.626  -7.322  -1.529  0.00  0.00    +0.064 C 
ENDROOT
BRANCH   1   2
ATOM      2  C   UNL     1      -5.812  -7.273  -3.024  0.00  0.00    -0.033 C 
ATOM      3  C   UNL     1      -5.068  -7.910  -3.957  0.00  0.00    -0.000 A 
ATOM      4  C   UNL     1      -3.908  -8.803  -3.864  0.00  0.00    +0.010 A 
ATOM      5  C   UNL     1      -3.366  -9.296  -5.000  0.00  0.00    +0.001 A 
ATOM      6  C   UNL     1      -3.884  -8.975  -6.263  0.00  0.00    +0.002 A 
ATOM      7  C   UNL     1      -4.948  -8.162  -6.429  0.00  0.00    +0.026 A 
ATOM      8  C   UNL     1      -5.596  -7.587  -5.302  0.00  0.00    +0.043 A 
ATOM      9  N   UNL     1      -6.626  -6.782  -5.204  0.00  0.00    -0.380 N 
ATOM     10  C   UNL     1      -6.872  -6.508  -3.784  0.00  0.00    +0.145 C 
ATOM     11  H   UNL     1      -7.142  -6.430  -5.946  0.00  0.00    +0.160 HD
ENDBRANCH   1   2
BRANCH   1  12
ATOM     12  C   UNL     1      -6.869  -7.880  -0.886  0.00  0.00    -0.038 A 
ATOM     13  C   UNL     1      -8.082  -7.237  -1.056  0.00  0.00    +0.008 A 
ATOM     14  C   UNL     1      -9.223  -7.747  -0.467  0.00  0.00    +0.046 A 
ATOM     15  C   UNL     1      -9.151  -8.903   0.295  0.00  0.00    +0.120 A 
ATOM     16  C   UNL     1      -7.934  -9.546   0.464  0.00  0.00    +0.046 A 
ATOM     17  C   UNL     1      -6.796  -9.036  -0.131  0.00  0.00    +0.008 A 
BRANCH  15  18
ATOM     18  O   UNL     1     -10.273  -9.406   0.876  0.00  0.00    -0.495 OA
ATOM     19  C   UNL     1     -10.124 -10.600   1.647  0.00  0.00    +0.277 C 
ENDBRANCH  15  18
ENDBRANCH   1  12
BRANCH   1  20
ATOM     20  C   UNL     1      -5.368  -5.909  -1.001  0.00  0.00    +0.116 C 
BRANCH  20  23
ATOM     21  C   UNL     1      -3.662  -4.181  -1.202  0.00  0.00    +0.231 C 
ATOM     22  O   UNL     1      -4.323  -3.484  -0.462  0.00  0.00    -0.274 OA
ATOM     23  N   UNL     1      -4.097  -5.412  -1.534  0.00  0.00    -0.313 N 
ATOM     24  H   UNL     1      -3.568  -5.970  -2.126  0.00  0.00    +0.149 HD
BRANCH  21  25
ATOM     25  C   UNL     1      -2.355  -3.670  -1.750  0.00  0.00    +0.213 C 
BRANCH  25  29
ATOM     26  C   UNL     1      -1.433  -0.534   0.013  0.00  0.00    +0.110 C 
ATOM     27  C   UNL     1      -1.445  -2.045  -0.103  0.00  0.00    +0.247 C 
ATOM     28  O   UNL     1      -0.960  -2.843   0.670  0.00  0.00    -0.273 OA
ATOM     29  N   UNL     1      -2.108  -2.317  -1.245  0.00  0.00    -0.215 N 
ATOM     30  C   UNL     1      -2.513  -1.200  -1.859  0.00  0.00    +0.310 C 
ATOM     31  O   UNL     1      -3.131  -1.190  -2.906  0.00  0.00    -0.252 OA
ATOM     32  N   UNL     1      -2.159  -0.088  -1.189  0.00  0.00    -0.285 N 
ATOM     33  C   UNL     1      -2.162  -0.082   1.280  0.00  0.00    +0.041 C 
ATOM     34  H   UNL     1      -2.346   0.828  -1.447  0.00  0.00    +0.151 HD
BRANCH  26  36
ATOM     35  C   UNL     1      -0.019   1.526   0.010  0.00  0.00    +0.006 C 
ATOM     36  C   UNL     1       0.002  -0.004   0.002  0.00  0.00    +0.031 C 
ENDBRANCH  26  36
ENDBRANCH  25  29
ENDBRANCH  21  25
ENDBRANCH  20  23
ENDBRANCH   1  20
TORSDOF 8
