REMARK  Name = ZINC58948934
REMARK  9 active torsions:
REMARK  status: ('A' for Active; 'I' for Inactive)
REMARK    1  A    between atoms: C_1  and  C_2
REMARK    2  A    between atoms: C_3  and  C_24
REMARK    3  A    between atoms: C_4  and  C_14
REMARK    4  A    between atoms: C_6  and  C_10
REMARK    5  A    between atoms: C_7  and  N_9
REMARK    6  A    between atoms: C_10  and  O_12
REMARK    7  A    between atoms: O_12  and  C_13
REMARK    8  A    between atoms: C_18  and  N_20
REMARK    9  A    between atoms: C_24  and  C_26
REMARK                            x       y       z     vdW  Elec       q    Type
REMARK                         _______ _______ _______ _____ _____    ______ ____
ROOT
ATOM      1  C   UNL     1      -0.022   1.503  -0.011  0.00  0.00    +0.086 C 
ATOM      2  C   UNL     1       0.000  -0.004  -0.008  0.00  0.00    +0.112 C 
ATOM      3  C   UNL     1      -1.164  -0.673   0.029  0.00  0.00    +0.045 C 
ATOM      4  C   UNL     1      -1.197  -2.177   0.033  0.00  0.00    +0.098 C 
ATOM      5  C   UNL     1       0.161  -2.720   0.388  0.00  0.00    +0.105 C 
ATOM      6  C   UNL     1       1.262  -1.927   0.330  0.00  0.00    +0.195 C 
ATOM      7  O   UNL     1       1.182  -0.638  -0.048  0.00  0.00    -0.446 OA
ENDROOT
BRANCH   4   8
ATOM      8  C   UNL     1      -1.590  -2.673  -1.335  0.00  0.00    -0.033 A 
ATOM      9  C   UNL     1      -0.810  -2.362  -2.433  0.00  0.00    +0.006 A 
ATOM     10  C   UNL     1      -1.169  -2.817  -3.687  0.00  0.00    +0.022 A 
ATOM     11  C   UNL     1      -2.311  -3.583  -3.844  0.00  0.00    +0.071 A 
ATOM     12  C   UNL     1      -3.091  -3.893  -2.745  0.00  0.00    +0.145 A 
ATOM     13  C   UNL     1      -2.728  -3.443  -1.490  0.00  0.00    +0.038 A 
ATOM     14 CL   UNL     1      -2.763  -4.154  -5.420  0.00  0.00    -0.081 Cl
BRANCH  12  15
ATOM     15  N   UNL     1      -4.313  -4.713  -2.912  0.00  0.00    +0.058 N 
ATOM     16  O   UNL     1      -4.995  -4.984  -1.952  0.00  0.00    -0.126 OA
ATOM     17  O   UNL     1      -4.628  -5.111  -4.010  0.00  0.00    -0.126 OA
ENDBRANCH  12  15
ENDBRANCH   4   8
BRANCH   6  18
ATOM     18  N   UNL     1       2.483  -2.454   0.660  0.00  0.00    -0.329 N 
ATOM     19  H   UNL     1       2.566  -3.400   0.856  0.00  0.00    +0.145 HD
ATOM     20  H   UNL     1       3.264  -1.880   0.696  0.00  0.00    +0.145 HD
ENDBRANCH   6  18
BRANCH   3  21
ATOM     21  C   UNL     1      -2.374   0.045   0.065  0.00  0.00    +0.160 C 
ATOM     22  O   UNL     1      -2.359   1.259   0.063  0.00  0.00    -0.293 OA
ATOM     23  C   UNL     1      -3.687  -0.693   0.107  0.00  0.00    +0.091 C 
ENDBRANCH   3  21
BRANCH   5  24
ATOM     24  C   UNL     1       0.290  -4.060   0.783  0.00  0.00    +0.341 C 
ATOM     25  O   UNL     1      -0.005  -4.391   1.918  0.00  0.00    -0.245 OA
BRANCH  24  26
ATOM     26  O   UNL     1       0.742  -4.982  -0.094  0.00  0.00    -0.465 OA
ATOM     27  C   UNL     1       0.849  -6.327   0.377  0.00  0.00    +0.280 C 
ENDBRANCH  24  26
ENDBRANCH   5  24
TORSDOF 6
