REMARK  Name = ZINC49812446
REMARK  3 active torsions:
REMARK  status: ('A' for Active; 'I' for Inactive)
REMARK    1  A    between atoms: C_1  and  C_2
REMARK    2  A    between atoms: C_8  and  C_13
REMARK    3  A    between atoms: C_15  and  C_18
REMARK                            x       y       z     vdW  Elec       q    Type
REMARK                         _______ _______ _______ _____ _____    ______ ____
ROOT
ATOM      1  C   UNL     1      -0.019   1.526   0.010  0.00  0.00    +0.008 C 
ATOM      2  C   UNL     1       0.002  -0.004   0.002  0.00  0.00    -0.008 C 
ATOM      3  C   UNL     1      -1.428  -0.538   0.028  0.00  0.00    +0.057 C 
ATOM      4  C   UNL     1      -1.436  -2.031   0.246  0.00  0.00    +0.023 A 
ATOM      5  C   UNL     1      -0.372  -2.701   0.742  0.00  0.00    -0.024 A 
ATOM      6  C   UNL     1      -0.447  -4.088   0.934  0.00  0.00    +0.030 A 
ATOM      7  C   UNL     1      -1.614  -4.766   0.607  0.00  0.00    +0.116 A 
ATOM      8  C   UNL     1      -2.704  -4.023   0.081  0.00  0.00    +0.266 A 
ATOM      9  O   UNL     1      -3.742  -4.586  -0.220  0.00  0.00    -0.267 OA
ATOM     10  N   UNL     1      -2.582  -2.696  -0.082  0.00  0.00    -0.325 N 
ATOM     11  H   UNL     1      -3.330  -2.196  -0.443  0.00  0.00    +0.169 HD
ATOM     12  C   UNL     1       0.927  -2.025   1.100  0.00  0.00    +0.018 C 
ATOM     13  C   UNL     1       0.730  -0.518   1.250  0.00  0.00    +0.011 C 
ATOM     14  C   UNL     1       1.445  -2.599   2.421  0.00  0.00    +0.012 C 
ENDROOT
BRANCH   7  15
ATOM     15  C   UNL     1      -1.716  -6.182   0.795  0.00  0.00    +0.105 C 
ATOM     16  N   UNL     1      -1.797  -7.305   0.944  0.00  0.00    -0.191 NA
ENDBRANCH   7  15
TORSDOF 1
