REMARK  Name = ZINC06148648
REMARK  14 active torsions:
REMARK  status: ('A' for Active; 'I' for Inactive)
REMARK    1  A    between atoms: C_1  and  C_2
REMARK    2  A    between atoms: C_3  and  C_35
REMARK    3  A    between atoms: C_4  and  C_25
REMARK    4  A    between atoms: C_10  and  C_15
REMARK    5  A    between atoms: C_18  and  O_23
REMARK    6  A    between atoms: C_19  and  O_21
REMARK    7  A    between atoms: O_21  and  C_22
REMARK    8  A    between atoms: O_23  and  C_24
REMARK    9  A    between atoms: C_28  and  O_33
REMARK   10  A    between atoms: C_30  and  O_31
REMARK   11  A    between atoms: O_31  and  C_32
REMARK   12  A    between atoms: O_33  and  C_34
REMARK   13  A    between atoms: C_35  and  O_37
REMARK   14  A    between atoms: O_37  and  C_38
REMARK                            x       y       z     vdW  Elec       q    Type
REMARK                         _______ _______ _______ _____ _____    ______ ____
ROOT
ATOM      1  C   UNL     1       4.980   2.444  -2.523  0.00  0.00    +0.061 C 
ATOM      2  C   UNL     1       4.253   2.756  -1.241  0.00  0.00    +0.031 C 
ATOM      3  C   UNL     1       3.208   3.602  -1.255  0.00  0.00    +0.154 C 
ATOM      4  C   UNL     1       2.456   3.932  -0.000  0.00  0.00    +0.077 C 
ATOM      5  C   UNL     1       3.256   3.564   1.224  0.00  0.00    +0.025 C 
ATOM      6  C   UNL     1       4.304   2.719   1.135  0.00  0.00    +0.049 C 
ATOM      7  N   UNL     1       4.659   2.177  -0.071  0.00  0.00    -0.260 NA
ATOM      8  C   UNL     1       5.111   2.349   2.356  0.00  0.00    +0.064 C 
ATOM      9  C   UNL     1       4.216   2.385   3.595  0.00  0.00    +0.032 C 
ATOM     10  C   UNL     1       3.619   3.791   3.724  0.00  0.00    +0.088 C 
ATOM     11  C   UNL     1       2.880   4.126   2.457  0.00  0.00    +0.162 C 
ATOM     12  O   UNL     1       1.940   4.896   2.500  0.00  0.00    -0.292 OA
ENDROOT
BRANCH   9  13
ATOM     13  C   UNL     1       5.034   2.068   4.820  0.00  0.00    -0.040 A 
ATOM     14  C   UNL     1       6.105   2.873   5.162  0.00  0.00    +0.008 A 
ATOM     15  C   UNL     1       6.858   2.586   6.285  0.00  0.00    +0.049 A 
ATOM     16  C   UNL     1       6.540   1.490   7.071  0.00  0.00    +0.161 A 
ATOM     17  C   UNL     1       5.462   0.680   6.727  0.00  0.00    +0.162 A 
ATOM     18  C   UNL     1       4.708   0.977   5.603  0.00  0.00    +0.053 A 
BRANCH  17  19
ATOM     19  O   UNL     1       5.146  -0.397   7.495  0.00  0.00    -0.491 OA
ATOM     20  C   UNL     1       4.027  -1.183   7.082  0.00  0.00    +0.277 C 
ENDBRANCH  17  19
BRANCH  16  21
ATOM     21  O   UNL     1       7.281   1.206   8.176  0.00  0.00    -0.491 OA
ATOM     22  C   UNL     1       8.373   2.081   8.467  0.00  0.00    +0.277 C 
ENDBRANCH  16  21
ENDBRANCH   9  13
BRANCH   4  23
ATOM     23  C   UNL     1       1.159   3.164   0.007  0.00  0.00    +0.003 A 
ATOM     24  C   UNL     1       1.175   1.782   0.000  0.00  0.00    +0.011 A 
ATOM     25  C   UNL     1      -0.013   1.076   0.008  0.00  0.00    +0.046 A 
ATOM     26  C   UNL     1      -1.224   1.753   0.017  0.00  0.00    +0.124 A 
ATOM     27  C   UNL     1      -1.242   3.139   0.030  0.00  0.00    +0.091 A 
ATOM     28  C   UNL     1      -0.049   3.845   0.022  0.00  0.00    +0.127 A 
BRANCH  28  29
ATOM     29  O   UNL     1      -0.064   5.204   0.029  0.00  0.00    -0.495 OA
ATOM     30  C   UNL     1      -1.344   5.839   0.044  0.00  0.00    +0.277 C 
ENDBRANCH  28  29
BRANCH  26  31
ATOM     31  O   UNL     1      -2.392   1.057   0.019  0.00  0.00    -0.495 OA
ATOM     32  C   UNL     1      -2.298  -0.368   0.012  0.00  0.00    +0.277 C 
ENDBRANCH  26  31
ENDBRANCH   4  23
BRANCH   3  33
ATOM     33  C   UNL     1       2.812   4.195  -2.477  0.00  0.00    +0.316 C 
ATOM     34  O   UNL     1       3.416   3.938  -3.501  0.00  0.00    -0.250 OA
BRANCH  33  35
ATOM     35  O   UNL     1       1.765   5.045  -2.505  0.00  0.00    -0.467 OA
ATOM     36  C   UNL     1       1.420   5.607  -3.773  0.00  0.00    +0.280 C 
ENDBRANCH  33  35
ENDBRANCH   3  33
TORSDOF 8
