REMARK  Name = ZINC40302992
REMARK  5 active torsions:
REMARK  status: ('A' for Active; 'I' for Inactive)
REMARK    1  A    between atoms: C_1  and  C_2
REMARK    2  A    between atoms: C_7  and  N_10
REMARK    3  A    between atoms: C_11  and  C_13
REMARK    4  A    between atoms: C_15  and  N_20
REMARK    5  A    between atoms: C_17  and  N_19
REMARK                            x       y       z     vdW  Elec       q    Type
REMARK                         _______ _______ _______ _____ _____    ______ ____
ROOT
ATOM      1  C   UNL     1       1.922  -4.244   4.106  0.00  0.00    +0.040 A 
ATOM      2  C   UNL     1       2.867  -3.434   4.736  0.00  0.00    +0.036 A 
ATOM      3  C   UNL     1       3.535  -3.897   5.860  0.00  0.00    +0.027 A 
ATOM      4  C   UNL     1       3.265  -5.165   6.357  0.00  0.00    +0.045 A 
ATOM      5  C   UNL     1       2.326  -5.974   5.732  0.00  0.00    +0.027 A 
ATOM      6  C   UNL     1       1.649  -5.515   4.611  0.00  0.00    +0.036 A 
ENDROOT
BRANCH   1   8
ATOM      7  N   UNL     1       1.471  -2.526   2.420  0.00  0.00    -0.308 N 
ATOM      8  C   UNL     1       1.207  -3.754   2.907  0.00  0.00    +0.244 C 
ATOM      9  O   UNL     1       0.380  -4.460   2.362  0.00  0.00    -0.270 OA
ATOM     10  H   UNL     1       2.131  -1.963   2.855  0.00  0.00    +0.149 HD
BRANCH   7  16
ATOM     11  C   UNL     1      -0.019   1.526   0.010  0.00  0.00    +0.007 C 
ATOM     12  C   UNL     1       0.002  -0.004   0.002  0.00  0.00    -0.012 C 
ATOM     13  C   UNL     1       0.718  -0.497  -1.257  0.00  0.00    +0.003 C 
ATOM     14  C   UNL     1       0.739  -2.027  -1.265  0.00  0.00    +0.002 C 
ATOM     15  C   UNL     1       1.479  -2.534  -0.026  0.00  0.00    +0.022 C 
ATOM     16  C   UNL     1       0.763  -2.041   1.233  0.00  0.00    +0.073 C 
ATOM     17  C   UNL     1       0.742  -0.511   1.242  0.00  0.00    +0.025 C 
ENDBRANCH   7  16
ENDBRANCH   1   8
BRANCH   5  18
ATOM     18  N   UNL     1       2.058  -7.249   6.236  0.00  0.00    -0.358 N 
ATOM     19  H   UNL     1       2.528  -7.568   7.022  0.00  0.00    +0.142 HD
ATOM     20  H   UNL     1       1.402  -7.815   5.800  0.00  0.00    +0.142 HD
ENDBRANCH   5  18
BRANCH   3  21
ATOM     21  N   UNL     1       4.482  -3.086   6.491  0.00  0.00    -0.358 N 
ATOM     22  H   UNL     1       4.671  -2.200   6.144  0.00  0.00    +0.142 HD
ATOM     23  H   UNL     1       4.950  -3.409   7.277  0.00  0.00    +0.142 HD
ENDBRANCH   3  21
TORSDOF 4
