REMARK  Name = ZINC64415106
REMARK  4 active torsions:
REMARK  status: ('A' for Active; 'I' for Inactive)
REMARK    1  A    between atoms: C_1  and  C_2
REMARK    2  A    between atoms: C_4  and  C_14
REMARK    3  A    between atoms: N_16  and  C_17
REMARK    4  A    between atoms: C_20  and  C_23
REMARK                            x       y       z     vdW  Elec       q    Type
REMARK                         _______ _______ _______ _____ _____    ______ ____
ROOT
ATOM      1  C   UNL     1      -0.328   0.368  -2.251  0.00  0.00    +0.262 C 
ATOM      2  O   UNL     1      -1.348  -0.175  -2.620  0.00  0.00    -0.271 OA
ATOM      3  N   UNL     1       0.235   1.330  -3.009  0.00  0.00    -0.282 N 
ATOM      4  H   UNL     1       1.096   1.701  -2.761  0.00  0.00    +0.155 HD
ENDROOT
BRANCH   1   7
ATOM      5  C   UNL     1      -0.239  -2.438  -1.379  0.00  0.00    +0.056 C 
ATOM      6  C   UNL     1       0.886  -1.450  -1.064  0.00  0.00    +0.220 C 
ATOM      7  C   UNL     1       0.310  -0.032  -0.946  0.00  0.00    +0.299 C 
ATOM      8  O   UNL     1       1.384   0.863  -0.637  0.00  0.00    -0.472 OA
ATOM      9  C   UNL     1       2.243   0.473   0.343  0.00  0.00    +0.163 A 
ATOM     10  C   UNL     1       3.068   1.415   0.940  0.00  0.00    +0.049 A 
ATOM     11  C   UNL     1       3.948   1.034   1.935  0.00  0.00    +0.004 A 
ATOM     12  C   UNL     1       4.008  -0.287   2.338  0.00  0.00    +0.004 A 
ATOM     13  C   UNL     1       3.188  -1.230   1.749  0.00  0.00    +0.049 A 
ATOM     14  C   UNL     1       2.301  -0.854   0.751  0.00  0.00    +0.163 A 
ATOM     15  O   UNL     1       1.495  -1.793   0.185  0.00  0.00    -0.481 OA
ENDBRANCH   1   7
BRANCH   3  16
ATOM     16  C   UNL     1      -0.422   1.792  -4.155  0.00  0.00    +0.034 A 
ATOM     17  C   UNL     1      -1.099   0.900  -4.977  0.00  0.00    +0.023 A 
ATOM     18  C   UNL     1      -1.746   1.360  -6.107  0.00  0.00    +0.008 A 
ATOM     19  C   UNL     1      -1.722   2.706  -6.420  0.00  0.00    -0.020 A 
ATOM     20  C   UNL     1      -1.050   3.597  -5.603  0.00  0.00    +0.008 A 
ATOM     21  C   UNL     1      -0.405   3.145  -4.469  0.00  0.00    +0.023 A 
BRANCH  19  22
ATOM     22  C   UNL     1      -2.430   3.204  -7.653  0.00  0.00    +0.153 C 
ATOM     23  C   UNL     1      -1.438   3.474  -8.770  0.00  0.00    +0.025 C 
ATOM     24  C   UNL     1      -1.570   4.780  -9.009  0.00  0.00    +0.130 C 
ATOM     25  N   UNL     1      -2.499   5.326  -8.194  0.00  0.00    -0.186 NA
ATOM     26  N   UNL     1      -3.030   4.528  -7.411  0.00  0.00    -0.298 N 
ATOM     27  H   UNL     1      -3.715   4.734  -6.757  0.00  0.00    +0.183 HD
ENDBRANCH  19  22
ENDBRANCH   3  16
TORSDOF 3
