REMARK  Name = ZINC40324858
REMARK  3 active torsions:
REMARK  status: ('A' for Active; 'I' for Inactive)
REMARK    1  A    between atoms: C_4  and  S_8
REMARK    2  A    between atoms: C_5  and  N_7
REMARK    3  A    between atoms: S_8  and  N_11
REMARK                            x       y       z     vdW  Elec       q    Type
REMARK                         _______ _______ _______ _____ _____    ______ ____
ROOT
ATOM      1  S   UNL     1       3.974  -0.798  -0.007  0.00  0.00    +0.077 S 
ATOM      2  O   UNL     1       4.614   0.429   0.312  0.00  0.00    -0.150 OA
ATOM      3  O   UNL     1       2.652  -0.857  -0.525  0.00  0.00    -0.150 OA
ENDROOT
BRANCH   1   4
ATOM      4  N   UNL     1       3.980  -1.708   1.377  0.00  0.00    -0.201 N 
ATOM      5  C   UNL     1       4.495  -1.107   2.603  0.00  0.00    +0.142 C 
ATOM      6  C   UNL     1       5.592  -2.018   3.177  0.00  0.00    +0.095 C 
ATOM      7  S   UNL     1       4.806  -3.583   3.666  0.00  0.00    -0.122 S 
ATOM      8  C   UNL     1       3.788  -3.975   2.279  0.00  0.00    +0.031 A 
ATOM      9  C   UNL     1       3.486  -3.013   1.317  0.00  0.00    +0.065 A 
ATOM     10  C   UNL     1       2.668  -3.356   0.244  0.00  0.00    +0.026 A 
ATOM     11  C   UNL     1       2.160  -4.635   0.133  0.00  0.00    +0.002 A 
ATOM     12  C   UNL     1       2.459  -5.588   1.089  0.00  0.00    +0.001 A 
ATOM     13  C   UNL     1       3.279  -5.262   2.158  0.00  0.00    +0.016 A 
ENDBRANCH   1   4
BRANCH   1  17
ATOM     14  C   UNL     1       6.636  -2.905  -3.009  0.00  0.00    +0.002 A 
ATOM     15  C   UNL     1       5.279  -2.782  -3.248  0.00  0.00    +0.002 A 
ATOM     16  C   UNL     1       4.467  -2.140  -2.332  0.00  0.00    +0.031 A 
ATOM     17  C   UNL     1       5.009  -1.618  -1.173  0.00  0.00    +0.129 A 
ATOM     18  C   UNL     1       6.371  -1.739  -0.930  0.00  0.00    +0.052 A 
ATOM     19  C   UNL     1       7.184  -2.385  -1.853  0.00  0.00    +0.025 A 
BRANCH  18  20
ATOM     20  N   UNL     1       6.922  -1.213   0.241  0.00  0.00    -0.356 N 
ATOM     21  H   UNL     1       6.345  -0.828   0.919  0.00  0.00    +0.142 HD
ATOM     22  H   UNL     1       7.883  -1.231   0.375  0.00  0.00    +0.142 HD
ENDBRANCH  18  20
ENDBRANCH   1  17
TORSDOF 3
