REMARK  Name = ZINC20734491
REMARK  4 active torsions:
REMARK  status: ('A' for Active; 'I' for Inactive)
REMARK    1  A    between atoms: C_9  and  S_14
REMARK    2  A    between atoms: C_11  and  O_13
REMARK    3  A    between atoms: S_14  and  C_15
REMARK    4  A    between atoms: C_18  and  C_20
REMARK                            x       y       z     vdW  Elec       q    Type
REMARK                         _______ _______ _______ _____ _____    ______ ____
ROOT
ATOM      1  C   UNL     1      -0.017   1.373   0.010  0.00  0.00    +0.000 A 
ATOM      2  C   UNL     1       1.178   2.071   0.002  0.00  0.00    +0.002 A 
ATOM      3  C   UNL     1       2.366   1.387  -0.018  0.00  0.00    +0.028 A 
ATOM      4  C   UNL     1       2.401  -0.025  -0.029  0.00  0.00    +0.071 A 
ATOM      5  C   UNL     1       1.200  -0.715  -0.012  0.00  0.00    -0.022 A 
ATOM      6  C   UNL     1       0.002  -0.004   0.002  0.00  0.00    +0.006 A 
ATOM      7  C   UNL     1       1.071  -2.206   0.008  0.00  0.00    +0.039 C 
ATOM      8  C   UNL     1       2.115  -2.952  -0.764  0.00  0.00    +0.029 C 
ATOM      9  C   UNL     1       3.449  -3.006  -0.061  0.00  0.00    +0.141 C 
ATOM     10  C   UNL     1       4.160  -1.701  -0.109  0.00  0.00    +0.201 C 
ATOM     11  N   UNL     1       3.635  -0.562  -0.062  0.00  0.00    -0.216 NA
ENDROOT
BRANCH  10  12
ATOM     12  O   UNL     1       5.504  -1.746  -0.213  0.00  0.00    -0.495 OA
ATOM     13  H   UNL     1       5.925  -0.876  -0.240  0.00  0.00    +0.293 HD
ENDBRANCH  10  12
BRANCH   9  14
ATOM     14  S   UNL     1       4.483  -4.267  -0.856  0.00  0.00    -0.053 S 
BRANCH  14  15
ATOM     15  C   UNL     1       5.931  -4.324   0.146  0.00  0.00    +0.278 A 
ATOM     16  N   UNL     1       6.163  -3.603   1.219  0.00  0.00    -0.101 NA
ATOM     17  N   UNL     1       7.318  -3.906   1.697  0.00  0.00    -0.106 NA
ATOM     18  C   UNL     1       7.870  -4.830   0.950  0.00  0.00    +0.249 A 
ATOM     19  O   UNL     1       7.002  -5.118  -0.044  0.00  0.00    -0.411 OA
BRANCH  18  20
ATOM     20  C   UNL     1       9.196  -5.449   1.160  0.00  0.00    +0.040 A 
ATOM     21  C   UNL     1       9.663  -6.423   0.276  0.00  0.00    +0.013 A 
ATOM     22  C   UNL     1      10.901  -6.996   0.477  0.00  0.00    +0.002 A 
ATOM     23  C   UNL     1      11.681  -6.607   1.552  0.00  0.00    +0.015 A 
ATOM     24  C   UNL     1      11.224  -5.641   2.433  0.00  0.00    +0.019 A 
ATOM     25  C   UNL     1       9.989  -5.056   2.240  0.00  0.00    +0.028 A 
ATOM     26 BR   UNL     1      12.298  -5.117   3.898  0.00  0.00    -0.050 Br
ENDBRANCH  18  20
ENDBRANCH  14  15
ENDBRANCH   9  14
TORSDOF 4
