REMARK  Name = ZINC01091843
REMARK  4 active torsions:
REMARK  status: ('A' for Active; 'I' for Inactive)
REMARK    1  A    between atoms: C_1  and  N_2
REMARK    2  A    between atoms: C_5  and  C_7
REMARK    3  A    between atoms: N_9  and  N_10
REMARK    4  A    between atoms: C_11  and  C_12
REMARK                            x       y       z     vdW  Elec       q    Type
REMARK                         _______ _______ _______ _____ _____    ______ ____
ROOT
ATOM      1  C   UNL     1       2.492  -0.013  -0.022  0.00  0.00    +0.010 A 
ATOM      2  C   UNL     1       1.276  -0.726  -0.030  0.00  0.00    -0.009 A 
ATOM      3  C   UNL     1       1.259  -2.131  -0.054  0.00  0.00    +0.009 A 
ATOM      4  C   UNL     1       0.069  -2.789  -0.062  0.00  0.00    +0.001 A 
ATOM      5  C   UNL     1      -1.145  -2.104  -0.047  0.00  0.00    +0.001 A 
ATOM      6  C   UNL     1      -1.198  -0.747  -0.023  0.00  0.00    +0.008 A 
ATOM      7  C   UNL     1       0.002  -0.004  -0.014  0.00  0.00    -0.017 A 
ATOM      8  C   UNL     1      -0.017   1.391   0.010  0.00  0.00    +0.017 A 
ATOM      9  C   UNL     1       1.182   2.105   0.018  0.00  0.00    -0.017 A 
ATOM     10  C   UNL     1       2.464   1.397   0.002  0.00  0.00    -0.009 A 
ATOM     11  C   UNL     1       3.654   2.146   0.011  0.00  0.00    +0.009 A 
ATOM     12  C   UNL     1       3.592   3.504   0.033  0.00  0.00    +0.001 A 
ATOM     13  C   UNL     1       2.373   4.181   0.048  0.00  0.00    +0.001 A 
ATOM     14  C   UNL     1       1.189   3.516   0.041  0.00  0.00    +0.008 A 
ENDROOT
BRANCH   1  16
ATOM     15  N   UNL     1       3.792  -2.027   0.055  0.00  0.00    -0.187 NA
ATOM     16  C   UNL     1       3.771  -0.729  -0.037  0.00  0.00    +0.139 C 
BRANCH  15  19
ATOM     17  C   UNL     1       5.035  -4.056   0.135  0.00  0.00    +0.284 C 
ATOM     18  O   UNL     1       3.993  -4.675   0.233  0.00  0.00    -0.267 OA
ATOM     19  N   UNL     1       5.014  -2.711   0.040  0.00  0.00    -0.202 N 
ATOM     20  H   UNL     1       5.845  -2.217  -0.038  0.00  0.00    +0.178 HD
BRANCH  17  25
ATOM     21  C   UNL     1       9.865  -4.914  -0.054  0.00  0.00    +0.172 C 
ATOM     22  N   UNL     1       8.422  -5.153   0.038  0.00  0.00    -0.273 N 
ATOM     23  C   UNL     1       7.843  -6.374   0.155  0.00  0.00    +0.124 A 
ATOM     24  C   UNL     1       6.505  -6.177   0.210  0.00  0.00    +0.068 A 
ATOM     25  C   UNL     1       6.323  -4.776   0.120  0.00  0.00    +0.163 A 
ATOM     26  N   UNL     1       7.522  -4.237   0.013  0.00  0.00    -0.166 NA
ATOM     27 BR   UNL     1       5.160  -7.497   0.374  0.00  0.00    -0.046 Br
ENDBRANCH  17  25
ENDBRANCH  15  19
ENDBRANCH   1  16
TORSDOF 3
