REMARK  Name = ZINC04989687
REMARK  3 active torsions:
REMARK  status: ('A' for Active; 'I' for Inactive)
REMARK    1  A    between atoms: C_12  and  N_13
REMARK    2  A    between atoms: N_13  and  N_14
REMARK    3  A    between atoms: C_15  and  C_17
REMARK                            x       y       z     vdW  Elec       q    Type
REMARK                         _______ _______ _______ _____ _____    ______ ____
ROOT
ATOM      1  N   UNL     1       4.921   1.365  -0.140  0.00  0.00    -0.271 N 
ATOM      2  H   UNL     1       4.085   1.857  -0.129  0.00  0.00    +0.169 HD
ENDROOT
BRANCH   1  14
ATOM      3  C   UNL     1       0.320   0.858  -2.120  0.00  0.00    +0.001 A 
ATOM      4  C   UNL     1       1.505   1.585  -2.110  0.00  0.00    +0.001 A 
ATOM      5  C   UNL     1       2.616   1.104  -1.454  0.00  0.00    +0.009 A 
ATOM      6  C   UNL     1       2.548  -0.123  -0.793  0.00  0.00    -0.006 A 
ATOM      7  C   UNL     1       1.344  -0.860  -0.804  0.00  0.00    -0.017 A 
ATOM      8  C   UNL     1       0.230  -0.344  -1.481  0.00  0.00    +0.008 A 
ATOM      9  C   UNL     1       1.272  -2.143  -0.115  0.00  0.00    +0.012 C 
ATOM     10  C   UNL     1       2.337  -2.650   0.540  0.00  0.00    +0.052 C 
ATOM     11  C   UNL     1       3.571  -1.967   0.591  0.00  0.00    +0.188 C 
ATOM     12  O   UNL     1       4.516  -2.453   1.192  0.00  0.00    -0.287 OA
ATOM     13  C   UNL     1       3.714  -0.670  -0.081  0.00  0.00    +0.044 C 
ATOM     14  C   UNL     1       4.914   0.020  -0.045  0.00  0.00    +0.100 C 
ENDBRANCH   1  14
BRANCH   1  15
ATOM     15  N   UNL     1       6.137   2.053  -0.253  0.00  0.00    -0.233 N 
ATOM     16  C   UNL     1       6.144   3.397  -0.347  0.00  0.00    +0.262 C 
ATOM     17  O   UNL     1       5.096   4.013  -0.334  0.00  0.00    -0.269 OA
ATOM     18  H   UNL     1       6.973   1.561  -0.264  0.00  0.00    +0.173 HD
BRANCH  16  19
ATOM     19  C   UNL     1       7.423   4.121  -0.467  0.00  0.00    +0.062 A 
ATOM     20  C   UNL     1       8.627   3.419  -0.489  0.00  0.00    +0.015 A 
ATOM     21  C   UNL     1       9.830   4.092  -0.601  0.00  0.00    +0.001 A 
ATOM     22  C   UNL     1       9.859   5.468  -0.693  0.00  0.00    +0.010 A 
ATOM     23  C   UNL     1       8.667   6.193  -0.673  0.00  0.00    +0.000 A 
ATOM     24  C   UNL     1       7.436   5.522  -0.566  0.00  0.00    +0.059 A 
ATOM     25  N   UNL     1       6.451   6.476  -0.579  0.00  0.00    -0.360 N 
ATOM     26  H   UNL     1       5.500   6.294  -0.515  0.00  0.00    +0.165 HD
ATOM     27  C   UNL     1       7.007   7.721  -0.696  0.00  0.00    +0.083 A 
ATOM     28  C   UNL     1       8.344   7.621  -0.748  0.00  0.00    +0.027 A 
ENDBRANCH  16  19
ENDBRANCH   1  15
TORSDOF 3
