REMARK  Name = ZINC44697212
REMARK  3 active torsions:
REMARK  status: ('A' for Active; 'I' for Inactive)
REMARK    1  A    between atoms: C_3  and  N_21
REMARK    2  A    between atoms: C_6  and  N_7
REMARK    3  A    between atoms: C_8  and  C_10
REMARK                            x       y       z     vdW  Elec       q    Type
REMARK                         _______ _______ _______ _____ _____    ______ ____
ROOT
ATOM      1  N   UNL     1      -1.200  -0.720   0.010  0.00  0.00    -0.282 N 
ATOM      2  C   UNL     1      -1.185  -2.063  -0.099  0.00  0.00    +0.248 C 
ATOM      3  O   UNL     1      -0.126  -2.660  -0.113  0.00  0.00    -0.270 OA
ATOM      4  H   UNL     1      -2.044  -0.250   0.098  0.00  0.00    +0.155 HD
ENDROOT
BRANCH   2   5
ATOM      5  C   UNL     1      -2.454  -2.810  -0.202  0.00  0.00    +0.039 A 
ATOM      6  C   UNL     1      -3.672  -2.125  -0.192  0.00  0.00    +0.017 A 
ATOM      7  C   UNL     1      -4.857  -2.821  -0.287  0.00  0.00    +0.048 A 
ATOM      8  C   UNL     1      -4.845  -4.203  -0.394  0.00  0.00    +0.142 A 
ATOM      9  C   UNL     1      -3.631  -4.894  -0.405  0.00  0.00    +0.076 A 
ATOM     10  C   UNL     1      -2.439  -4.203  -0.315  0.00  0.00    +0.040 A 
ATOM     11  N   UNL     1      -3.640  -6.293  -0.512  0.00  0.00    -0.280 N 
ATOM     12  C   UNL     1      -4.771  -6.911  -0.917  0.00  0.00    +0.255 C 
ATOM     13  O   UNL     1      -4.811  -8.121  -0.990  0.00  0.00    -0.272 OA
ATOM     14  C   UNL     1      -5.983  -6.090  -1.278  0.00  0.00    +0.325 C 
ATOM     15  O   UNL     1      -6.009  -4.898  -0.489  0.00  0.00    -0.481 OA
ATOM     16  H   UNL     1      -2.846  -6.808  -0.300  0.00  0.00    +0.155 HD
ENDBRANCH   2   5
BRANCH   1  22
ATOM     17  C   UNL     1       1.070  -0.454  -0.768  0.00  0.00    +0.025 A 
ATOM     18  C   UNL     1       2.256   0.253  -0.782  0.00  0.00    +0.029 A 
ATOM     19  C   UNL     1       2.380   1.415  -0.033  0.00  0.00    +0.067 A 
ATOM     20  C   UNL     1       1.312   1.866   0.732  0.00  0.00    +0.029 A 
ATOM     21  C   UNL     1       0.126   1.159   0.747  0.00  0.00    +0.025 A 
ATOM     22  C   UNL     1       0.002  -0.004  -0.004  0.00  0.00    +0.034 A 
BRANCH  19  23
ATOM     23  N   UNL     1       3.584   2.134  -0.047  0.00  0.00    -0.220 N 
ATOM     24  C   UNL     1       3.856   3.268   0.627  0.00  0.00    +0.225 A 
ATOM     25  N   UNL     1       5.085   3.621   0.347  0.00  0.00    -0.222 NA
ATOM     26  C   UNL     1       5.626   2.743  -0.497  0.00  0.00    +0.245 A 
ATOM     27  N   UNL     1       4.749   1.811  -0.763  0.00  0.00    -0.154 NA
ENDBRANCH  19  23
ENDBRANCH   1  22
TORSDOF 3
