REMARK  Name = ZINC04601515
REMARK  5 active torsions:
REMARK  status: ('A' for Active; 'I' for Inactive)
REMARK    1  A    between atoms: C_3  and  C_6
REMARK    2  A    between atoms: C_9  and  S_12
REMARK    3  A    between atoms: N_10  and  N_11
REMARK    4  A    between atoms: S_12  and  C_13
REMARK    5  A    between atoms: C_13  and  C_14
REMARK                            x       y       z     vdW  Elec       q    Type
REMARK                         _______ _______ _______ _____ _____    ______ ____
ROOT
ATOM      1  C   UNL     1       3.568   0.618  -0.029  0.00  0.00    +0.217 A 
ATOM      2  N   UNL     1       4.372   1.623  -0.299  0.00  0.00    -0.123 NA
ATOM      3  N   UNL     1       5.596   1.239  -0.220  0.00  0.00    -0.120 NA
ATOM      4  C   UNL     1       5.651  -0.033   0.105  0.00  0.00    +0.209 A 
ATOM      5  N   UNL     1       4.364  -0.472   0.244  0.00  0.00    -0.221 N 
ENDROOT
BRANCH   1   8
ATOM      6  C   UNL     1      -0.016   1.344   0.009  0.00  0.00    +0.042 A 
ATOM      7  C   UNL     1       1.324   1.776  -0.001  0.00  0.00    +0.053 A 
ATOM      8  C   UNL     1       2.098   0.654  -0.015  0.00  0.00    +0.173 A 
ATOM      9  O   UNL     1       1.280  -0.418  -0.012  0.00  0.00    -0.460 OA
ATOM     10  C   UNL     1       0.002  -0.004   0.002  0.00  0.00    +0.196 A 
ENDBRANCH   1   8
BRANCH   5  11
ATOM     11  N   UNL     1       3.953  -1.731   0.581  0.00  0.00    -0.294 N 
ATOM     12  H   UNL     1       3.830  -2.303  -0.241  0.00  0.00    +0.163 HD
ATOM     13  H   UNL     1       4.598  -2.161   1.227  0.00  0.00    +0.163 HD
ENDBRANCH   5  11
BRANCH   4  14
ATOM     14  S   UNL     1       7.112  -0.992   0.328  0.00  0.00    -0.080 S 
BRANCH  14  15
ATOM     15  C   UNL     1       8.459   0.179   0.007  0.00  0.00    +0.116 C 
BRANCH  15  16
ATOM     16  C   UNL     1       9.784  -0.522   0.166  0.00  0.00    +0.006 A 
ATOM     17  C   UNL     1      10.406  -0.551   1.399  0.00  0.00    +0.028 A 
ATOM     18  C   UNL     1      11.622  -1.194   1.545  0.00  0.00    +0.042 A 
ATOM     19  C   UNL     1      12.217  -1.807   0.456  0.00  0.00    +0.029 A 
ATOM     20  C   UNL     1      11.598  -1.780  -0.779  0.00  0.00    +0.022 A 
ATOM     21  C   UNL     1      10.375  -1.143  -0.926  0.00  0.00    +0.133 A 
ATOM     22  O   UNL     1       9.748  -1.121  -2.132  0.00  0.00    -0.466 OA
ATOM     23  C   UNL     1      10.540  -1.444  -3.278  0.00  0.00    +0.394 C 
ATOM     24  O   UNL     1      11.287  -2.634  -2.998  0.00  0.00    -0.339 OA
ATOM     25  C   UNL     1      12.257  -2.447  -1.959  0.00  0.00    +0.202 C 
ATOM     26 CL   UNL     1      12.403  -1.231   3.095  0.00  0.00    -0.084 Cl
ENDBRANCH  15  16
ENDBRANCH  14  15
ENDBRANCH   4  14
TORSDOF 5
