REMARK  Name = ZINC56616122
REMARK  4 active torsions:
REMARK  status: ('A' for Active; 'I' for Inactive)
REMARK    1  A    between atoms: C_1  and  C_2
REMARK    2  A    between atoms: N_4  and  C_5
REMARK    3  A    between atoms: N_17  and  C_18
REMARK    4  A    between atoms: C_23  and  N_24
REMARK                            x       y       z     vdW  Elec       q    Type
REMARK                         _______ _______ _______ _____ _____    ______ ____
ROOT
ATOM      1  C   UNL     1       0.040  -2.052  -1.221  0.00  0.00    +0.037 A 
ATOM      2  C   UNL     1       0.041  -2.794  -0.050  0.00  0.00    +0.023 A 
ATOM      3  C   UNL     1       0.159  -4.169  -0.111  0.00  0.00    +0.002 A 
ATOM      4  C   UNL     1       0.280  -4.794  -1.335  0.00  0.00    +0.005 A 
ATOM      5  C   UNL     1       0.281  -4.054  -2.511  0.00  0.00    -0.025 A 
ATOM      6  C   UNL     1       0.149  -2.686  -2.460  0.00  0.00    -0.020 A 
ATOM      7  C   UNL     1       0.106  -1.822  -3.692  0.00  0.00    +0.056 C 
ATOM      8  C   UNL     1       0.706  -2.554  -4.891  0.00  0.00    +0.114 C 
ATOM      9  N   UNL     1       0.123  -3.906  -4.934  0.00  0.00    -0.281 N 
ATOM     10  C   UNL     1       0.432  -4.802  -3.812  0.00  0.00    +0.144 C 
ATOM     11  C   UNL     1      -0.653  -4.303  -5.962  0.00  0.00    +0.307 C 
ATOM     12  O   UNL     1      -0.811  -3.572  -6.921  0.00  0.00    -0.252 OA
ATOM     13  N   UNL     1      -1.253  -5.509  -5.927  0.00  0.00    -0.266 N 
ATOM     14  H   UNL     1      -1.061  -6.125  -5.203  0.00  0.00    +0.156 HD
ENDROOT
BRANCH  13  15
ATOM     15  C   UNL     1      -2.155  -5.873  -6.937  0.00  0.00    +0.073 A 
ATOM     16  C   UNL     1      -2.826  -4.900  -7.667  0.00  0.00    +0.028 A 
ATOM     17  C   UNL     1      -3.709  -5.309  -8.657  0.00  0.00    +0.019 A 
ATOM     18  C   UNL     1      -3.893  -6.657  -8.886  0.00  0.00    +0.084 A 
ATOM     19  N   UNL     1      -3.242  -7.562  -8.178  0.00  0.00    -0.348 N 
ATOM     20  C   UNL     1      -2.387  -7.219  -7.229  0.00  0.00    +0.121 A 
ATOM     21  H   UNL     1      -3.392  -8.503  -8.361  0.00  0.00    +0.167 HD
BRANCH  20  22
ATOM     22  N   UNL     1      -1.719  -8.207  -6.511  0.00  0.00    -0.315 N 
ATOM     23  C   UNL     1      -0.372  -8.717  -6.806  0.00  0.00    +0.106 C 
ATOM     24  C   UNL     1      -0.060  -9.814  -5.767  0.00  0.00    +0.020 C 
ATOM     25  C   UNL     1      -1.470 -10.255  -5.293  0.00  0.00    +0.020 C 
ATOM     26  C   UNL     1      -2.241  -8.909  -5.325  0.00  0.00    +0.106 C 
ENDBRANCH  20  22
ENDBRANCH  13  15
BRANCH   1  30
ATOM     27  C   UNL     1       0.449   1.528  -0.131  0.00  0.00    +0.109 C 
ATOM     28  C   UNL     1       0.485   0.021  -0.142  0.00  0.00    +0.214 C 
ATOM     29  O   UNL     1       1.020  -0.579   0.766  0.00  0.00    -0.276 OA
ATOM     30  N   UNL     1      -0.078  -0.659  -1.161  0.00  0.00    -0.285 N 
ATOM     31  H   UNL     1      -0.564  -0.183  -1.852  0.00  0.00    +0.155 HD
ENDBRANCH   1  30
TORSDOF 3
