REMARK  Name = ZINC35324654
REMARK  5 active torsions:
REMARK  status: ('A' for Active; 'I' for Inactive)
REMARK    1  A    between atoms: C_1  and  O_2
REMARK    2  A    between atoms: O_2  and  C_3
REMARK    3  A    between atoms: C_4  and  C_14
REMARK    4  A    between atoms: C_8  and  O_9
REMARK    5  A    between atoms: O_9  and  C_10
REMARK                            x       y       z     vdW  Elec       q    Type
REMARK                         _______ _______ _______ _____ _____    ______ ____
ROOT
ATOM      1  C   UNL     1       0.607  -0.608  -1.057  0.00  0.00    +0.169 A 
ATOM      2  C   UNL     1      -0.129  -0.921  -2.189  0.00  0.00    +0.010 A 
ATOM      3  C   UNL     1       0.483  -1.534  -3.267  0.00  0.00    +0.057 A 
ATOM      4  C   UNL     1       1.834  -1.838  -3.220  0.00  0.00    +0.170 A 
ATOM      5  C   UNL     1       2.578  -1.526  -2.086  0.00  0.00    +0.211 A 
ATOM      6  C   UNL     1       1.964  -0.905  -1.006  0.00  0.00    +0.208 A 
ATOM      7  O   UNL     1       3.869  -1.923  -2.287  0.00  0.00    -0.449 OA
ATOM      8  C   UNL     1       3.820  -2.847  -3.390  0.00  0.00    +0.467 C 
ATOM      9  O   UNL     1       2.659  -2.431  -4.133  0.00  0.00    -0.452 OA
ENDROOT
BRANCH   2  10
ATOM     10  C   UNL     1      -1.599  -0.594  -2.245  0.00  0.00    +0.066 C 
ATOM     11  C   UNL     1      -2.406  -1.877  -2.458  0.00  0.00    +0.109 C 
ATOM     12  C   UNL     1      -2.314  -2.367  -3.873  0.00  0.00    +0.219 C 
ATOM     13  O   UNL     1      -2.257  -3.563  -4.070  0.00  0.00    -0.275 OA
ATOM     14  N   UNL     1      -2.293  -1.536  -4.936  0.00  0.00    -0.269 N 
ATOM     15  C   UNL     1      -2.205  -0.157  -4.688  0.00  0.00    +0.150 A 
ATOM     16  C   UNL     1      -1.869   0.334  -3.402  0.00  0.00    +0.020 A 
ATOM     17  C   UNL     1      -1.853   1.672  -3.460  0.00  0.00    +0.111 A 
ATOM     18  N   UNL     1      -2.169   2.033  -4.727  0.00  0.00    -0.283 N 
ATOM     19  H   UNL     1      -2.234   2.942  -5.060  0.00  0.00    +0.188 HD
ATOM     20  N   UNL     1      -2.385   0.861  -5.474  0.00  0.00    -0.158 NA
ATOM     21  H   UNL     1      -2.337  -1.880  -5.842  0.00  0.00    +0.156 HD
ENDBRANCH   2  10
BRANCH   1  23
ATOM     22  C   UNL     1      -0.017   1.425   0.010  0.00  0.00    +0.277 C 
ATOM     23  O   UNL     1       0.002  -0.004   0.002  0.00  0.00    -0.491 OA
ENDBRANCH   1  23
BRANCH   6  24
ATOM     24  O   UNL     1       2.688  -0.593   0.102  0.00  0.00    -0.488 OA
ATOM     25  C   UNL     1       2.765  -1.585   1.128  0.00  0.00    +0.277 C 
ENDBRANCH   6  24
TORSDOF 3
