REMARK  Name = ZINC66928963
REMARK  7 active torsions:
REMARK  status: ('A' for Active; 'I' for Inactive)
REMARK    1  A    between atoms: C_1  and  C_2
REMARK    2  A    between atoms: C_4  and  C_12
REMARK    3  A    between atoms: C_5  and  N_11
REMARK    4  A    between atoms: C_6  and  N_8
REMARK    5  A    between atoms: N_14  and  C_15
REMARK    6  A    between atoms: C_15  and  C_16
REMARK    7  A    between atoms: C_16  and  O_26
REMARK                            x       y       z     vdW  Elec       q    Type
REMARK                         _______ _______ _______ _____ _____    ______ ____
ROOT
ATOM      1  C   UNL     1       0.240  -2.836  -2.142  0.00  0.00    +0.246 C 
ATOM      2  O   UNL     1       0.251  -4.047  -2.032  0.00  0.00    -0.270 OA
ATOM      3  N   UNL     1       0.095  -2.272  -3.358  0.00  0.00    -0.308 N 
ATOM      4  H   UNL     1       0.086  -1.306  -3.446  0.00  0.00    +0.149 HD
ENDROOT
BRANCH   1   8
ATOM      5  C   UNL     1       0.707   1.689  -0.103  0.00  0.00    +0.044 C 
ATOM      6  C   UNL     1       0.610   0.192   0.042  0.00  0.00    -0.047 A 
ATOM      7  C   UNL     1       0.475  -0.598  -1.079  0.00  0.00    +0.018 A 
ATOM      8  C   UNL     1       0.385  -1.986  -0.947  0.00  0.00    +0.060 A 
ATOM      9  C   UNL     1       0.434  -2.565   0.331  0.00  0.00    +0.067 A 
ATOM     10  C   UNL     1       0.570  -1.752   1.449  0.00  0.00    +0.148 A 
ATOM     11  C   UNL     1       0.663  -0.384   1.302  0.00  0.00    +0.038 A 
BRANCH  10  12
ATOM     12  N   UNL     1       0.622  -2.356   2.800  0.00  0.00    +0.058 N 
ATOM     13  O   UNL     1       0.640  -1.647   3.778  0.00  0.00    -0.126 OA
ATOM     14  O   UNL     1       0.647  -3.558   2.924  0.00  0.00    -0.126 OA
ENDBRANCH  10  12
BRANCH   9  15
ATOM     15  N   UNL     1       0.345  -3.943   0.476  0.00  0.00    -0.356 N 
ATOM     16  H   UNL     1       0.733  -4.528  -0.194  0.00  0.00    +0.142 HD
ATOM     17  H   UNL     1      -0.105  -4.322   1.247  0.00  0.00    +0.142 HD
ENDBRANCH   9  15
ENDBRANCH   1   8
BRANCH   3  18
ATOM     18  C   UNL     1      -0.049  -3.117  -4.545  0.00  0.00    +0.144 C 
BRANCH  18  19
ATOM     19  C   UNL     1      -0.318  -2.237  -5.768  0.00  0.00    +0.107 C 
ATOM     20  C   UNL     1       0.828  -1.241  -5.933  0.00  0.00    +0.041 C 
ATOM     21  C   UNL     1       0.653  -0.521  -7.275  0.00  0.00    +0.008 C 
ATOM     22  C   UNL     1       0.933  -1.519  -8.397  0.00  0.00    +0.035 C 
ATOM     23  C   UNL     1       0.131  -2.777  -8.198  0.00  0.00    -0.041 A 
ATOM     24  C   UNL     1      -0.441  -3.110  -6.990  0.00  0.00    -0.011 A 
ATOM     25  C   UNL     1      -1.164  -4.289  -6.873  0.00  0.00    +0.007 A 
ATOM     26  C   UNL     1      -1.317  -5.129  -7.957  0.00  0.00    +0.000 A 
ATOM     27  C   UNL     1      -0.747  -4.793  -9.170  0.00  0.00    +0.000 A 
ATOM     28  C   UNL     1      -0.027  -3.623  -9.289  0.00  0.00    +0.004 A 
BRANCH  19  29
ATOM     29  O   UNL     1      -1.540  -1.522  -5.575  0.00  0.00    -0.382 OA
ATOM     30  H   UNL     1      -2.313  -2.090  -5.454  0.00  0.00    +0.211 HD
ENDBRANCH  19  29
ENDBRANCH  18  19
ENDBRANCH   3  18
TORSDOF 6
