REMARK  Name = ZINC04971895
REMARK  8 active torsions:
REMARK  status: ('A' for Active; 'I' for Inactive)
REMARK    1  A    between atoms: C_1  and  C_2
REMARK    2  A    between atoms: C_3  and  N_9
REMARK    3  A    between atoms: C_10  and  C_12
REMARK    4  A    between atoms: C_12  and  N_13
REMARK    5  A    between atoms: C_14  and  N_27
REMARK    6  A    between atoms: C_15  and  C_18
REMARK    7  A    between atoms: N_20  and  C_21
REMARK    8  A    between atoms: C_21  and  C_22
REMARK                            x       y       z     vdW  Elec       q    Type
REMARK                         _______ _______ _______ _____ _____    ______ ____
ROOT
ATOM      1  N   UNL     1       0.297  -0.832  -5.993  0.00  0.00    -0.222 N 
ATOM      2  C   UNL     1       1.438  -1.341  -6.514  0.00  0.00    +0.148 A 
ATOM      3  C   UNL     1       1.055  -2.184  -7.549  0.00  0.00    +0.188 A 
ATOM      4  N   UNL     1      -0.289  -2.165  -7.626  0.00  0.00    -0.123 NA
ATOM      5  N   UNL     1      -0.765  -1.385  -6.721  0.00  0.00    -0.063 NA
ENDROOT
BRANCH   3   6
ATOM      6  C   UNL     1       1.957  -2.961  -8.408  0.00  0.00    +0.268 C 
ATOM      7  O   UNL     1       3.161  -2.896  -8.242  0.00  0.00    -0.268 OA
ATOM      8  N   UNL     1       1.452  -3.745  -9.381  0.00  0.00    -0.305 N 
ATOM      9  H   UNL     1       0.492  -3.797  -9.513  0.00  0.00    +0.149 HD
BRANCH   8  10
ATOM     10  C   UNL     1       2.352  -4.520 -10.238  0.00  0.00    +0.147 C 
BRANCH  10  11
ATOM     11  C   UNL     1       1.542  -5.307 -11.236  0.00  0.00    +0.007 A 
ATOM     12  C   UNL     1       1.138  -4.949 -12.479  0.00  0.00    +0.013 A 
ATOM     13  C   UNL     1       0.395  -5.843 -13.226  0.00  0.00    +0.008 A 
ATOM     14  C   UNL     1       0.092  -7.052 -12.693  0.00  0.00    +0.045 A 
ATOM     15  S   UNL     1       0.873  -6.955 -11.091  0.00  0.00    -0.100 S 
ENDBRANCH  10  11
ENDBRANCH   8  10
ENDBRANCH   3   6
BRANCH   2  16
ATOM     16  N   UNL     1       2.727  -1.073  -6.100  0.00  0.00    -0.341 N 
ATOM     17  H   UNL     1       2.882  -0.464  -5.362  0.00  0.00    +0.144 HD
ATOM     18  H   UNL     1       3.477  -1.495  -6.547  0.00  0.00    +0.144 HD
ENDBRANCH   2  16
BRANCH   1  19
ATOM     19  C   UNL     1       0.192   0.111  -4.876  0.00  0.00    +0.243 C 
BRANCH  19  21
ATOM     20  N   UNL     1      -0.010   0.011  -2.413  0.00  0.00    -0.284 N 
ATOM     21  C   UNL     1       0.095  -0.653  -3.581  0.00  0.00    +0.239 C 
ATOM     22  O   UNL     1       0.112  -1.866  -3.590  0.00  0.00    -0.273 OA
ATOM     23  H   UNL     1      -0.104   0.977  -2.411  0.00  0.00    +0.155 HD
BRANCH  20  26
ATOM     24  C   UNL     1      -1.263   1.190  -0.146  0.00  0.00    +0.047 C 
ATOM     25  C   UNL     1      -0.583  -0.153  -0.073  0.00  0.00    -0.011 A 
ATOM     26  C   UNL     1       0.017  -0.692  -1.204  0.00  0.00    +0.038 A 
ATOM     27  C   UNL     1       0.642  -1.929  -1.132  0.00  0.00    +0.023 A 
ATOM     28  C   UNL     1       0.667  -2.621   0.064  0.00  0.00    +0.003 A 
ATOM     29  C   UNL     1       0.069  -2.084   1.188  0.00  0.00    +0.020 A 
ATOM     30  C   UNL     1      -0.550  -0.848   1.122  0.00  0.00    +0.046 A 
ATOM     31 CL   UNL     1      -1.293  -0.173   2.538  0.00  0.00    -0.083 Cl
ENDBRANCH  20  26
ENDBRANCH  19  21
ENDBRANCH   1  19
TORSDOF 7
