REMARK  Name = ZINC09326051
REMARK  12 active torsions:
REMARK  status: ('A' for Active; 'I' for Inactive)
REMARK    1  A    between atoms: C_1  and  N_2
REMARK    2  A    between atoms: N_2  and  C_3
REMARK    3  A    between atoms: N_2  and  S_4
REMARK    4  A    between atoms: S_4  and  C_7
REMARK    5  A    between atoms: C_10  and  C_13
REMARK    6  A    between atoms: C_13  and  N_15
REMARK    7  A    between atoms: N_17  and  C_28
REMARK    8  A    between atoms: C_19  and  O_26
REMARK    9  A    between atoms: O_26  and  C_27
REMARK   10  A    between atoms: C_28  and  C_29
REMARK   11  A    between atoms: C_29  and  O_30
REMARK   12  A    between atoms: O_30  and  C_31
REMARK                            x       y       z     vdW  Elec       q    Type
REMARK                         _______ _______ _______ _____ _____    ______ ____
ROOT
ATOM      1  N   UNL     1      -3.405   3.424   5.309  0.00  0.00    -0.152 NA
ATOM      2  C   UNL     1      -2.346   2.695   4.973  0.00  0.00    +0.167 A 
ATOM      3  N   UNL     1      -1.896   2.385   3.728  0.00  0.00    -0.316 N 
ATOM      4  C   UNL     1      -0.763   1.605   3.575  0.00  0.00    +0.101 A 
ATOM      5  C   UNL     1      -0.148   1.182   2.380  0.00  0.00    +0.145 A 
ATOM      6  C   UNL     1       0.985   0.397   2.412  0.00  0.00    +0.049 A 
ATOM      7  C   UNL     1       1.556   0.011   3.613  0.00  0.00    +0.025 A 
ATOM      8  C   UNL     1       0.972   0.415   4.801  0.00  0.00    +0.057 A 
ATOM      9  C   UNL     1      -0.163   1.194   4.772  0.00  0.00    +0.061 A 
ATOM     10  S   UNL     1      -1.204   1.912   6.018  0.00  0.00    -0.050 S 
ATOM     11 CL   UNL     1       1.666  -0.060   6.320  0.00  0.00    -0.082 Cl
ENDROOT
BRANCH   1  12
ATOM     12  C   UNL     1      -3.696   3.626   6.598  0.00  0.00    +0.269 C 
ATOM     13  O   UNL     1      -2.990   3.141   7.465  0.00  0.00    -0.268 OA
BRANCH  12  17
ATOM     14  C   UNL     1      -7.084   5.957   7.672  0.00  0.00    +0.105 A 
ATOM     15  C   UNL     1      -6.284   5.408   8.659  0.00  0.00    +0.029 A 
ATOM     16  C   UNL     1      -5.183   4.650   8.317  0.00  0.00    +0.015 A 
ATOM     17  C   UNL     1      -4.877   4.438   6.973  0.00  0.00    +0.039 A 
ATOM     18  C   UNL     1      -5.684   4.998   5.982  0.00  0.00    +0.015 A 
ATOM     19  C   UNL     1      -6.785   5.750   6.337  0.00  0.00    +0.029 A 
BRANCH  14  20
ATOM     20  S   UNL     1      -8.488   6.924   8.118  0.00  0.00    +0.060 S 
ATOM     21  O   UNL     1      -9.384   6.870   7.016  0.00  0.00    -0.153 OA
ATOM     22  O   UNL     1      -8.863   6.516   9.426  0.00  0.00    -0.153 OA
BRANCH  20  24
ATOM     23  C   UNL     1      -8.022   9.371   7.066  0.00  0.00    +0.131 C 
ATOM     24  N   UNL     1      -7.981   8.496   8.239  0.00  0.00    -0.183 NA
ATOM     25  C   UNL     1      -7.491   9.011   9.521  0.00  0.00    +0.131 C 
ENDBRANCH  20  24
ENDBRANCH  14  20
ENDBRANCH  12  17
ENDBRANCH   1  12
BRANCH   5  26
ATOM     26  O   UNL     1      -0.682   1.547   1.184  0.00  0.00    -0.493 OA
ATOM     27  C   UNL     1      -0.013   1.086   0.008  0.00  0.00    +0.277 C 
ENDBRANCH   5  26
BRANCH   3  28
ATOM     28  C   UNL     1      -2.612   2.875   2.548  0.00  0.00    +0.152 C 
BRANCH  28  29
ATOM     29  C   UNL     1      -3.679   1.857   2.139  0.00  0.00    +0.181 C 
BRANCH  29  30
ATOM     30  O   UNL     1      -4.378   2.335   0.988  0.00  0.00    -0.381 OA
ATOM     31  C   UNL     1      -5.401   1.453   0.522  0.00  0.00    +0.194 C 
ENDBRANCH  29  30
ENDBRANCH  28  29
ENDBRANCH   3  28
TORSDOF 8
