REMARK  Name = ZINC15754461
REMARK  8 active torsions:
REMARK  status: ('A' for Active; 'I' for Inactive)
REMARK    1  A    between atoms: C_3  and  N_29
REMARK    2  A    between atoms: C_6  and  C_7
REMARK    3  A    between atoms: C_7  and  C_9
REMARK    4  A    between atoms: C_9  and  S_10
REMARK    5  A    between atoms: S_10  and  C_11
REMARK    6  A    between atoms: C_14  and  C_23
REMARK    7  A    between atoms: N_15  and  C_16
REMARK    8  A    between atoms: C_23  and  N_63
REMARK                            x       y       z     vdW  Elec       q    Type
REMARK                         _______ _______ _______ _____ _____    ______ ____
ROOT
ATOM      1  C   UNL     1       1.708   2.135   0.035  0.00  0.00    +0.196 A 
ATOM      2  N   UNL     1       2.673   1.244   0.043  0.00  0.00    -0.122 NA
ATOM      3  N   UNL     1       3.814   1.835   0.044  0.00  0.00    -0.135 NA
ATOM      4  C   UNL     1       3.651   3.128   0.047  0.00  0.00    +0.122 A 
ATOM      5  N   UNL     1       2.302   3.367   0.042  0.00  0.00    -0.276 N 
ENDROOT
BRANCH   5   6
ATOM      6  C   UNL     1       1.663   4.617   0.043  0.00  0.00    +0.050 A 
ATOM      7  C   UNL     1       1.808   5.472  -1.040  0.00  0.00    +0.029 A 
ATOM      8  C   UNL     1       1.174   6.699  -1.040  0.00  0.00    +0.040 A 
ATOM      9  C   UNL     1       0.402   7.080   0.045  0.00  0.00    +0.124 A 
ATOM     10  C   UNL     1       0.260   6.230   1.129  0.00  0.00    +0.040 A 
ATOM     11  C   UNL     1       0.889   5.000   1.129  0.00  0.00    +0.029 A 
ATOM     12  F   UNL     1      -0.214   8.283   0.046  0.00  0.00    -0.205 F 
ENDBRANCH   5   6
BRANCH   1  13
ATOM     13  S   UNL     1      -0.022   1.806   0.026  0.00  0.00    -0.078 S 
BRANCH  13  14
ATOM     14  C   UNL     1       0.002  -0.004   0.021  0.00  0.00    +0.157 C 
BRANCH  14  15
ATOM     15  C   UNL     1      -1.412  -0.526   0.013  0.00  0.00    +0.173 C 
ATOM     16  O   UNL     1      -2.344   0.250   0.011  0.00  0.00    -0.291 OA
BRANCH  15  22
ATOM     17  C   UNL     1      -0.585  -2.870   0.004  0.00  0.00    +0.013 A 
ATOM     18  C   UNL     1      -0.822  -4.221   0.005  0.00  0.00    +0.024 A 
ATOM     19  C   UNL     1      -2.129  -4.700  -0.002  0.00  0.00    +0.036 A 
ATOM     20  C   UNL     1      -3.201  -3.812  -0.005  0.00  0.00    +0.024 A 
ATOM     21  C   UNL     1      -2.974  -2.460  -0.000  0.00  0.00    +0.013 A 
ATOM     22  C   UNL     1      -1.661  -1.973   0.007  0.00  0.00    +0.018 A 
BRANCH  19  23
ATOM     23  N   UNL     1      -2.365  -6.073  -0.006  0.00  0.00    -0.271 N 
ATOM     24  C   UNL     1      -3.694  -6.685   0.109  0.00  0.00    +0.114 C 
ATOM     25  C   UNL     1      -3.437  -8.159   0.493  0.00  0.00    +0.029 C 
ATOM     26  C   UNL     1      -2.017  -8.390  -0.075  0.00  0.00    +0.098 C 
ATOM     27  C   UNL     1      -1.405  -7.007  -0.123  0.00  0.00    +0.220 C 
ATOM     28  O   UNL     1      -0.222  -6.775  -0.245  0.00  0.00    -0.275 OA
ENDBRANCH  19  23
ENDBRANCH  15  22
ENDBRANCH  14  15
ENDBRANCH  13  14
ENDBRANCH   1  13
BRANCH   4  29
ATOM     29  C   UNL     1       4.742   4.167   0.056  0.00  0.00    -0.001 C 
BRANCH  29  35
ATOM     30  C   UNL     1       3.968   5.159   2.124  0.00  0.00    -0.078 C 
ATOM     31  C   UNL     1       4.313   5.359   3.602  0.00  0.00    -0.019 C 
ATOM     32  C   UNL     1       5.577   6.215   3.715  0.00  0.00    -0.004 C 
ATOM     33  C   UNL     1       6.718   5.530   2.957  0.00  0.00    -0.019 C 
ATOM     34  C   UNL     1       6.304   5.325   1.498  0.00  0.00    -0.078 C 
ATOM     35  N   UNL     1       5.096   4.473   1.457  0.00  0.00    +0.384 N 
ATOM     36  H   UNL     1       5.291   3.595   1.952  0.00  0.00    -0.081 HD
ENDBRANCH  29  35
ENDBRANCH   4  29
TORSDOF 8
