REMARK  Name = ZINC05286054
REMARK  5 active torsions:
REMARK  status: ('A' for Active; 'I' for Inactive)
REMARK    1  A    between atoms: C_1  and  N_2
REMARK    2  A    between atoms: N_7  and  C_10
REMARK    3  A    between atoms: C_10  and  C_11
REMARK    4  A    between atoms: C_11  and  C_13
REMARK    5  A    between atoms: C_11  and  O_15
REMARK                            x       y       z     vdW  Elec       q    Type
REMARK                         _______ _______ _______ _____ _____    ______ ____
ROOT
ATOM      1  C   UNL     1       1.517   4.717  -4.495  0.00  0.00    +0.155 C 
ATOM      2  N   UNL     1       1.111   3.397  -4.007  0.00  0.00    -0.280 N 
ATOM      3  C   UNL     1       0.111   2.692  -4.660  0.00  0.00    +0.169 A 
ATOM      4  C   UNL     1      -0.252   1.445  -4.175  0.00  0.00    +0.152 A 
ATOM      5  C   UNL     1       0.397   0.925  -3.043  0.00  0.00    +0.283 A 
ATOM      6  O   UNL     1       0.093  -0.171  -2.606  0.00  0.00    -0.265 OA
ATOM      7  N   UNL     1       1.359   1.658  -2.445  0.00  0.00    -0.257 N 
ATOM      8  C   UNL     1       1.706   2.866  -2.922  0.00  0.00    +0.333 A 
ATOM      9  O   UNL     1       2.581   3.496  -2.359  0.00  0.00    -0.246 OA
ATOM     10  N   UNL     1      -1.273   0.956  -5.012  0.00  0.00    -0.312 N 
ATOM     11  C   UNL     1      -1.459   1.929  -5.940  0.00  0.00    +0.172 A 
ATOM     12  N   UNL     1      -0.645   2.941  -5.728  0.00  0.00    -0.204 NA
ATOM     13  S   UNL     1      -2.745   1.361  -7.029  0.00  0.00    -0.086 S 
ATOM     14  C   UNL     1      -3.095  -0.261  -6.253  0.00  0.00    +0.099 C 
ATOM     15  C   UNL     1      -2.093  -0.252  -5.088  0.00  0.00    +0.135 C 
ENDROOT
BRANCH   7  16
ATOM     16  C   UNL     1       2.040   1.127  -1.261  0.00  0.00    +0.162 C 
BRANCH  16  17
ATOM     17  C   UNL     1       1.286   1.562  -0.002  0.00  0.00    +0.149 C 
BRANCH  17  18
ATOM     18  C   UNL     1       2.064   1.114   1.238  0.00  0.00    +0.141 C 
ATOM     19 CL   UNL     1       1.254   1.752   2.717  0.00  0.00    -0.123 Cl
ENDBRANCH  17  18
BRANCH  17  20
ATOM     20  O   UNL     1      -0.011   0.963   0.007  0.00  0.00    -0.389 OA
ATOM     21  H   UNL     1       0.002  -0.004   0.002  0.00  0.00    +0.210 HD
ENDBRANCH  17  20
ENDBRANCH  16  17
ENDBRANCH   7  16
TORSDOF 4
