REMARK  Name = ZINC13409290
REMARK  9 active torsions:
REMARK  status: ('A' for Active; 'I' for Inactive)
REMARK    1  A    between atoms: C_1  and  C_2
REMARK    2  A    between atoms: C_4  and  C_16
REMARK    3  A    between atoms: C_12  and  C_13
REMARK    4  A    between atoms: C_16  and  S_17
REMARK    5  A    between atoms: S_17  and  C_18
REMARK    6  A    between atoms: C_21  and  C_29
REMARK    7  A    between atoms: N_22  and  C_23
REMARK    8  A    between atoms: C_23  and  C_24
REMARK    9  A    between atoms: C_29  and  C_30
REMARK                            x       y       z     vdW  Elec       q    Type
REMARK                         _______ _______ _______ _____ _____    ______ ____
ROOT
ATOM      1  C   UNL     1      -1.732   3.666  -2.460  0.00  0.00    +0.192 A 
ATOM      2  N   UNL     1      -0.735   4.288  -3.044  0.00  0.00    -0.122 NA
ATOM      3  N   UNL     1      -0.994   5.544  -3.129  0.00  0.00    -0.133 NA
ATOM      4  C   UNL     1      -2.162   5.796  -2.609  0.00  0.00    +0.139 A 
ATOM      5  N   UNL     1      -2.677   4.607  -2.170  0.00  0.00    -0.298 N 
ENDROOT
BRANCH   1   6
ATOM      6  S   UNL     1      -1.835   1.939  -2.123  0.00  0.00    -0.081 S 
BRANCH   6   7
ATOM      7  C   UNL     1      -0.270   1.274  -2.754  0.00  0.00    +0.113 C 
BRANCH   7  11
ATOM      8  C   UNL     1       0.677   1.499  -0.145  0.00  0.00    +0.046 C 
ATOM      9  C   UNL     1       0.638  -0.008  -0.140  0.00  0.00    -0.020 A 
ATOM     10  C   UNL     1       0.212  -0.733  -1.264  0.00  0.00    +0.014 A 
ATOM     11  C   UNL     1      -0.228  -0.215  -2.524  0.00  0.00    -0.022 A 
ATOM     12  C   UNL     1      -0.607  -1.061  -3.509  0.00  0.00    +0.075 A 
ATOM     13  C   UNL     1      -0.574  -2.454  -3.312  0.00  0.00    +0.250 A 
ATOM     14  O   UNL     1      -0.919  -3.206  -4.209  0.00  0.00    -0.268 OA
ATOM     15  N   UNL     1      -0.162  -2.957  -2.132  0.00  0.00    -0.317 N 
ATOM     16  H   UNL     1      -0.141  -3.917  -1.999  0.00  0.00    +0.169 HD
ATOM     17  C   UNL     1       0.224  -2.130  -1.126  0.00  0.00    +0.089 A 
ATOM     18  S   UNL     1       0.777  -2.410   0.428  0.00  0.00    -0.064 S 
ATOM     19  C   UNL     1       1.020  -0.727   0.957  0.00  0.00    +0.106 A 
BRANCH  19  20
ATOM     20  C   UNL     1       1.492  -0.251   2.207  0.00  0.00    +0.393 C 
ATOM     21  O   UNL     1       1.597   0.954   2.403  0.00  0.00    -0.240 OA
ATOM     22  O   UNL     1       1.794  -1.044   3.090  0.00  0.00    -0.240 OA
ENDBRANCH  19  20
ENDBRANCH   7  11
ENDBRANCH   6   7
ENDBRANCH   1   6
BRANCH   5  23
ATOM     23  C   UNL     1      -3.972   4.391  -1.519  0.00  0.00    +0.199 C 
BRANCH  23  24
ATOM     24  C   UNL     1      -3.814   4.529  -0.027  0.00  0.00    +0.125 A 
ATOM     25  C   UNL     1      -3.953   5.667   0.676  0.00  0.00    +0.046 A 
ATOM     26  C   UNL     1      -3.720   5.342   2.032  0.00  0.00    +0.041 A 
ATOM     27  C   UNL     1      -3.451   4.025   2.076  0.00  0.00    +0.195 A 
ATOM     28  O   UNL     1      -3.515   3.537   0.827  0.00  0.00    -0.466 OA
ENDBRANCH  23  24
ENDBRANCH   5  23
BRANCH   4  29
ATOM     29  C   UNL     1      -2.826   7.146  -2.515  0.00  0.00    +0.111 C 
BRANCH  29  30
ATOM     30  C   UNL     1      -3.657   7.384  -3.750  0.00  0.00    -0.040 A 
ATOM     31  C   UNL     1      -3.092   7.990  -4.856  0.00  0.00    +0.004 A 
ATOM     32  C   UNL     1      -3.854   8.209  -5.989  0.00  0.00    +0.000 A 
ATOM     33  C   UNL     1      -5.181   7.821  -6.015  0.00  0.00    +0.000 A 
ATOM     34  C   UNL     1      -5.745   7.214  -4.908  0.00  0.00    +0.000 A 
ATOM     35  C   UNL     1      -4.982   6.992  -3.777  0.00  0.00    +0.004 A 
ENDBRANCH  29  30
ENDBRANCH   4  29
TORSDOF 8
