REMARK  Name = ZINC10104056
REMARK  10 active torsions:
REMARK  status: ('A' for Active; 'I' for Inactive)
REMARK    1  A    between atoms: C_1  and  C_2
REMARK    2  A    between atoms: C_3  and  C_29
REMARK    3  A    between atoms: N_9  and  C_10
REMARK    4  A    between atoms: C_10  and  C_11
REMARK    5  A    between atoms: C_11  and  N_55
REMARK    6  A    between atoms: C_12  and  N_55
REMARK    7  A    between atoms: C_13  and  N_55
REMARK    8  A    between atoms: N_14  and  C_28
REMARK    9  A    between atoms: N_17  and  C_20
REMARK   10  A    between atoms: C_20  and  C_21
REMARK                            x       y       z     vdW  Elec       q    Type
REMARK                         _______ _______ _______ _____ _____    ______ ____
ROOT
ATOM      1  C   UNL     1      -0.791   7.600   6.397  0.00  0.00    +0.065 C 
ATOM      2  C   UNL     1      -1.248   6.320   5.746  0.00  0.00    +0.038 A 
ATOM      3  C   UNL     1      -0.971   5.935   4.504  0.00  0.00    +0.043 A 
ATOM      4  N   UNL     1      -1.571   4.708   4.285  0.00  0.00    -0.275 N 
ATOM      5  C   UNL     1      -1.773   3.693   3.361  0.00  0.00    +0.157 A 
ATOM      6  C   UNL     1      -2.562   2.735   3.998  0.00  0.00    +0.170 A 
ATOM      7  N   UNL     1      -2.806   3.174   5.230  0.00  0.00    -0.193 NA
ATOM      8  C   UNL     1      -2.221   4.348   5.416  0.00  0.00    +0.218 A 
ATOM      9  N   UNL     1      -2.029   5.345   6.336  0.00  0.00    -0.315 N 
ATOM     10  N   UNL     1      -2.924   1.595   3.297  0.00  0.00    -0.279 N 
ATOM     11  C   UNL     1      -2.517   1.429   2.024  0.00  0.00    +0.334 A 
ATOM     12  O   UNL     1      -2.846   0.425   1.422  0.00  0.00    -0.246 OA
ATOM     13  N   UNL     1      -1.752   2.344   1.404  0.00  0.00    -0.255 N 
ATOM     14  C   UNL     1      -1.369   3.474   2.034  0.00  0.00    +0.283 A 
ATOM     15  O   UNL     1      -0.680   4.297   1.457  0.00  0.00    -0.265 OA
ATOM     16  C   UNL     1      -3.752   0.572   3.940  0.00  0.00    +0.155 C 
ATOM     17  C   UNL     1      -0.144   6.703   3.506  0.00  0.00    +0.066 C 
ENDROOT
BRANCH   9  18
ATOM     18  C   UNL     1      -2.556   5.371   7.702  0.00  0.00    +0.106 C 
BRANCH  18  19
ATOM     19  C   UNL     1      -3.929   6.046   7.706  0.00  0.00    -0.058 C 
BRANCH  19  22
ATOM     20  C   UNL     1      -3.641   6.936   9.939  0.00  0.00    -0.097 C 
ATOM     21  C   UNL     1      -5.865   6.495   9.089  0.00  0.00    -0.097 C 
ATOM     22  N   UNL     1      -4.457   6.046   9.087  0.00  0.00    +0.377 N 
ATOM     23  H   UNL     1      -4.410   5.091   9.462  0.00  0.00    -0.083 HD
ENDBRANCH  19  22
ENDBRANCH  18  19
ENDBRANCH   9  18
BRANCH  13  24
ATOM     24  C   UNL     1      -1.332   2.113   0.020  0.00  0.00    +0.165 C 
BRANCH  24  25
ATOM     25  C   UNL     1      -0.017   1.378   0.010  0.00  0.00    -0.027 A 
ATOM     26  C   UNL     1       1.170   2.087   0.002  0.00  0.00    +0.008 A 
ATOM     27  C   UNL     1       2.377   1.414  -0.013  0.00  0.00    +0.038 A 
ATOM     28  C   UNL     1       2.397   0.029  -0.021  0.00  0.00    +0.123 A 
ATOM     29  C   UNL     1       1.208  -0.679  -0.013  0.00  0.00    +0.038 A 
ATOM     30  C   UNL     1       0.002  -0.004   0.002  0.00  0.00    +0.008 A 
ATOM     31  F   UNL     1       3.577  -0.630  -0.035  0.00  0.00    -0.205 F 
ENDBRANCH  24  25
ENDBRANCH  13  24
TORSDOF 5
