REMARK  Name = ZINC18155475
REMARK  5 active torsions:
REMARK  status: ('A' for Active; 'I' for Inactive)
REMARK    1  A    between atoms: C_1  and  C_2
REMARK    2  A    between atoms: C_7  and  N_8
REMARK    3  A    between atoms: C_9  and  C_11
REMARK    4  A    between atoms: C_15  and  N_17
REMARK    5  A    between atoms: C_24  and  C_30
REMARK                            x       y       z     vdW  Elec       q    Type
REMARK                         _______ _______ _______ _____ _____    ______ ____
ROOT
ATOM      1  C   UNL     1       0.003  -0.004   0.017  0.00  0.00    +0.039 A 
ATOM      2  C   UNL     1       1.224  -0.681   0.009  0.00  0.00    +0.013 A 
ATOM      3  C   UNL     1       2.406   0.029   0.013  0.00  0.00    +0.003 A 
ATOM      4  C   UNL     1       2.387   1.412   0.024  0.00  0.00    +0.024 A 
ATOM      5  C   UNL     1       1.177   2.095   0.031  0.00  0.00    +0.045 A 
ATOM      6  C   UNL     1      -0.016   1.390   0.028  0.00  0.00    +0.037 A 
ENDROOT
BRANCH   5   7
ATOM      7  N   UNL     1       1.164   3.497   0.042  0.00  0.00    -0.210 N 
ATOM      8  C   UNL     1       0.021   4.231   0.050  0.00  0.00    +0.230 C 
ATOM      9  O   UNL     1      -1.103   3.825   0.258  0.00  0.00    -0.274 OA
ATOM     10  C   UNL     1       0.427   5.642  -0.249  0.00  0.00    +0.092 C 
ATOM     11  C   UNL     1      -0.327   6.765   0.431  0.00  0.00    +0.040 C 
ATOM     12  C   UNL     1       0.491   8.024   0.239  0.00  0.00    -0.027 C 
ATOM     13  C   UNL     1       1.748   8.039  -0.086  0.00  0.00    -0.076 C 
ATOM     14  C   UNL     1       2.591   6.798  -0.296  0.00  0.00    +0.043 C 
ATOM     15  C   UNL     1       1.860   5.651   0.367  0.00  0.00    +0.092 C 
ATOM     16  C   UNL     1       2.293   4.252   0.051  0.00  0.00    +0.230 C 
ATOM     17  O   UNL     1       3.425   3.872  -0.157  0.00  0.00    -0.274 OA
ATOM     18  C   UNL     1       2.413   9.379  -0.267  0.00  0.00    +0.039 C 
ENDBRANCH   5   7
BRANCH   1  20
ATOM     19  N   UNL     1      -1.246  -2.111   0.003  0.00  0.00    -0.281 N 
ATOM     20  C   UNL     1      -1.266  -0.763   0.013  0.00  0.00    +0.248 C 
ATOM     21  O   UNL     1      -2.328  -0.172   0.020  0.00  0.00    -0.270 OA
ATOM     22  H   UNL     1      -0.402  -2.582  -0.083  0.00  0.00    +0.155 HD
BRANCH  19  29
ATOM     23  C   UNL     1      -1.330  -4.751  -1.053  0.00  0.00    +0.045 C 
ATOM     24  C   UNL     1      -2.525  -4.121  -0.385  0.00  0.00    -0.029 A 
ATOM     25  C   UNL     1      -3.706  -4.829  -0.272  0.00  0.00    +0.006 A 
ATOM     26  C   UNL     1      -4.803  -4.253   0.341  0.00  0.00    +0.020 A 
ATOM     27  C   UNL     1      -4.722  -2.965   0.843  0.00  0.00    +0.043 A 
ATOM     28  C   UNL     1      -3.542  -2.254   0.737  0.00  0.00    +0.043 A 
ATOM     29  C   UNL     1      -2.440  -2.829   0.117  0.00  0.00    +0.038 A 
ATOM     30 CL   UNL     1      -6.102  -2.245   1.611  0.00  0.00    -0.083 Cl
ENDBRANCH  19  29
ENDBRANCH   1  20
TORSDOF 3
