REMARK  Name = ZINC00532558
REMARK  4 active torsions:
REMARK  status: ('A' for Active; 'I' for Inactive)
REMARK    1  A    between atoms: N_9  and  C_13
REMARK    2  A    between atoms: C_13  and  C_14
REMARK    3  A    between atoms: N_16  and  C_17
REMARK    4  A    between atoms: C_17  and  C_18
REMARK                            x       y       z     vdW  Elec       q    Type
REMARK                         _______ _______ _______ _____ _____    ______ ____
ROOT
ATOM      1  C   UNL     1      -7.911   5.068   8.728  0.00  0.00    +0.001 A 
ATOM      2  C   UNL     1      -6.990   6.008   9.155  0.00  0.00    +0.002 A 
ATOM      3  C   UNL     1      -5.670   5.910   8.741  0.00  0.00    +0.029 A 
ATOM      4  C   UNL     1      -5.293   4.888   7.917  0.00  0.00    +0.121 A 
ATOM      5  C   UNL     1      -6.202   3.921   7.468  0.00  0.00    +0.065 A 
ATOM      6  C   UNL     1      -7.535   4.037   7.897  0.00  0.00    +0.015 A 
ATOM      7  C   UNL     1      -5.575   2.920   6.594  0.00  0.00    +0.268 C 
ATOM      8  O   UNL     1      -6.226   2.011   6.118  0.00  0.00    -0.268 OA
ATOM      9  N   UNL     1      -4.263   3.038   6.336  0.00  0.00    -0.159 N 
ATOM     10  S   UNL     1      -3.761   4.394   7.177  0.00  0.00    +0.078 S 
ATOM     11  O   UNL     1      -2.896   3.961   8.217  0.00  0.00    -0.150 OA
ATOM     12  O   UNL     1      -3.405   5.386   6.224  0.00  0.00    -0.150 OA
ENDROOT
BRANCH   9  13
ATOM     13  C   UNL     1      -3.442   2.159   5.498  0.00  0.00    +0.230 C 
BRANCH  13  14
ATOM     14  C   UNL     1      -3.554   2.590   4.059  0.00  0.00    +0.232 C 
ATOM     15  O   UNL     1      -4.250   3.537   3.761  0.00  0.00    -0.274 OA
ATOM     16  N   UNL     1      -2.880   1.922   3.102  0.00  0.00    -0.311 N 
ATOM     17  H   UNL     1      -2.322   1.165   3.340  0.00  0.00    +0.149 HD
BRANCH  16  18
ATOM     18  C   UNL     1      -2.988   2.341   1.702  0.00  0.00    +0.135 C 
BRANCH  18  19
ATOM     19  C   UNL     1      -2.131   1.423   0.827  0.00  0.00    +0.135 C 
ATOM     20  C   UNL     1      -2.230   1.847  -0.655  0.00  0.00    +0.035 C 
ATOM     21  C   UNL     1      -0.804   1.620  -1.206  0.00  0.00    +0.031 C 
ATOM     22  C   UNL     1      -0.013   1.086   0.008  0.00  0.00    +0.160 C 
ATOM     23  O   UNL     1      -0.731   1.573   1.163  0.00  0.00    -0.375 OA
ENDBRANCH  18  19
ENDBRANCH  16  18
ENDBRANCH  13  14
ENDBRANCH   9  13
TORSDOF 4
