REMARK  Name = ZINC40011176
REMARK  7 active torsions:
REMARK  status: ('A' for Active; 'I' for Inactive)
REMARK    1  A    between atoms: C_1  and  C_2
REMARK    2  A    between atoms: C_5  and  N_27
REMARK    3  A    between atoms: C_7  and  C_13
REMARK    4  A    between atoms: C_19  and  O_25
REMARK    5  A    between atoms: O_25  and  C_26
REMARK    6  A    between atoms: N_27  and  C_28
REMARK    7  A    between atoms: C_28  and  C_29
REMARK                            x       y       z     vdW  Elec       q    Type
REMARK                         _______ _______ _______ _____ _____    ______ ____
ROOT
ATOM      1  C   UNL     1       0.045   1.645   0.130  0.00  0.00    +0.045 C 
ATOM      2  C   UNL     1       0.041   0.138   0.102  0.00  0.00    -0.036 C 
ATOM      3  C   UNL     1      -1.126  -0.531  -0.001  0.00  0.00    +0.078 C 
ATOM      4  N   UNL     1      -1.152  -1.895  -0.027  0.00  0.00    -0.304 N 
ATOM      5  C   UNL     1      -2.291  -2.823  -0.132  0.00  0.00    +0.049 C 
ATOM      6  C   UNL     1      -1.627  -4.212  -0.106  0.00  0.00    +0.126 C 
ATOM      7  N   UNL     1      -0.195  -3.922   0.010  0.00  0.00    -0.265 NA
ATOM      8  C   UNL     1       0.007  -2.621   0.049  0.00  0.00    +0.119 C 
ATOM      9  C   UNL     1       1.244  -1.925   0.158  0.00  0.00    +0.044 C 
ATOM     10  C   UNL     1       1.253  -0.569   0.178  0.00  0.00    +0.008 C 
ENDROOT
BRANCH   6  11
ATOM     11  C   UNL     1      -1.920  -4.971  -1.402  0.00  0.00    +0.123 C 
ATOM     12  C   UNL     1      -1.216  -4.247  -2.533  0.00  0.00    -0.003 C 
ATOM     13  C   UNL     1      -1.984  -3.803  -3.565  0.00  0.00    -0.007 A 
ATOM     14  C   UNL     1      -1.379  -3.096  -4.696  0.00  0.00    +0.013 A 
ATOM     15  C   UNL     1      -2.175  -2.669  -5.706  0.00  0.00    +0.046 A 
ATOM     16  C   UNL     1      -3.559  -2.892  -5.687  0.00  0.00    +0.122 A 
ATOM     17  C   UNL     1      -4.184  -3.551  -4.651  0.00  0.00    +0.069 A 
ATOM     18  C   UNL     1      -3.441  -4.028  -3.564  0.00  0.00    +0.044 A 
ATOM     19  N   UNL     1      -4.057  -4.665  -2.565  0.00  0.00    -0.284 N 
ATOM     20  C   UNL     1      -3.419  -5.141  -1.511  0.00  0.00    +0.226 C 
ATOM     21  O   UNL     1      -4.034  -5.714  -0.632  0.00  0.00    -0.275 OA
ATOM     22  H   UNL     1      -5.019  -4.784  -2.616  0.00  0.00    +0.155 HD
BRANCH  16  23
ATOM     23  O   UNL     1      -4.308  -2.443  -6.723  0.00  0.00    -0.495 OA
ATOM     24  C   UNL     1      -3.619  -1.766  -7.776  0.00  0.00    +0.277 C 
ENDBRANCH  16  23
ENDBRANCH   6  11
BRANCH   5  25
ATOM     25  N   UNL     1      -3.013  -2.615  -1.394  0.00  0.00    +0.396 N 
ATOM     26  H   UNL     1      -2.366  -2.678  -2.166  0.00  0.00    -0.083 HD
ATOM     27  H   UNL     1      -3.725  -3.323  -1.495  0.00  0.00    -0.083 HD
BRANCH  25  28
ATOM     28  C   UNL     1      -3.640  -1.287  -1.387  0.00  0.00    -0.044 C 
BRANCH  28  29
ATOM     29  C   UNL     1      -4.498  -1.130  -2.615  0.00  0.00    -0.064 A 
ATOM     30  C   UNL     1      -3.954  -0.617  -3.778  0.00  0.00    +0.002 A 
ATOM     31  C   UNL     1      -4.741  -0.473  -4.905  0.00  0.00    +0.000 A 
ATOM     32  C   UNL     1      -6.073  -0.842  -4.870  0.00  0.00    +0.000 A 
ATOM     33  C   UNL     1      -6.617  -1.355  -3.707  0.00  0.00    +0.000 A 
ATOM     34  C   UNL     1      -5.829  -1.503  -2.581  0.00  0.00    +0.002 A 
ENDBRANCH  28  29
ENDBRANCH  25  28
ENDBRANCH   5  25
TORSDOF 5
