REMARK  Name = ZINC39154595
REMARK  7 active torsions:
REMARK  status: ('A' for Active; 'I' for Inactive)
REMARK    1  A    between atoms: C_13  and  S_15
REMARK    2  A    between atoms: S_15  and  C_16
REMARK    3  A    between atoms: C_16  and  C_17
REMARK    4  A    between atoms: N_19  and  C_20
REMARK    5  A    between atoms: C_22  and  C_39
REMARK    6  A    between atoms: C_24  and  C_34
REMARK    7  A    between atoms: C_26  and  C_29
REMARK                            x       y       z     vdW  Elec       q    Type
REMARK                         _______ _______ _______ _____ _____    ______ ____
ROOT
ATOM      1  C   UNL     1       5.737  -5.560   3.671  0.00  0.00    +0.225 C 
ATOM      2  O   UNL     1       5.111  -6.492   4.129  0.00  0.00    -0.275 OA
ATOM      3  N   UNL     1       7.018  -5.362   4.041  0.00  0.00    -0.288 N 
ATOM      4  H   UNL     1       7.519  -4.617   3.674  0.00  0.00    +0.151 HD
ENDROOT
BRANCH   3   5
ATOM      5  C   UNL     1       7.654  -6.273   4.996  0.00  0.00    +0.224 C 
ATOM      6  C   UNL     1       8.587  -5.493   5.956  0.00  0.00    +0.152 C 
ATOM      7  C   UNL     1       9.587  -6.589   6.399  0.00  0.00    +0.112 C 
ATOM      8  C   UNL     1       9.481  -7.663   5.298  0.00  0.00    +0.198 C 
ATOM      9  O   UNL     1       8.547  -7.181   4.316  0.00  0.00    -0.346 OA
BRANCH   8  10
ATOM     10  C   UNL     1      10.831  -7.883   4.665  0.00  0.00    +0.134 A 
ATOM     11  C   UNL     1      11.674  -8.894   4.940  0.00  0.00    +0.047 A 
ATOM     12  C   UNL     1      12.813  -8.711   4.123  0.00  0.00    +0.041 A 
ATOM     13  C   UNL     1      12.598  -7.599   3.397  0.00  0.00    +0.195 A 
ATOM     14  O   UNL     1      11.393  -7.105   3.726  0.00  0.00    -0.465 OA
ENDBRANCH   8  10
BRANCH   7  15
ATOM     15  C   UNL     1      10.986  -6.033   6.463  0.00  0.00    +0.112 A 
ATOM     16  C   UNL     1      11.778  -6.020   7.550  0.00  0.00    +0.045 A 
ATOM     17  C   UNL     1      12.993  -5.409   7.165  0.00  0.00    +0.041 A 
ATOM     18  C   UNL     1      12.871  -5.085   5.865  0.00  0.00    +0.195 A 
ATOM     19  O   UNL     1      11.655  -5.471   5.444  0.00  0.00    -0.467 OA
ENDBRANCH   7  15
BRANCH   6  20
ATOM     20  C   UNL     1       9.280  -4.405   5.246  0.00  0.00    +0.071 C 
ATOM     21  N   UNL     1       9.815  -3.566   4.699  0.00  0.00    -0.196 NA
ENDBRANCH   6  20
ENDBRANCH   3   5
BRANCH   1  22
ATOM     22  C   UNL     1       5.084  -4.623   2.688  0.00  0.00    +0.173 C 
BRANCH  22  23
ATOM     23  S   UNL     1       3.373  -5.150   2.396  0.00  0.00    -0.075 S 
BRANCH  23  35
ATOM     24  C   UNL     1      -0.016   1.348   0.009  0.00  0.00    +0.001 A 
ATOM     25  C   UNL     1       1.156   2.116   0.002  0.00  0.00    +0.002 A 
ATOM     26  C   UNL     1       2.382   1.544  -0.019  0.00  0.00    +0.026 A 
ATOM     27  C   UNL     1       2.490   0.081  -0.035  0.00  0.00    +0.046 A 
ATOM     28  N   UNL     1       3.530  -0.719  -0.024  0.00  0.00    -0.358 N 
ATOM     29  C   UNL     1       3.070  -2.089  -0.174  0.00  0.00    +0.252 C 
ATOM     30  C   UNL     1       1.561  -2.038  -0.014  0.00  0.00    +0.117 C 
ATOM     31  C   UNL     1       1.230  -0.705  -0.014  0.00  0.00    +0.025 A 
ATOM     32  C   UNL     1       0.002  -0.004   0.002  0.00  0.00    +0.012 A 
ATOM     33  N   UNL     1       0.842  -3.139   0.220  0.00  0.00    -0.147 NA
ATOM     34  N   UNL     1       1.473  -4.102   0.821  0.00  0.00    -0.122 NA
ATOM     35  C   UNL     1       2.755  -3.971   1.242  0.00  0.00    +0.208 C 
ATOM     36  N   UNL     1       3.565  -3.019   0.839  0.00  0.00    -0.227 NA
ATOM     37  H   UNL     1       4.455  -0.441   0.070  0.00  0.00    +0.162 HD
ENDBRANCH  23  35
ENDBRANCH  22  23
ENDBRANCH   1  22
TORSDOF 7
