REMARK  Name = ZINC20716048
REMARK  9 active torsions:
REMARK  status: ('A' for Active; 'I' for Inactive)
REMARK    1  A    between atoms: C_1  and  O_2
REMARK    2  A    between atoms: O_2  and  C_3
REMARK    3  A    between atoms: C_3  and  C_5
REMARK    4  A    between atoms: C_5  and  C_7
REMARK    5  A    between atoms: C_5  and  N_11
REMARK    6  A    between atoms: C_7  and  C_8
REMARK    7  A    between atoms: C_8  and  S_9
REMARK    8  A    between atoms: S_9  and  C_10
REMARK    9  A    between atoms: C_23  and  C_25
REMARK                            x       y       z     vdW  Elec       q    Type
REMARK                         _______ _______ _______ _____ _____    ______ ____
ROOT
ATOM      1  N   UNL     1      -0.594  -2.322  -3.514  0.00  0.00    -0.286 N 
ATOM      2  C   UNL     1       0.722  -2.616  -3.504  0.00  0.00    +0.304 C 
ATOM      3  O   UNL     1       1.371  -2.461  -2.487  0.00  0.00    -0.253 OA
ATOM      4  N   UNL     1       1.317  -3.081  -4.620  0.00  0.00    -0.273 N 
ATOM      5  C   UNL     1       2.723  -3.511  -4.601  0.00  0.00    +0.116 C 
ATOM      6  C   UNL     1       2.795  -5.014  -4.899  0.00  0.00    +0.076 C 
ATOM      7  C   UNL     1       1.894  -5.321  -6.070  0.00  0.00    +0.066 A 
ATOM      8  C   UNL     1       0.908  -4.508  -6.507  0.00  0.00    +0.064 A 
ATOM      9  N   UNL     1       0.320  -5.123  -7.568  0.00  0.00    -0.346 N 
ATOM     10  H   UNL     1      -0.423  -4.785  -8.092  0.00  0.00    +0.167 HD
ATOM     11  C   UNL     1       0.967  -6.297  -7.753  0.00  0.00    +0.197 A 
ATOM     12  N   UNL     1       1.907  -6.405  -6.851  0.00  0.00    -0.240 NA
ATOM     13  C   UNL     1       0.574  -3.178  -5.889  0.00  0.00    +0.156 C 
ATOM     14  H   UNL     1      -1.095  -2.370  -4.344  0.00  0.00    +0.151 HD
ENDROOT
BRANCH  13  15
ATOM     15  C   UNL     1       0.995  -2.067  -6.816  0.00  0.00    -0.018 A 
ATOM     16  C   UNL     1       2.296  -2.010  -7.282  0.00  0.00    +0.006 A 
ATOM     17  C   UNL     1       2.683  -0.991  -8.132  0.00  0.00    +0.003 A 
ATOM     18  C   UNL     1       1.770  -0.028  -8.517  0.00  0.00    +0.038 A 
ATOM     19  C   UNL     1       0.468  -0.083  -8.052  0.00  0.00    +0.124 A 
ATOM     20  C   UNL     1       0.079  -1.107  -7.205  0.00  0.00    +0.044 A 
ATOM     21  F   UNL     1      -0.425   0.859  -8.427  0.00  0.00    -0.205 F 
ENDBRANCH  13  15
BRANCH   1  22
ATOM     22  C   UNL     1      -1.266  -1.929  -2.274  0.00  0.00    +0.184 C 
BRANCH  22  23
ATOM     23  C   UNL     1      -1.696  -3.162  -1.523  0.00  0.00    +0.327 C 
ATOM     24  O   UNL     1      -1.464  -4.258  -1.977  0.00  0.00    -0.249 OA
BRANCH  23  26
ATOM     25  C   UNL     1      -2.714  -4.256   0.308  0.00  0.00    +0.280 C 
ATOM     26  O   UNL     1      -2.336  -3.045  -0.349  0.00  0.00    -0.467 OA
ENDBRANCH  23  26
ENDBRANCH  22  23
BRANCH  22  27
ATOM     27  C   UNL     1      -2.496  -1.081  -2.607  0.00  0.00    +0.044 C 
BRANCH  27  28
ATOM     28  C   UNL     1      -2.050   0.230  -3.259  0.00  0.00    +0.071 C 
BRANCH  28  29
ATOM     29  S   UNL     1      -3.507   1.235  -3.653  0.00  0.00    -0.164 S 
ATOM     30  C   UNL     1      -2.816   2.733  -4.408  0.00  0.00    +0.084 C 
ENDBRANCH  28  29
ENDBRANCH  27  28
ENDBRANCH  22  27
ENDBRANCH   1  22
TORSDOF 7
