REMARK  Name = ZINC66121115
REMARK  3 active torsions:
REMARK  status: ('A' for Active; 'I' for Inactive)
REMARK    1  A    between atoms: C_10  and  N_13
REMARK    2  A    between atoms: C_19  and  N_22
REMARK    3  A    between atoms: C_23  and  C_25
REMARK                            x       y       z     vdW  Elec       q    Type
REMARK                         _______ _______ _______ _____ _____    ______ ____
ROOT
ATOM      1  N   UNL     1      -0.150  -7.103   0.857  0.00  0.00    -0.296 N 
ATOM      2  C   UNL     1       0.536  -6.887   1.997  0.00  0.00    +0.302 C 
ATOM      3  O   UNL     1       1.136  -5.841   2.157  0.00  0.00    -0.253 OA
ATOM      4  N   UNL     1       0.556  -7.829   2.960  0.00  0.00    -0.286 N 
ATOM      5  C   UNL     1       1.193  -7.561   4.257  0.00  0.00    +0.111 C 
ATOM      6  C   UNL     1       0.187  -7.861   5.372  0.00  0.00    +0.041 C 
ATOM      7  C   UNL     1      -0.335  -9.291   5.212  0.00  0.00    +0.076 C 
ATOM      8  C   UNL     1      -1.050  -9.427   3.866  0.00  0.00    +0.041 C 
ATOM      9  C   UNL     1      -0.063  -9.142   2.736  0.00  0.00    +0.111 C 
ATOM     10  H   UNL     1      -0.691  -7.902   0.761  0.00  0.00    +0.151 HD
ENDROOT
BRANCH   1  20
ATOM     11  C   UNL     1       1.151  -5.753  -6.412  0.00  0.00    +0.005 A 
ATOM     12  C   UNL     1      -0.081  -5.857  -7.045  0.00  0.00    +0.018 A 
ATOM     13  C   UNL     1      -1.236  -5.798  -6.292  0.00  0.00    +0.084 A 
ATOM     14  N   UNL     1      -1.182  -5.643  -4.983  0.00  0.00    -0.350 N 
ATOM     15  C   UNL     1      -0.028  -5.539  -4.342  0.00  0.00    +0.099 A 
ATOM     16  C   UNL     1       1.175  -5.591  -5.038  0.00  0.00    +0.042 A 
ATOM     17  N   UNL     1      -0.019  -5.376  -2.962  0.00  0.00    -0.317 N 
ATOM     18  C   UNL     1      -1.275  -5.197  -2.220  0.00  0.00    +0.108 C 
ATOM     19  C   UNL     1      -1.337  -6.239  -1.099  0.00  0.00    +0.041 C 
ATOM     20  C   UNL     1      -0.078  -6.130  -0.236  0.00  0.00    +0.077 C 
ATOM     21  C   UNL     1       1.156  -6.419  -1.095  0.00  0.00    +0.041 C 
ATOM     22  C   UNL     1       1.247  -5.385  -2.216  0.00  0.00    +0.108 C 
ATOM     23  H   UNL     1      -2.009  -5.604  -4.477  0.00  0.00    +0.166 HD
ENDBRANCH   1  20
BRANCH   7  24
ATOM     24  N   UNL     1      -1.272  -9.593   6.296  0.00  0.00    -0.312 N 
ATOM     25  C   UNL     1      -1.474 -10.870   6.677  0.00  0.00    +0.216 C 
ATOM     26  O   UNL     1      -0.879 -11.769   6.122  0.00  0.00    -0.276 OA
ATOM     27  H   UNL     1      -1.748  -8.874   6.740  0.00  0.00    +0.149 HD
BRANCH  25  28
ATOM     28  C   UNL     1      -2.439 -11.180   7.792  0.00  0.00    +0.075 C 
ATOM     29  C   UNL     1      -1.832 -11.015   9.196  0.00  0.00    +0.013 C 
ATOM     30  C   UNL     1      -2.599 -12.287   9.592  0.00  0.00    +0.001 C 
ATOM     31  C   UNL     1      -2.556 -12.681   8.106  0.00  0.00    +0.013 C 
ENDBRANCH  25  28
ENDBRANCH   7  24
TORSDOF 3
