REMARK  Name = ZINC31940256
REMARK  6 active torsions:
REMARK  status: ('A' for Active; 'I' for Inactive)
REMARK    1  A    between atoms: C_1  and  C_2
REMARK    2  A    between atoms: C_9  and  C_11
REMARK    3  A    between atoms: N_13  and  N_14
REMARK    4  A    between atoms: C_15  and  C_17
REMARK    5  A    between atoms: C_19  and  S_22
REMARK    6  A    between atoms: S_22  and  N_25
REMARK                            x       y       z     vdW  Elec       q    Type
REMARK                         _______ _______ _______ _____ _____    ______ ____
ROOT
ATOM      1  N   UNL     1       4.519   1.683  -0.032  0.00  0.00    -0.230 N 
ATOM      2  C   UNL     1       3.691   0.620  -0.030  0.00  0.00    +0.261 C 
ATOM      3  O   UNL     1       4.148  -0.507  -0.040  0.00  0.00    -0.269 OA
ATOM      4  H   UNL     1       4.105   2.703  -0.022  0.00  0.00    +0.173 HD
ENDROOT
BRANCH   2   5
ATOM      5  C   UNL     1       2.233   0.823  -0.015  0.00  0.00    +0.047 A 
ATOM      6  C   UNL     1       1.318  -0.291  -0.012  0.00  0.00    +0.049 A 
ATOM      7  C   UNL     1       0.002  -0.004   0.002  0.00  0.00    +0.143 A 
ATOM      8  S   UNL     1      -0.022   1.777   0.012  0.00  0.00    -0.076 S 
ATOM      9  C   UNL     1       1.681   2.087  -0.003  0.00  0.00    +0.060 A 
BRANCH   7  10
ATOM     10  S   UNL     1      -1.363  -1.118   0.010  0.00  0.00    +0.062 S 
ATOM     11  O   UNL     1      -2.470  -0.408  -0.527  0.00  0.00    -0.153 OA
ATOM     12  O   UNL     1      -0.895  -2.337  -0.552  0.00  0.00    -0.153 OA
BRANCH  10  13
ATOM     13  N   UNL     1      -1.727  -1.436   1.593  0.00  0.00    -0.203 NA
ATOM     14  H   UNL     1      -2.578  -2.131   1.642  0.00  0.00    +0.144 HD
ATOM     15  H   UNL     1      -1.990  -0.498   2.104  0.00  0.00    +0.144 HD
ENDBRANCH  10  13
ENDBRANCH   7  10
ENDBRANCH   2   5
BRANCH   1  18
ATOM     16  C   UNL     1       6.734   2.554  -0.049  0.00  0.00    +0.267 C 
ATOM     17  O   UNL     1       6.277   3.682  -0.038  0.00  0.00    -0.268 OA
ATOM     18  N   UNL     1       5.907   1.491  -0.046  0.00  0.00    -0.230 N 
ATOM     19  H   UNL     1       6.320   0.471  -0.056  0.00  0.00    +0.173 HD
BRANCH  16  27
ATOM     20  C   UNL     1      14.183   3.913   0.188  0.00  0.00    +0.008 C 
ATOM     21  C   UNL     1      12.947   3.026   0.356  0.00  0.00    -0.009 C 
ATOM     22  C   UNL     1      13.110   1.762  -0.493  0.00  0.00    +0.009 C 
ATOM     23  C   UNL     1      12.005   0.766  -0.112  0.00  0.00    +0.043 C 
ATOM     24  C   UNL     1      10.697   1.496  -0.094  0.00  0.00    -0.006 A 
ATOM     25  C   UNL     1      10.509   2.848  -0.084  0.00  0.00    -0.036 A 
ATOM     26  C   UNL     1       9.198   3.295  -0.074  0.00  0.00    +0.024 A 
ATOM     27  C   UNL     1       8.186   2.353  -0.064  0.00  0.00    +0.076 A 
ATOM     28  S   UNL     1       9.111   0.826  -0.081  0.00  0.00    -0.088 S 
ATOM     29  C   UNL     1      11.704   3.797  -0.089  0.00  0.00    +0.039 C 
ENDBRANCH  16  27
ENDBRANCH   1  18
TORSDOF 5
