REMARK  Name = ZINC36814079
REMARK  4 active torsions:
REMARK  status: ('A' for Active; 'I' for Inactive)
REMARK    1  A    between atoms: C_2  and  N_21
REMARK    2  A    between atoms: C_4  and  C_11
REMARK    3  A    between atoms: C_11  and  O_12
REMARK    4  A    between atoms: O_12  and  C_13
REMARK                            x       y       z     vdW  Elec       q    Type
REMARK                         _______ _______ _______ _____ _____    ______ ____
ROOT
ATOM      1  C   UNL     1      -0.017   1.378   0.010  0.00  0.00    +0.032 A 
ATOM      2  C   UNL     1       1.175   2.089   0.002  0.00  0.00    +0.025 A 
ATOM      3  C   UNL     1       2.387   1.411  -0.014  0.00  0.00    +0.033 A 
ATOM      4  C   UNL     1       2.404   0.030  -0.023  0.00  0.00    +0.033 A 
ATOM      5  C   UNL     1       1.212  -0.680  -0.017  0.00  0.00    +0.135 A 
ATOM      6  C   UNL     1       0.002  -0.004   0.002  0.00  0.00    +0.022 A 
ATOM      7  C   UNL     1      -1.299  -0.767   0.018  0.00  0.00    +0.202 C 
ATOM      8  O   UNL     1      -1.057  -2.124  -0.364  0.00  0.00    -0.339 OA
ATOM      9  C   UNL     1       0.039  -2.718   0.342  0.00  0.00    +0.394 C 
ATOM     10  O   UNL     1       1.243  -2.041  -0.031  0.00  0.00    -0.465 OA
ENDROOT
BRANCH   2  11
ATOM     11  N   UNL     1       1.156   3.489   0.010  0.00  0.00    -0.358 N 
ATOM     12  H   UNL     1       0.309   3.962   0.021  0.00  0.00    +0.142 HD
ATOM     13  H   UNL     1       1.989   3.985   0.004  0.00  0.00    +0.142 HD
ENDBRANCH   2  11
BRANCH   4  14
ATOM     14  C   UNL     1       3.719  -0.706  -0.041  0.00  0.00    +0.268 C 
BRANCH  14  15
ATOM     15  O   UNL     1       4.793   0.237  -0.045  0.00  0.00    -0.487 OA
BRANCH  15  16
ATOM     16  C   UNL     1       6.055  -0.266  -0.061  0.00  0.00    +0.124 A 
ATOM     17  C   UNL     1       6.256  -1.638  -0.079  0.00  0.00    +0.065 A 
ATOM     18  C   UNL     1       7.541  -2.148  -0.095  0.00  0.00    +0.046 A 
ATOM     19  C   UNL     1       8.627  -1.290  -0.093  0.00  0.00    +0.040 A 
ATOM     20  C   UNL     1       8.428   0.080  -0.076  0.00  0.00    +0.046 A 
ATOM     21  C   UNL     1       7.145   0.593  -0.066  0.00  0.00    +0.065 A 
ATOM     22 CL   UNL     1       9.792   1.154  -0.073  0.00  0.00    -0.083 Cl
ATOM     23 CL   UNL     1       7.793  -3.865  -0.116  0.00  0.00    -0.083 Cl
ENDBRANCH  15  16
ENDBRANCH  14  15
ENDBRANCH   4  14
TORSDOF 4
