REMARK  Name = ZINC65374303
REMARK  8 active torsions:
REMARK  status: ('A' for Active; 'I' for Inactive)
REMARK    1  A    between atoms: C_1  and  C_2
REMARK    2  A    between atoms: C_3  and  C_22
REMARK    3  A    between atoms: C_7  and  N_8
REMARK    4  A    between atoms: N_8  and  C_9
REMARK    5  A    between atoms: N_12  and  S_15
REMARK    6  A    between atoms: S_15  and  C_18
REMARK    7  A    between atoms: N_19  and  C_20
REMARK    8  A    between atoms: N_19  and  C_21
REMARK                            x       y       z     vdW  Elec       q    Type
REMARK                         _______ _______ _______ _____ _____    ______ ____
ROOT
ATOM      1  C   UNL     1      -0.018   1.503   0.010  0.00  0.00    +0.049 C 
ATOM      2  C   UNL     1       0.002  -0.004   0.002  0.00  0.00    +0.008 A 
ATOM      3  C   UNL     1       0.006  -0.704  -1.189  0.00  0.00    +0.022 A 
ATOM      4  N   UNL     1       0.025  -2.028  -1.162  0.00  0.00    -0.331 N 
ATOM      5  C   UNL     1       0.039  -2.686  -0.012  0.00  0.00    +0.197 A 
ATOM      6  N   UNL     1       0.035  -2.053   1.151  0.00  0.00    -0.201 NA
ATOM      7  C   UNL     1       0.023  -0.725   1.198  0.00  0.00    +0.127 A 
ATOM      8  N   UNL     1       0.058  -4.070  -0.027  0.00  0.00    -0.307 N 
ATOM      9  C   UNL     1       0.062  -4.789  -1.303  0.00  0.00    +0.132 C 
ATOM     10  C   UNL     1       0.074  -4.816   1.234  0.00  0.00    +0.132 C 
ATOM     11  C   UNL     1      -0.011   0.031  -2.504  0.00  0.00    +0.064 C 
ATOM     12  H   UNL     1       0.028  -2.523  -1.996  0.00  0.00    +0.168 HD
ENDROOT
BRANCH   7  13
ATOM     13  N   UNL     1       0.025  -0.065   2.416  0.00  0.00    -0.326 N 
ATOM     14  H   UNL     1       0.012   0.905   2.442  0.00  0.00    +0.148 HD
BRANCH  13  15
ATOM     15  C   UNL     1       0.048  -0.831   3.664  0.00  0.00    +0.074 C 
ATOM     16  C   UNL     1      -1.381  -1.226   4.045  0.00  0.00    +0.039 C 
ATOM     17  C   UNL     1      -1.351  -2.057   5.332  0.00  0.00    +0.111 C 
ATOM     18  N   UNL     1      -0.638  -1.297   6.369  0.00  0.00    -0.181 NA
ATOM     19  C   UNL     1       0.709  -0.791   6.073  0.00  0.00    +0.111 C 
ATOM     20  C   UNL     1       0.656   0.025   4.778  0.00  0.00    +0.039 C 
BRANCH  18  21
ATOM     21  S   UNL     1      -1.340  -1.017   7.842  0.00  0.00    +0.029 S 
ATOM     22  O   UNL     1      -0.726   0.174   8.315  0.00  0.00    -0.158 OA
ATOM     23  O   UNL     1      -2.738  -1.061   7.592  0.00  0.00    -0.158 OA
ATOM     24  C   UNL     1      -0.844  -2.426   8.871  0.00  0.00    +0.215 C 
ENDBRANCH  18  21
ENDBRANCH  13  15
ENDBRANCH   7  13
TORSDOF 3
