REMARK  Name = ZINC18042401
REMARK  9 active torsions:
REMARK  status: ('A' for Active; 'I' for Inactive)
REMARK    1  A    between atoms: C_1  and  C_2
REMARK    2  A    between atoms: C_2  and  C_3
REMARK    3  A    between atoms: C_2  and  C_4
REMARK    4  A    between atoms: C_4  and  C_6
REMARK    5  A    between atoms: C_4  and  N_24
REMARK    6  A    between atoms: N_11  and  C_14
REMARK    7  A    between atoms: C_19  and  N_20
REMARK    8  A    between atoms: N_24  and  S_25
REMARK    9  A    between atoms: S_25  and  C_28
REMARK                            x       y       z     vdW  Elec       q    Type
REMARK                         _______ _______ _______ _____ _____    ______ ____
ROOT
ATOM      1  C   UNL     1      -2.885   1.664   3.105  0.00  0.00    +0.235 C 
ATOM      2  O   UNL     1      -2.570   1.191   4.177  0.00  0.00    -0.274 OA
ATOM      3  N   UNL     1      -3.203   2.971   3.013  0.00  0.00    -0.297 N 
ATOM      4  C   UNL     1      -3.659   3.549   1.740  0.00  0.00    +0.126 C 
ATOM      5  C   UNL     1      -4.968   4.312   1.998  0.00  0.00    +0.124 C 
ATOM      6  N   UNL     1      -4.758   5.283   3.080  0.00  0.00    -0.325 N 
ATOM      7  C   UNL     1      -4.424   4.610   4.343  0.00  0.00    +0.124 C 
ATOM      8  C   UNL     1      -3.099   3.858   4.182  0.00  0.00    +0.126 C 
ENDROOT
BRANCH   6   9
ATOM      9  C   UNL     1      -5.872   6.111   3.234  0.00  0.00    +0.060 A 
ATOM     10  C   UNL     1      -7.115   5.560   3.520  0.00  0.00    +0.027 A 
ATOM     11  C   UNL     1      -8.215   6.381   3.671  0.00  0.00    +0.022 A 
ATOM     12  C   UNL     1      -8.080   7.752   3.539  0.00  0.00    +0.043 A 
ATOM     13  C   UNL     1      -6.843   8.304   3.254  0.00  0.00    +0.054 A 
ATOM     14  C   UNL     1      -5.739   7.488   3.106  0.00  0.00    +0.148 A 
ATOM     15 CL   UNL     1      -9.464   8.781   3.731  0.00  0.00    -0.083 Cl
BRANCH  14  16
ATOM     16  N   UNL     1      -4.415   8.079   2.807  0.00  0.00    +0.058 N 
ATOM     17  O   UNL     1      -4.279   9.289   2.789  0.00  0.00    -0.126 OA
ATOM     18  O   UNL     1      -3.463   7.356   2.579  0.00  0.00    -0.126 OA
ENDBRANCH  14  16
ENDBRANCH   6   9
BRANCH   1  19
ATOM     19  C   UNL     1      -2.919   0.792   1.877  0.00  0.00    +0.165 C 
BRANCH  19  21
ATOM     20  C   UNL     1      -4.385  -0.873   3.027  0.00  0.00    +0.009 C 
ATOM     21  C   UNL     1      -4.257   0.052   1.815  0.00  0.00    +0.010 C 
ATOM     22  C   UNL     1      -5.402   1.066   1.823  0.00  0.00    +0.009 C 
ENDBRANCH  19  21
BRANCH  19  23
ATOM     23  N   UNL     1      -1.825  -0.180   1.938  0.00  0.00    -0.178 NA
ATOM     24  H   UNL     1      -1.567  -0.567   2.789  0.00  0.00    +0.149 HD
BRANCH  23  25
ATOM     25  S   UNL     1      -1.030  -0.620   0.553  0.00  0.00    +0.062 S 
ATOM     26  O   UNL     1      -0.060  -1.586   0.932  0.00  0.00    -0.153 OA
ATOM     27  O   UNL     1      -0.685   0.584  -0.117  0.00  0.00    -0.153 OA
BRANCH  25  28
ATOM     28  C   UNL     1      -2.195  -1.452  -0.474  0.00  0.00    +0.140 A 
ATOM     29  C   UNL     1      -2.560  -0.905  -1.690  0.00  0.00    +0.031 A 
ATOM     30  C   UNL     1      -3.473  -1.558  -2.497  0.00  0.00    +0.002 A 
ATOM     31  C   UNL     1      -4.023  -2.759  -2.088  0.00  0.00    +0.003 A 
ATOM     32  C   UNL     1      -3.660  -3.308  -0.873  0.00  0.00    +0.040 A 
ATOM     33  C   UNL     1      -2.745  -2.655  -0.065  0.00  0.00    +0.150 A 
ATOM     34  F   UNL     1      -2.385  -3.194   1.121  0.00  0.00    -0.203 F 
ENDBRANCH  25  28
ENDBRANCH  23  25
ENDBRANCH  19  23
ENDBRANCH   1  19
TORSDOF 7
