REMARK  Name = ZINC32504332
REMARK  6 active torsions:
REMARK  status: ('A' for Active; 'I' for Inactive)
REMARK    1  A    between atoms: C_4  and  O_7
REMARK    2  A    between atoms: O_7  and  C_8
REMARK    3  A    between atoms: C_11  and  N_14
REMARK    4  A    between atoms: N_26  and  C_27
REMARK    5  A    between atoms: C_27  and  C_29
REMARK    6  A    between atoms: C_29  and  C_30
REMARK                            x       y       z     vdW  Elec       q    Type
REMARK                         _______ _______ _______ _____ _____    ______ ____
ROOT
ATOM      1  N   UNL     1       1.298   3.379  -0.044  0.00  0.00    -0.276 N 
ATOM      2  C   UNL     1       2.644   3.832   0.237  0.00  0.00    +0.116 C 
ATOM      3  C   UNL     1       3.066   5.255  -0.156  0.00  0.00    +0.190 C 
ATOM      4  S   UNL     1       4.904   5.052  -0.254  0.00  0.00    -0.028 S 
ATOM      5  O   UNL     1       5.343   5.421  -1.554  0.00  0.00    -0.174 OA
ATOM      6  O   UNL     1       5.500   5.658   0.885  0.00  0.00    -0.174 OA
ATOM      7  C   UNL     1       5.006   3.204  -0.082  0.00  0.00    +0.182 C 
ATOM      8  C   UNL     1       3.611   2.889  -0.570  0.00  0.00    +0.097 C 
ATOM      9  S   UNL     1       2.808   1.339  -0.090  0.00  0.00    -0.086 S 
ATOM     10  C   UNL     1       1.131   1.998  -0.068  0.00  0.00    +0.154 C 
ATOM     11  N   UNL     1      -0.009   1.317  -0.067  0.00  0.00    -0.159 NA
ENDROOT
BRANCH   1  15
ATOM     12  C   UNL     1      -1.852   6.022  -0.733  0.00  0.00    +0.129 A 
ATOM     13  C   UNL     1      -1.411   5.188  -1.751  0.00  0.00    +0.048 A 
ATOM     14  C   UNL     1      -0.368   4.312  -1.523  0.00  0.00    +0.027 A 
ATOM     15  C   UNL     1       0.240   4.267  -0.276  0.00  0.00    +0.036 A 
ATOM     16  C   UNL     1      -0.205   5.098   0.744  0.00  0.00    +0.027 A 
ATOM     17  C   UNL     1      -1.245   5.976   0.513  0.00  0.00    +0.048 A 
BRANCH  12  18
ATOM     18  O   UNL     1      -2.879   6.883  -0.958  0.00  0.00    -0.456 OA
BRANCH  18  22
ATOM     19  C   UNL     1      -6.704   5.344  -1.096  0.00  0.00    +0.000 A 
ATOM     20  C   UNL     1      -6.486   6.677  -1.390  0.00  0.00    +0.004 A 
ATOM     21  C   UNL     1      -5.206   7.195  -1.345  0.00  0.00    +0.046 A 
ATOM     22  C   UNL     1      -4.139   6.377  -1.003  0.00  0.00    +0.128 A 
ATOM     23  C   UNL     1      -4.361   5.038  -0.713  0.00  0.00    +0.046 A 
ATOM     24  C   UNL     1      -5.643   4.526  -0.755  0.00  0.00    +0.004 A 
ENDBRANCH  18  22
ENDBRANCH  12  18
ENDBRANCH   1  15
BRANCH  11  25
ATOM     25  C   UNL     1       0.011  -0.013  -0.092  0.00  0.00    +0.243 C 
ATOM     26  O   UNL     1       1.072  -0.605  -0.114  0.00  0.00    -0.273 OA
BRANCH  25  27
ATOM     27  C   UNL     1      -1.283  -0.785  -0.091  0.00  0.00    +0.134 C 
BRANCH  27  28
ATOM     28  C   UNL     1      -0.987  -2.263  -0.122  0.00  0.00    -0.020 A 
ATOM     29  C   UNL     1      -0.972  -2.940  -1.326  0.00  0.00    +0.005 A 
ATOM     30  C   UNL     1      -0.694  -4.294  -1.355  0.00  0.00    +0.000 A 
ATOM     31  C   UNL     1      -0.443  -4.974  -0.177  0.00  0.00    +0.001 A 
ATOM     32  C   UNL     1      -0.463  -4.298   1.028  0.00  0.00    +0.020 A 
ATOM     33  C   UNL     1      -0.735  -2.942   1.057  0.00  0.00    +0.045 A 
ATOM     34 CL   UNL     1      -0.760  -2.093   2.571  0.00  0.00    -0.083 Cl
ENDBRANCH  27  28
ENDBRANCH  25  27
ENDBRANCH  11  25
TORSDOF 6
