REMARK  Name = ZINC09946976
REMARK  10 active torsions:
REMARK  status: ('A' for Active; 'I' for Inactive)
REMARK    1  A    between atoms: C_1  and  C_2
REMARK    2  A    between atoms: C_2  and  C_4
REMARK    3  A    between atoms: C_2  and  S_15
REMARK    4  A    between atoms: N_6  and  C_7
REMARK    5  A    between atoms: N_11  and  C_12
REMARK    6  A    between atoms: C_12  and  C_13
REMARK    7  A    between atoms: C_12  and  C_14
REMARK    8  A    between atoms: S_15  and  C_16
REMARK    9  A    between atoms: N_29  and  C_30
REMARK   10  A    between atoms: C_30  and  C_31
REMARK                            x       y       z     vdW  Elec       q    Type
REMARK                         _______ _______ _______ _____ _____    ______ ____
ROOT
ATOM      1  C   UNL     1      -0.189  -0.057  -2.809  0.00  0.00    +0.198 A 
ATOM      2  N   UNL     1      -1.309   0.613  -2.685  0.00  0.00    -0.120 NA
ATOM      3  N   UNL     1      -1.825   0.838  -3.967  0.00  0.00    -0.109 NA
ATOM      4  C   UNL     1      -1.003   0.297  -4.838  0.00  0.00    +0.240 A 
ATOM      5  N   UNL     1       0.033  -0.265  -4.144  0.00  0.00    -0.256 N 
ATOM      6  C   UNL     1       1.068  -0.911  -4.816  0.00  0.00    +0.064 A 
ATOM      7  C   UNL     1       2.121  -1.488  -4.121  0.00  0.00    +0.027 A 
ATOM      8  C   UNL     1       3.134  -2.123  -4.811  0.00  0.00    +0.002 A 
ATOM      9  C   UNL     1       3.110  -2.189  -6.195  0.00  0.00    +0.001 A 
ATOM     10  C   UNL     1       2.071  -1.621  -6.903  0.00  0.00    +0.015 A 
ATOM     11  C   UNL     1       1.042  -0.978  -6.217  0.00  0.00    +0.064 A 
ATOM     12  C   UNL     1      -0.086  -0.359  -6.936  0.00  0.00    +0.263 A 
ATOM     13  O   UNL     1      -0.142  -0.398  -8.150  0.00  0.00    -0.267 OA
ATOM     14  N   UNL     1      -1.060   0.243  -6.223  0.00  0.00    -0.272 N 
ENDROOT
BRANCH   1  15
ATOM     15  S   UNL     1       0.851  -0.589  -1.490  0.00  0.00    -0.073 S 
BRANCH  15  17
ATOM     16  C   UNL     1      -0.019   1.526   0.010  0.00  0.00    +0.029 C 
ATOM     17  C   UNL     1       0.002  -0.004   0.002  0.00  0.00    +0.137 C 
BRANCH  17  18
ATOM     18  C   UNL     1       0.731  -0.503   1.223  0.00  0.00    +0.231 C 
ATOM     19  O   UNL     1       1.911  -0.775   1.156  0.00  0.00    -0.274 OA
ATOM     20  N   UNL     1       0.071  -0.647   2.389  0.00  0.00    -0.270 N 
ATOM     21  H   UNL     1      -0.872  -0.430   2.443  0.00  0.00    +0.156 HD
BRANCH  20  22
ATOM     22  C   UNL     1       0.746  -1.109   3.519  0.00  0.00    +0.123 A 
ATOM     23  C   UNL     1       2.063  -1.445   3.588  0.00  0.00    +0.065 A 
ATOM     24  C   UNL     1       2.332  -1.855   4.897  0.00  0.00    +0.136 A 
ATOM     25  N   UNL     1       1.226  -1.773   5.590  0.00  0.00    -0.178 NA
ATOM     26  N   UNL     1       0.211  -1.300   4.747  0.00  0.00    -0.248 N 
BRANCH  26  27
ATOM     27  C   UNL     1      -1.183  -1.058   5.127  0.00  0.00    +0.103 C 
ATOM     28  C   UNL     1      -1.809  -2.362   5.625  0.00  0.00    +0.032 C 
ATOM     29  C   UNL     1      -1.233  -0.011   6.241  0.00  0.00    +0.032 C 
ENDBRANCH  26  27
ENDBRANCH  20  22
ENDBRANCH  17  18
ENDBRANCH  15  17
ENDBRANCH   1  15
BRANCH  14  30
ATOM     30  C   UNL     1      -2.187   0.865  -6.923  0.00  0.00    +0.163 C 
BRANCH  30  31
ATOM     31  C   UNL     1      -1.851   2.299  -7.240  0.00  0.00    -0.028 A 
ATOM     32  C   UNL     1      -2.156   3.297  -6.334  0.00  0.00    +0.005 A 
ATOM     33  C   UNL     1      -1.848   4.613  -6.625  0.00  0.00    +0.000 A 
ATOM     34  C   UNL     1      -1.234   4.931  -7.823  0.00  0.00    +0.000 A 
ATOM     35  C   UNL     1      -0.929   3.932  -8.729  0.00  0.00    +0.000 A 
ATOM     36  C   UNL     1      -1.233   2.616  -8.436  0.00  0.00    +0.005 A 
ENDBRANCH  30  31
ENDBRANCH  14  30
TORSDOF 7
