REMARK  Name = ZINC13567355
REMARK  11 active torsions:
REMARK  status: ('A' for Active; 'I' for Inactive)
REMARK    1  A    between atoms: C_1  and  C_2
REMARK    2  A    between atoms: C_7  and  C_8
REMARK    3  A    between atoms: C_8  and  S_9
REMARK    4  A    between atoms: S_9  and  C_10
REMARK    5  A    between atoms: C_17  and  C_23
REMARK    6  A    between atoms: C_26  and  O_33
REMARK    7  A    between atoms: C_27  and  O_31
REMARK    8  A    between atoms: C_28  and  O_29
REMARK    9  A    between atoms: O_29  and  C_30
REMARK   10  A    between atoms: O_31  and  C_32
REMARK   11  A    between atoms: O_33  and  C_34
REMARK                            x       y       z     vdW  Elec       q    Type
REMARK                         _______ _______ _______ _____ _____    ______ ____
ROOT
ATOM      1  C   UNL     1      -1.513   1.192   4.568  0.00  0.00    +0.194 A 
ATOM      2  N   UNL     1      -2.604   1.550   5.231  0.00  0.00    -0.206 NA
ATOM      3  C   UNL     1      -2.508   2.207   6.382  0.00  0.00    +0.137 A 
ATOM      4  C   UNL     1      -1.250   2.516   6.883  0.00  0.00    +0.067 A 
ATOM      5  C   UNL     1      -0.129   2.127   6.163  0.00  0.00    +0.280 A 
ATOM      6  O   UNL     1       1.116   2.409   6.618  0.00  0.00    -0.265 OA
ATOM      7  N   UNL     1      -0.298   1.467   5.020  0.00  0.00    -0.183 NA
ATOM      8  C   UNL     1      -1.114   3.260   8.182  0.00  0.00    +0.070 C 
ATOM      9  C   UNL     1      -2.281   4.237   8.335  0.00  0.00    +0.109 C 
ATOM     10  C   UNL     1      -3.579   3.538   8.031  0.00  0.00    +0.219 C 
ATOM     11  O   UNL     1      -4.578   3.838   8.649  0.00  0.00    -0.275 OA
ATOM     12  N   UNL     1      -3.646   2.585   7.084  0.00  0.00    -0.270 N 
ATOM     13  H   UNL     1      -4.495   2.158   6.889  0.00  0.00    +0.156 HD
ENDROOT
BRANCH   8  14
ATOM     14  C   UNL     1      -1.128   2.279   9.326  0.00  0.00    +0.006 A 
ATOM     15  C   UNL     1      -2.223   1.457   9.518  0.00  0.00    +0.011 A 
ATOM     16  C   UNL     1      -2.241   0.556  10.566  0.00  0.00    +0.050 A 
ATOM     17  C   UNL     1      -1.159   0.472  11.429  0.00  0.00    +0.165 A 
ATOM     18  C   UNL     1      -0.056   1.296  11.240  0.00  0.00    +0.204 A 
ATOM     19  C   UNL     1      -0.040   2.197  10.182  0.00  0.00    +0.169 A 
BRANCH  19  20
ATOM     20  O   UNL     1       1.040   3.002   9.989  0.00  0.00    -0.491 OA
ATOM     21  C   UNL     1       1.030   4.269  10.649  0.00  0.00    +0.277 C 
ENDBRANCH  19  20
BRANCH  18  22
ATOM     22  O   UNL     1       1.008   1.216  12.085  0.00  0.00    -0.488 OA
ATOM     23  C   UNL     1       2.045   0.297  11.738  0.00  0.00    +0.277 C 
ENDBRANCH  18  22
BRANCH  17  24
ATOM     24  O   UNL     1      -1.177  -0.415  12.460  0.00  0.00    -0.491 OA
ATOM     25  C   UNL     1      -2.344  -1.229  12.595  0.00  0.00    +0.277 C 
ENDBRANCH  17  24
ENDBRANCH   8  14
BRANCH   1  26
ATOM     26  S   UNL     1      -1.684   0.321   3.046  0.00  0.00    -0.081 S 
BRANCH  26  27
ATOM     27  C   UNL     1       0.025   0.045   2.504  0.00  0.00    +0.112 C 
BRANCH  27  34
ATOM     28  C   UNL     1      -0.018   1.503   0.010  0.00  0.00    +0.044 C 
ATOM     29  C   UNL     1       0.002  -0.004   0.002  0.00  0.00    -0.046 A 
ATOM     30  C   UNL     1       0.006  -0.689  -1.199  0.00  0.00    +0.003 A 
ATOM     31  C   UNL     1       0.025  -2.071  -1.207  0.00  0.00    +0.000 A 
ATOM     32  C   UNL     1       0.040  -2.768  -0.013  0.00  0.00    +0.000 A 
ATOM     33  C   UNL     1       0.037  -2.084   1.188  0.00  0.00    +0.005 A 
ATOM     34  C   UNL     1       0.023  -0.702   1.195  0.00  0.00    -0.034 A 
ENDBRANCH  27  34
ENDBRANCH  26  27
ENDBRANCH   1  26
TORSDOF 7
