REMARK  Name = ZINC64491150
REMARK  9 active torsions:
REMARK  status: ('A' for Active; 'I' for Inactive)
REMARK    1  A    between atoms: C_1  and  C_2
REMARK    2  A    between atoms: C_8  and  C_11
REMARK    3  A    between atoms: C_11  and  C_12
REMARK    4  A    between atoms: C_12  and  N_13
REMARK    5  A    between atoms: C_14  and  C_16
REMARK    6  A    between atoms: C_16  and  C_17
REMARK    7  A    between atoms: C_17  and  C_18
REMARK    8  A    between atoms: C_18  and  N_19
REMARK    9  A    between atoms: N_29  and  C_34
REMARK                            x       y       z     vdW  Elec       q    Type
REMARK                         _______ _______ _______ _____ _____    ______ ____
ROOT
ATOM      1  C   UNL     1      -2.534  -2.338   7.783  0.00  0.00    +0.097 C 
ENDROOT
BRANCH   1   3
ATOM      2  N   UNL     1      -1.377  -2.600   5.613  0.00  0.00    -0.315 N 
ATOM      3  C   UNL     1      -2.537  -2.599   6.299  0.00  0.00    +0.213 C 
ATOM      4  O   UNL     1      -3.583  -2.808   5.722  0.00  0.00    -0.276 OA
ATOM      5  H   UNL     1      -0.540  -2.433   6.075  0.00  0.00    +0.149 HD
BRANCH   2   6
ATOM      6  C   UNL     1      -1.379  -2.854   4.170  0.00  0.00    +0.108 C 
BRANCH   6   7
ATOM      7  C   UNL     1       0.055  -2.799   3.641  0.00  0.00    +0.052 C 
BRANCH   7  15
ATOM      8  C   UNL     1      -0.018   1.503   0.010  0.00  0.00    +0.044 C 
ATOM      9  C   UNL     1       0.002  -0.004   0.002  0.00  0.00    -0.050 A 
ATOM     10  C   UNL     1       0.005  -0.680  -1.226  0.00  0.00    +0.005 A 
ATOM     11  C   UNL     1       0.023  -2.026  -1.317  0.00  0.00    +0.026 A 
ATOM     12  C   UNL     1       0.039  -2.826  -0.141  0.00  0.00    +0.043 A 
ATOM     13  N   UNL     1       0.057  -4.126   0.030  0.00  0.00    -0.380 N 
ATOM     14  C   UNL     1       0.067  -4.408   1.470  0.00  0.00    +0.144 C 
ATOM     15  C   UNL     1       0.052  -3.060   2.156  0.00  0.00    -0.040 C 
ATOM     16  C   UNL     1       0.036  -2.137   1.168  0.00  0.00    -0.001 A 
ATOM     17  C   UNL     1       0.022  -0.669   1.180  0.00  0.00    +0.013 A 
ATOM     18  H   UNL     1       0.062  -4.790  -0.677  0.00  0.00    +0.160 HD
ENDBRANCH   7  15
ENDBRANCH   6   7
ENDBRANCH   2   6
ENDBRANCH   1   3
BRANCH   1  19
ATOM     19  C   UNL     1      -3.969  -2.393   8.313  0.00  0.00    +0.028 C 
BRANCH  19  20
ATOM     20  C   UNL     1      -3.966  -2.128   9.820  0.00  0.00    +0.107 C 
BRANCH  20  21
ATOM     21  N   UNL     1      -5.340  -2.180  10.327  0.00  0.00    -0.314 N 
ATOM     22  C   UNL     1      -6.222  -1.094  10.409  0.00  0.00    +0.038 A 
ATOM     23  C   UNL     1      -6.095   0.198   9.913  0.00  0.00    +0.024 A 
ATOM     24  C   UNL     1      -7.107   1.119  10.094  0.00  0.00    +0.002 A 
ATOM     25  C   UNL     1      -8.261   0.768  10.771  0.00  0.00    +0.001 A 
ATOM     26  C   UNL     1      -8.405  -0.507  11.278  0.00  0.00    +0.010 A 
ATOM     27  C   UNL     1      -7.387  -1.448  11.110  0.00  0.00    +0.003 A 
ATOM     28  C   UNL     1      -7.240  -2.832  11.557  0.00  0.00    +0.006 C 
ATOM     29  C   UNL     1      -7.921  -3.583  12.429  0.00  0.00    +0.094 C 
ATOM     30  N   UNL     1      -7.349  -4.854  12.630  0.00  0.00    -0.269 N 
ATOM     31  N   UNL     1      -5.938  -4.895  12.729  0.00  0.00    -0.224 N 
ATOM     32  C   UNL     1      -5.214  -4.136  11.854  0.00  0.00    +0.256 C 
ATOM     33  O   UNL     1      -4.003  -4.082  11.897  0.00  0.00    -0.272 OA
ATOM     34  C   UNL     1      -6.016  -3.369  10.825  0.00  0.00    +0.194 C 
ATOM     35  C   UNL     1      -5.274  -5.725  13.738  0.00  0.00    +0.156 C 
ATOM     36  H   UNL     1      -7.891  -5.656  12.698  0.00  0.00    +0.170 HD
ENDBRANCH  20  21
ENDBRANCH  19  20
ENDBRANCH   1  19
TORSDOF 7
