REMARK  Name = ZINC04565789
REMARK  9 active torsions:
REMARK  status: ('A' for Active; 'I' for Inactive)
REMARK    1  A    between atoms: C_1  and  C_2
REMARK    2  A    between atoms: C_13  and  C_14
REMARK    3  A    between atoms: C_13  and  O_29
REMARK    4  A    between atoms: C_14  and  C_16
REMARK    5  A    between atoms: C_16  and  O_17
REMARK    6  A    between atoms: O_17  and  C_18
REMARK    7  A    between atoms: C_18  and  C_20
REMARK    8  A    between atoms: C_23  and  N_26
REMARK    9  A    between atoms: C_38  and  C_39
REMARK                            x       y       z     vdW  Elec       q    Type
REMARK                         _______ _______ _______ _____ _____    ______ ____
ROOT
ATOM      1  C   UNL     1      -5.581   3.755  -0.062  0.00  0.00    +0.015 C 
ATOM      2  C   UNL     1      -5.989   2.374  -0.570  0.00  0.00    +0.007 C 
ATOM      3  C   UNL     1      -6.323   2.431  -2.040  0.00  0.00    +0.010 C 
ATOM      4  C   UNL     1      -7.635   3.212  -2.224  0.00  0.00    +0.005 C 
ATOM      5  C   UNL     1      -8.770   2.535  -1.463  0.00  0.00    +0.006 C 
ATOM      6  C   UNL     1      -8.466   2.463   0.038  0.00  0.00    -0.003 C 
ATOM      7  C   UNL     1      -7.159   1.750   0.216  0.00  0.00    +0.002 C 
ATOM      8  C   UNL     1      -6.561   1.642   1.624  0.00  0.00    +0.008 C 
ATOM      9  C   UNL     1      -5.123   1.123   1.329  0.00  0.00    +0.043 C 
ATOM     10  C   UNL     1      -4.855   1.406  -0.173  0.00  0.00    +0.133 C 
ATOM     11  C   UNL     1      -8.533   3.835   0.690  0.00  0.00    +0.008 C 
ATOM     12  C   UNL     1      -9.971   4.375   0.562  0.00  0.00    +0.032 C 
ATOM     13  C   UNL     1     -10.260   4.457  -0.927  0.00  0.00    -0.056 C 
ATOM     14  C   UNL     1     -10.631   5.623  -1.439  0.00  0.00    +0.051 C 
ATOM     15  C   UNL     1     -10.864   5.765  -2.885  0.00  0.00    +0.179 C 
ATOM     16  O   UNL     1     -11.229   6.825  -3.357  0.00  0.00    -0.288 OA
ATOM     17  C   UNL     1     -10.635   4.594  -3.748  0.00  0.00    +0.047 C 
ATOM     18  C   UNL     1     -10.278   3.439  -3.213  0.00  0.00    -0.012 C 
ATOM     19  C   UNL     1     -10.105   3.211  -1.745  0.00  0.00    +0.011 C 
ATOM     20  C   UNL     1     -11.217   2.242  -1.324  0.00  0.00    +0.020 C 
ENDROOT
BRANCH  10  21
ATOM     21  C   UNL     1      -3.523   2.080  -0.354  0.00  0.00    +0.202 C 
ATOM     22  O   UNL     1      -2.988   2.621   0.583  0.00  0.00    -0.291 OA
BRANCH  21  23
ATOM     23  C   UNL     1      -2.855   2.079  -1.705  0.00  0.00    +0.309 C 
BRANCH  23  24
ATOM     24  O   UNL     1      -1.591   2.787  -1.621  0.00  0.00    -0.453 OA
BRANCH  24  25
ATOM     25  C   UNL     1      -0.864   2.877  -2.751  0.00  0.00    +0.340 C 
ATOM     26  O   UNL     1      -1.275   2.378  -3.780  0.00  0.00    -0.245 OA
BRANCH  25  27
ATOM     27  C   UNL     1       0.431   3.589  -2.742  0.00  0.00    +0.059 A 
ATOM     28  C   UNL     1       0.904   4.169  -1.563  0.00  0.00    +0.017 A 
ATOM     29  C   UNL     1       2.116   4.827  -1.560  0.00  0.00    +0.033 A 
ATOM     30  C   UNL     1       2.857   4.924  -2.725  0.00  0.00    +0.126 A 
ATOM     31  C   UNL     1       2.392   4.356  -3.898  0.00  0.00    +0.033 A 
ATOM     32  C   UNL     1       1.184   3.690  -3.913  0.00  0.00    +0.017 A 
BRANCH  30  33
ATOM     33  N   UNL     1       4.154   5.637  -2.716  0.00  0.00    +0.056 N 
ATOM     34  O   UNL     1       4.809   5.724  -3.739  0.00  0.00    -0.126 OA
ATOM     35  O   UNL     1       4.566   6.138  -1.685  0.00  0.00    -0.126 OA
ENDBRANCH  30  33
ENDBRANCH  25  27
ENDBRANCH  24  25
ENDBRANCH  23  24
ENDBRANCH  21  23
ENDBRANCH  10  21
BRANCH  10  36
ATOM     36  O   UNL     1      -4.935   0.209  -0.939  0.00  0.00    -0.380 OA
ATOM     37  H   UNL     1      -4.260  -0.446  -0.716  0.00  0.00    +0.211 HD
ENDBRANCH  10  36
TORSDOF 7
