REMARK  Name = ZINC40375140
REMARK  9 active torsions:
REMARK  status: ('A' for Active; 'I' for Inactive)
REMARK    1  A    between atoms: C_1  and  C_2
REMARK    2  A    between atoms: C_8  and  C_12
REMARK    3  A    between atoms: C_12  and  C_13
REMARK    4  A    between atoms: C_13  and  N_14
REMARK    5  A    between atoms: N_14  and  C_15
REMARK    6  A    between atoms: N_20  and  C_23
REMARK    7  A    between atoms: C_26  and  N_31
REMARK    8  A    between atoms: C_28  and  O_29
REMARK    9  A    between atoms: O_29  and  C_30
REMARK                            x       y       z     vdW  Elec       q    Type
REMARK                         _______ _______ _______ _____ _____    ______ ____
ROOT
ATOM      1  C   UNL     1      -2.753  -2.266   6.126  0.00  0.00    +0.026 C 
ATOM      2  C   UNL     1      -2.774  -1.948   7.634  0.00  0.00    +0.090 C 
ATOM      3  C   UNL     1      -3.554  -3.100   8.230  0.00  0.00    +0.225 C 
ATOM      4  O   UNL     1      -3.807  -3.243   9.406  0.00  0.00    -0.275 OA
ATOM      5  N   UNL     1      -3.920  -3.936   7.250  0.00  0.00    -0.208 N 
ATOM      6  C   UNL     1      -3.524  -3.564   6.023  0.00  0.00    +0.213 C 
ATOM      7  O   UNL     1      -3.746  -4.170   4.996  0.00  0.00    -0.277 OA
ENDROOT
BRANCH   5   8
ATOM      8  C   UNL     1      -4.659  -5.106   7.487  0.00  0.00    +0.085 A 
ATOM      9  C   UNL     1      -6.045  -5.071   7.454  0.00  0.00    +0.030 A 
ATOM     10  C   UNL     1      -6.770  -6.224   7.688  0.00  0.00    +0.035 A 
ATOM     11  C   UNL     1      -6.118  -7.413   7.955  0.00  0.00    +0.130 A 
ATOM     12  C   UNL     1      -4.737  -7.456   7.989  0.00  0.00    +0.080 A 
ATOM     13  C   UNL     1      -4.002  -6.305   7.750  0.00  0.00    +0.144 A 
BRANCH  11  14
ATOM     14  N   UNL     1      -6.901  -8.645   8.204  0.00  0.00    +0.057 N 
ATOM     15  O   UNL     1      -8.109  -8.609   8.175  0.00  0.00    -0.126 OA
ATOM     16  O   UNL     1      -6.332  -9.686   8.438  0.00  0.00    -0.126 OA
ENDBRANCH  11  14
BRANCH  13  17
ATOM     17  O   UNL     1      -2.643  -6.346   7.779  0.00  0.00    -0.493 OA
ATOM     18  C   UNL     1      -2.038  -7.611   8.055  0.00  0.00    +0.277 C 
ENDBRANCH  13  17
ENDBRANCH   5   8
BRANCH   1  19
ATOM     19  N   UNL     1      -1.373  -2.446   5.654  0.00  0.00    +0.387 N 
ATOM     20  H   UNL     1      -0.959  -3.238   6.122  0.00  0.00    -0.085 HD
ATOM     21  H   UNL     1      -0.837  -1.616   5.859  0.00  0.00    -0.085 HD
BRANCH  19  22
ATOM     22  C   UNL     1      -1.378  -2.680   4.204  0.00  0.00    -0.077 C 
BRANCH  22  23
ATOM     23  C   UNL     1       0.059  -2.867   3.713  0.00  0.00    +0.018 C 
BRANCH  23  31
ATOM     24  C   UNL     1      -0.018   1.503   0.010  0.00  0.00    +0.044 C 
ATOM     25  C   UNL     1       0.002  -0.004   0.002  0.00  0.00    -0.050 A 
ATOM     26  C   UNL     1       0.006  -0.686  -1.207  0.00  0.00    +0.005 A 
ATOM     27  C   UNL     1       0.024  -2.063  -1.237  0.00  0.00    +0.026 A 
ATOM     28  C   UNL     1       0.039  -2.780  -0.045  0.00  0.00    +0.047 A 
ATOM     29  C   UNL     1       0.036  -2.084   1.178  0.00  0.00    +0.003 A 
ATOM     30  C   UNL     1       0.023  -0.688   1.185  0.00  0.00    +0.013 A 
ATOM     31  C   UNL     1       0.055  -3.107   2.226  0.00  0.00    -0.024 A 
ATOM     32  C   UNL     1       0.067  -4.300   1.610  0.00  0.00    +0.087 A 
ATOM     33  N   UNL     1       0.058  -4.124   0.253  0.00  0.00    -0.360 N 
ATOM     34  H   UNL     1       0.065  -4.840  -0.402  0.00  0.00    +0.165 HD
ENDBRANCH  23  31
ENDBRANCH  22  23
ENDBRANCH  19  22
ENDBRANCH   1  19
TORSDOF 7
