REMARK  Name = ZINC41008865
REMARK  7 active torsions:
REMARK  status: ('A' for Active; 'I' for Inactive)
REMARK    1  A    between atoms: C_1  and  C_2
REMARK    2  A    between atoms: C_5  and  O_9
REMARK    3  A    between atoms: C_7  and  C_8
REMARK    4  A    between atoms: O_9  and  C_10
REMARK    5  A    between atoms: C_10  and  C_12
REMARK    6  A    between atoms: C_10  and  C_13
REMARK    7  A    between atoms: C_19  and  C_24
REMARK                            x       y       z     vdW  Elec       q    Type
REMARK                         _______ _______ _______ _____ _____    ______ ____
ROOT
ATOM      1  C   UNL     1       0.576  -6.140  -1.219  0.00  0.00    +0.259 C 
ATOM      2  O   UNL     1       0.987  -6.562  -0.159  0.00  0.00    -0.271 OA
ATOM      3  N   UNL     1       0.681  -6.894  -2.331  0.00  0.00    -0.260 N 
ATOM      4  C   UNL     1       1.260  -8.155  -2.263  0.00  0.00    +0.188 A 
ATOM      5  N   UNL     1       1.453  -9.022  -3.221  0.00  0.00    -0.140 NA
ATOM      6  N   UNL     1       2.055 -10.248  -2.971  0.00  0.00    -0.184 N 
ATOM      7  C   UNL     1       2.434 -11.400  -3.648  0.00  0.00    +0.192 A 
ATOM      8  N   UNL     1       2.979 -12.217  -2.773  0.00  0.00    -0.126 NA
ATOM      9  N   UNL     1       2.974 -11.674  -1.605  0.00  0.00    -0.120 NA
ATOM     10  C   UNL     1       2.430 -10.495  -1.674  0.00  0.00    +0.220 A 
ATOM     11  S   UNL     1       1.938  -9.004  -0.845  0.00  0.00    -0.011 S 
ATOM     12  H   UNL     1       0.352  -6.556  -3.179  0.00  0.00    +0.157 HD
ENDROOT
BRANCH   7  13
ATOM     13  C   UNL     1       2.257 -11.660  -5.086  0.00  0.00    +0.058 A 
ATOM     14  C   UNL     1       2.834 -12.629  -5.867  0.00  0.00    +0.019 A 
ATOM     15  C   UNL     1       2.512 -12.678  -7.205  0.00  0.00    +0.008 A 
ATOM     16  C   UNL     1       1.637 -11.771  -7.709  0.00  0.00    +0.046 A 
ATOM     17  S   UNL     1       1.230 -10.801  -6.267  0.00  0.00    -0.093 S 
ENDBRANCH   7  13
BRANCH   1  18
ATOM     18  C   UNL     1      -0.052  -4.772  -1.292  0.00  0.00    +0.256 C 
ATOM     19  C   UNL     1      -1.529  -4.909  -1.669  0.00  0.00    +0.062 C 
BRANCH  18  20
ATOM     20  O   UNL     1       0.057  -4.129  -0.021  0.00  0.00    -0.480 OA
BRANCH  20  25
ATOM     21  C   UNL     1      -0.025   1.503   0.011  0.00  0.00    +0.044 C 
ATOM     22  C   UNL     1      -0.003  -0.004   0.003  0.00  0.00    -0.047 A 
ATOM     23  C   UNL     1      -0.216  -0.691  -1.178  0.00  0.00    +0.007 A 
ATOM     24  C   UNL     1      -0.197  -2.072  -1.189  0.00  0.00    +0.046 A 
ATOM     25  C   UNL     1       0.038  -2.770  -0.013  0.00  0.00    +0.122 A 
ATOM     26  C   UNL     1       0.252  -2.079   1.170  0.00  0.00    +0.049 A 
ATOM     27  C   UNL     1       0.237  -0.698   1.175  0.00  0.00    -0.044 A 
ATOM     28  C   UNL     1       0.476   0.054   2.459  0.00  0.00    +0.044 C 
ENDBRANCH  20  25
ENDBRANCH  18  20
ENDBRANCH   1  18
TORSDOF 4
