REMARK  Name = ZINC10385034
REMARK  10 active torsions:
REMARK  status: ('A' for Active; 'I' for Inactive)
REMARK    1  A    between atoms: C_1  and  C_2
REMARK    2  A    between atoms: C_5  and  O_9
REMARK    3  A    between atoms: C_7  and  C_8
REMARK    4  A    between atoms: O_9  and  C_10
REMARK    5  A    between atoms: C_10  and  C_11
REMARK    6  A    between atoms: C_11  and  C_13
REMARK    7  A    between atoms: C_11  and  O_32
REMARK    8  A    between atoms: C_13  and  N_14
REMARK    9  A    between atoms: N_24  and  C_31
REMARK   10  A    between atoms: N_27  and  C_30
REMARK                            x       y       z     vdW  Elec       q    Type
REMARK                         _______ _______ _______ _____ _____    ______ ____
ROOT
ATOM      1  N   UNL     1      -3.868   6.920   0.454  0.00  0.00    -0.304 N 
ATOM      2  C   UNL     1      -4.453   6.876   1.713  0.00  0.00    +0.153 A 
ATOM      3  C   UNL     1      -5.748   6.402   1.526  0.00  0.00    +0.170 A 
ATOM      4  N   UNL     1      -5.911   6.180   0.221  0.00  0.00    -0.196 NA
ATOM      5  C   UNL     1      -4.807   6.487  -0.429  0.00  0.00    +0.201 A 
ATOM      6  N   UNL     1      -4.630   6.384  -1.790  0.00  0.00    -0.305 N 
ATOM      7  C   UNL     1      -4.176   5.037  -2.161  0.00  0.00    +0.089 C 
ATOM      8  C   UNL     1      -3.915   4.986  -3.668  0.00  0.00    -0.063 C 
ATOM      9  C   UNL     1      -5.601   6.687  -4.016  0.00  0.00    -0.063 C 
ATOM     10  C   UNL     1      -5.862   6.738  -2.509  0.00  0.00    +0.089 C 
ATOM     11  N   UNL     1      -6.571   6.256   2.631  0.00  0.00    -0.280 N 
ATOM     12  C   UNL     1      -6.114   6.570   3.858  0.00  0.00    +0.333 A 
ATOM     13  O   UNL     1      -6.850   6.436   4.817  0.00  0.00    -0.246 OA
ATOM     14  N   UNL     1      -4.865   7.028   4.050  0.00  0.00    -0.262 N 
ATOM     15  C   UNL     1      -4.018   7.191   3.012  0.00  0.00    +0.282 A 
ATOM     16  O   UNL     1      -2.888   7.607   3.199  0.00  0.00    -0.265 OA
ATOM     17  C   UNL     1      -4.416   7.356   5.405  0.00  0.00    +0.157 C 
ATOM     18  C   UNL     1      -7.939   5.760   2.464  0.00  0.00    +0.155 C 
ATOM     19  N   UNL     1      -5.151   5.334  -4.394  0.00  0.00    +0.381 N 
ATOM     20  H   UNL     1      -5.885   4.655  -4.159  0.00  0.00    -0.086 HD
ATOM     21  H   UNL     1      -4.970   5.306  -5.404  0.00  0.00    -0.086 HD
ENDROOT
BRANCH   1  22
ATOM     22  C   UNL     1      -2.505   7.353   0.139  0.00  0.00    +0.160 C 
BRANCH  22  23
ATOM     23  C   UNL     1      -2.521   8.827  -0.273  0.00  0.00    +0.172 C 
BRANCH  23  24
ATOM     24  O   UNL     1      -2.962   9.624   0.829  0.00  0.00    -0.387 OA
ATOM     25  H   UNL     1      -2.361   9.614   1.587  0.00  0.00    +0.210 HD
ENDBRANCH  23  24
BRANCH  23  26
ATOM     26  C   UNL     1      -1.111   9.258  -0.682  0.00  0.00    +0.262 C 
BRANCH  26  27
ATOM     27  O   UNL     1      -1.147  10.598  -1.176  0.00  0.00    -0.489 OA
BRANCH  27  32
ATOM     28  C   UNL     1       3.741  12.837  -2.854  0.00  0.00    +0.044 C 
ATOM     29  C   UNL     1       2.433  12.237  -2.407  0.00  0.00    -0.047 A 
ATOM     30  C   UNL     1       2.398  10.944  -1.917  0.00  0.00    +0.007 A 
ATOM     31  C   UNL     1       1.200  10.392  -1.507  0.00  0.00    +0.046 A 
ATOM     32  C   UNL     1       0.032  11.137  -1.585  0.00  0.00    +0.121 A 
ATOM     33  C   UNL     1       0.070  12.433  -2.076  0.00  0.00    +0.049 A 
ATOM     34  C   UNL     1       1.270  12.981  -2.486  0.00  0.00    -0.044 A 
ATOM     35  C   UNL     1       1.312  14.389  -3.019  0.00  0.00    +0.044 C 
ENDBRANCH  27  32
ENDBRANCH  26  27
ENDBRANCH  23  26
ENDBRANCH  22  23
ENDBRANCH   1  22
TORSDOF 6
