REMARK  Name = ZINC41058454
REMARK  3 active torsions:
REMARK  status: ('A' for Active; 'I' for Inactive)
REMARK    1  A    between atoms: C_1  and  C_2
REMARK    2  A    between atoms: C_5  and  C_7
REMARK    3  A    between atoms: C_11  and  C_13
REMARK                            x       y       z     vdW  Elec       q    Type
REMARK                         _______ _______ _______ _____ _____    ______ ____
ROOT
ATOM      1  C   UNL     1       1.384   0.302   2.069  0.00  0.00    +0.129 A 
ATOM      2  N   UNL     1       1.819   1.547   1.810  0.00  0.00    -0.262 N 
ATOM      3  H   UNL     1       1.777   2.013   0.960  0.00  0.00    +0.190 HD
ATOM      4  N   UNL     1       2.345   2.041   3.015  0.00  0.00    -0.157 NA
ATOM      5  C   UNL     1       2.202   1.095   3.905  0.00  0.00    +0.154 A 
ATOM      6  N   UNL     1       1.615   0.045   3.331  0.00  0.00    -0.216 NA
ENDROOT
BRANCH   5   7
ATOM      7  C   UNL     1       2.628   1.179   5.348  0.00  0.00    +0.059 C 
ATOM      8  C   UNL     1       1.891   2.333   6.031  0.00  0.00    +0.011 C 
ATOM      9  C   UNL     1       2.323   2.418   7.496  0.00  0.00    +0.001 C 
ATOM     10  C   UNL     1       3.832   2.662   7.570  0.00  0.00    +0.000 C 
ATOM     11  C   UNL     1       4.568   1.508   6.887  0.00  0.00    +0.001 C 
ATOM     12  C   UNL     1       4.136   1.422   5.422  0.00  0.00    +0.011 C 
ENDBRANCH   5   7
BRANCH   1  16
ATOM     13  C   UNL     1      -1.509   0.573   1.670  0.00  0.00    +0.008 C 
ATOM     14  C   UNL     1      -0.773  -0.499   0.865  0.00  0.00    -0.003 C 
ATOM     15  C   UNL     1       0.199  -0.027  -0.219  0.00  0.00    +0.015 C 
ATOM     16  C   UNL     1       0.736  -0.633   1.080  0.00  0.00    +0.060 C 
ENDBRANCH   1  16
TORSDOF 2
