REMARK  Name = ZINC30674489
REMARK  8 active torsions:
REMARK  status: ('A' for Active; 'I' for Inactive)
REMARK    1  A    between atoms: C_1  and  C_2
REMARK    2  A    between atoms: C_2  and  C_4
REMARK    3  A    between atoms: C_2  and  N_21
REMARK    4  A    between atoms: C_15  and  C_17
REMARK    5  A    between atoms: C_26  and  O_33
REMARK    6  A    between atoms: C_27  and  O_31
REMARK    7  A    between atoms: O_31  and  C_32
REMARK    8  A    between atoms: O_33  and  C_34
REMARK                            x       y       z     vdW  Elec       q    Type
REMARK                         _______ _______ _______ _____ _____    ______ ____
ROOT
ATOM      1  C   UNL     1       4.079  -4.884  -1.205  0.00  0.00    +0.206 C 
ATOM      2  O   UNL     1       3.415  -4.254  -2.001  0.00  0.00    -0.277 OA
ATOM      3  N   UNL     1       5.142  -5.596  -1.629  0.00  0.00    -0.262 N 
ATOM      4  C   UNL     1       5.967  -6.363  -0.683  0.00  0.00    +0.209 C 
ATOM      5  C   UNL     1       7.418  -6.185  -1.035  0.00  0.00    +0.235 C 
ATOM      6  O   UNL     1       8.258  -6.256  -0.163  0.00  0.00    -0.274 OA
ATOM      7  N   UNL     1       7.796  -5.945  -2.305  0.00  0.00    -0.283 N 
ATOM      8  C   UNL     1       6.843  -5.809  -3.321  0.00  0.00    +0.056 A 
ATOM      9  C   UNL     1       5.500  -5.625  -2.986  0.00  0.00    +0.058 A 
ATOM     10  C   UNL     1       4.550  -5.477  -3.979  0.00  0.00    +0.026 A 
ATOM     11  C   UNL     1       4.934  -5.514  -5.308  0.00  0.00    +0.014 A 
ATOM     12  C   UNL     1       6.262  -5.699  -5.643  0.00  0.00    +0.057 A 
ATOM     13  C   UNL     1       7.218  -5.847  -4.654  0.00  0.00    +0.037 A 
ATOM     14  H   UNL     1       8.864  -5.854  -2.553  0.00  0.00    +0.155 HD
ENDROOT
BRANCH  12  15
ATOM     15  C   UNL     1       6.671  -5.741  -7.092  0.00  0.00    +0.417 C 
ATOM     16  F   UNL     1       5.541  -5.571  -7.900  0.00  0.00    -0.166 F 
ATOM     17  F   UNL     1       7.586  -4.715  -7.349  0.00  0.00    -0.166 F 
ATOM     18  F   UNL     1       7.264  -6.976  -7.374  0.00  0.00    -0.166 F 
ENDBRANCH  12  15
BRANCH   1  20
ATOM     19  C   UNL     1       2.862  -6.096   0.582  0.00  0.00    -0.004 C 
ATOM     20  C   UNL     1       3.716  -4.870   0.257  0.00  0.00    +0.017 C 
BRANCH  20  21
ATOM     21  N   UNL     1       2.957  -3.650   0.562  0.00  0.00    +0.390 N 
ATOM     22  C   UNL     1       1.653  -3.656  -0.120  0.00  0.00    -0.073 C 
ATOM     23  C   UNL     1       0.772  -2.575   0.506  0.00  0.00    +0.017 C 
ATOM     24  C   UNL     1       1.521  -1.267   0.557  0.00  0.00    -0.044 A 
ATOM     25  C   UNL     1       0.797  -0.100   0.757  0.00  0.00    +0.053 A 
ATOM     26  C   UNL     1       1.443   1.121   0.820  0.00  0.00    +0.162 A 
ATOM     27  C   UNL     1       2.827   1.177   0.682  0.00  0.00    +0.162 A 
ATOM     28  C   UNL     1       3.543   0.012   0.476  0.00  0.00    +0.051 A 
ATOM     29  C   UNL     1       2.891  -1.212   0.417  0.00  0.00    -0.057 A 
ATOM     30  C   UNL     1       3.717  -2.452   0.191  0.00  0.00    -0.042 C 
ATOM     31  H   UNL     1       2.785  -3.627   1.648  0.00  0.00    -0.080 HD
BRANCH  27  32
ATOM     32  O   UNL     1       3.472   2.373   0.744  0.00  0.00    -0.491 OA
ATOM     33  C   UNL     1       4.893   2.352   0.594  0.00  0.00    +0.277 C 
ENDBRANCH  27  32
BRANCH  26  34
ATOM     34  O   UNL     1       0.730   2.262   1.016  0.00  0.00    -0.491 OA
ATOM     35  C   UNL     1      -0.687   2.127   1.149  0.00  0.00    +0.277 C 
ENDBRANCH  26  34
ENDBRANCH  20  21
ENDBRANCH   1  20
TORSDOF 5
