REMARK  Name = ZINC09707994
REMARK  12 active torsions:
REMARK  status: ('A' for Active; 'I' for Inactive)
REMARK    1  A    between atoms: C_1  and  C_2
REMARK    2  A    between atoms: C_5  and  O_30
REMARK    3  A    between atoms: N_11  and  C_12
REMARK    4  A    between atoms: C_12  and  C_13
REMARK    5  A    between atoms: C_13  and  C_14
REMARK    6  A    between atoms: C_14  and  N_58
REMARK    7  A    between atoms: C_15  and  N_58
REMARK    8  A    between atoms: C_16  and  N_58
REMARK    9  A    between atoms: C_17  and  C_19
REMARK   10  A    between atoms: C_19  and  S_20
REMARK   11  A    between atoms: S_20  and  C_23
REMARK   12  A    between atoms: O_30  and  C_31
REMARK                            x       y       z     vdW  Elec       q    Type
REMARK                         _______ _______ _______ _____ _____    ______ ____
ROOT
ATOM      1  C   UNL     1      -1.330   2.118   0.020  0.00  0.00    +0.045 C 
ATOM      2  C   UNL     1      -0.017   1.379   0.010  0.00  0.00    -0.034 A 
ATOM      3  C   UNL     1       0.002  -0.004   0.002  0.00  0.00    +0.008 A 
ATOM      4  C   UNL     1       1.220  -0.668  -0.013  0.00  0.00    +0.048 A 
ATOM      5  C   UNL     1       2.411   0.019  -0.021  0.00  0.00    +0.147 A 
ATOM      6  C   UNL     1       2.428   1.437  -0.014  0.00  0.00    +0.122 A 
ATOM      7  C   UNL     1       1.167   2.075   0.002  0.00  0.00    +0.047 A 
ATOM      8  S   UNL     1       1.614   3.795   0.006  0.00  0.00    -0.051 S 
ATOM      9  C   UNL     1       3.386   3.566  -0.012  0.00  0.00    +0.168 A 
ATOM     10  N   UNL     1       3.500   2.259  -0.021  0.00  0.00    -0.221 NA
ATOM     11  N   UNL     1       4.387   4.526  -0.017  0.00  0.00    -0.249 N 
ATOM     12  C   UNL     1       4.065   5.835  -0.007  0.00  0.00    +0.243 C 
ATOM     13  O   UNL     1       2.900   6.173   0.006  0.00  0.00    -0.273 OA
ENDROOT
BRANCH   5  14
ATOM     14  O   UNL     1       3.584  -0.667  -0.037  0.00  0.00    -0.493 OA
ATOM     15  C   UNL     1       3.501  -2.094  -0.043  0.00  0.00    +0.277 C 
ENDBRANCH   5  14
BRANCH  11  16
ATOM     16  C   UNL     1       5.793   4.118  -0.032  0.00  0.00    +0.114 C 
BRANCH  16  17
ATOM     17  C   UNL     1       6.269   3.983  -1.480  0.00  0.00    +0.001 C 
BRANCH  17  18
ATOM     18  C   UNL     1       7.739   3.557  -1.497  0.00  0.00    -0.078 C 
BRANCH  18  21
ATOM     19  C   UNL     1       8.203   4.732  -3.562  0.00  0.00    -0.097 C 
ATOM     20  C   UNL     1       9.520   2.795  -2.949  0.00  0.00    -0.097 C 
ATOM     21  N   UNL     1       8.177   3.410  -2.901  0.00  0.00    +0.376 N 
ATOM     22  H   UNL     1       7.514   2.802  -3.396  0.00  0.00    -0.083 HD
ENDBRANCH  18  21
ENDBRANCH  17  18
ENDBRANCH  16  17
ENDBRANCH  11  16
BRANCH  12  23
ATOM     23  C   UNL     1       5.152   6.878  -0.012  0.00  0.00    +0.267 C 
BRANCH  23  24
ATOM     24  S   UNL     1       4.405   8.531   0.003  0.00  0.00    +0.005 S 
ATOM     25  O   UNL     1       3.731   8.775  -1.224  0.00  0.00    -0.169 OA
ATOM     26  O   UNL     1       3.755   8.762   1.246  0.00  0.00    -0.169 OA
BRANCH  24  27
ATOM     27  C   UNL     1       5.769   9.645  -0.004  0.00  0.00    +0.089 A 
ATOM     28  C   UNL     1       6.313  10.081   1.190  0.00  0.00    +0.028 A 
ATOM     29  C   UNL     1       7.387  10.950   1.185  0.00  0.00    +0.022 A 
ATOM     30  C   UNL     1       7.911  11.394  -0.016  0.00  0.00    +0.041 A 
ATOM     31  C   UNL     1       7.364  10.963  -1.211  0.00  0.00    +0.022 A 
ATOM     32  C   UNL     1       6.293  10.088  -1.204  0.00  0.00    +0.028 A 
ATOM     33 CL   UNL     1       9.256  12.492  -0.024  0.00  0.00    -0.084 Cl
ENDBRANCH  24  27
ENDBRANCH  23  24
ENDBRANCH  12  23
TORSDOF 8
