REMARK  Name = ZINC39154612
REMARK  10 active torsions:
REMARK  status: ('A' for Active; 'I' for Inactive)
REMARK    1  A    between atoms: C_1  and  C_2
REMARK    2  A    between atoms: C_2  and  O_3
REMARK    3  A    between atoms: O_3  and  C_4
REMARK    4  A    between atoms: C_4  and  C_6
REMARK    5  A    between atoms: C_7  and  C_34
REMARK    6  A    between atoms: C_8  and  C_32
REMARK    7  A    between atoms: C_10  and  N_13
REMARK    8  A    between atoms: C_14  and  C_16
REMARK    9  A    between atoms: C_16  and  S_17
REMARK   10  A    between atoms: S_17  and  C_18
REMARK                            x       y       z     vdW  Elec       q    Type
REMARK                         _______ _______ _______ _____ _____    ______ ____
ROOT
ATOM      1  N   UNL     1      -6.772  -2.873  -0.195  0.00  0.00    -0.301 N 
ATOM      2  C   UNL     1      -7.921  -2.729   0.495  0.00  0.00    +0.224 C 
ATOM      3  O   UNL     1      -7.899  -2.682   1.706  0.00  0.00    -0.275 OA
ATOM      4  H   UNL     1      -6.789  -2.910  -1.164  0.00  0.00    +0.150 HD
ENDROOT
BRANCH   1   8
ATOM      5  C   UNL     1      -2.852  -2.419   0.010  0.00  0.00    +0.094 C 
ATOM      6  C   UNL     1      -3.174  -3.712  -0.075  0.00  0.00    -0.033 C 
ATOM      7  C   UNL     1      -4.614  -4.113  -0.053  0.00  0.00    +0.149 C 
ATOM      8  C   UNL     1      -5.497  -2.974   0.519  0.00  0.00    +0.157 C 
ATOM      9  S   UNL     1      -4.399  -1.542   0.156  0.00  0.00    -0.094 S 
ATOM     10  C   UNL     1      -2.095  -4.757  -0.192  0.00  0.00    +0.042 C 
BRANCH   5  11
ATOM     11  C   UNL     1      -1.498  -1.836  -0.008  0.00  0.00    +0.346 C 
ATOM     12  O   UNL     1      -0.524  -2.562  -0.012  0.00  0.00    -0.244 OA
BRANCH  11  13
ATOM     13  O   UNL     1      -1.340  -0.498  -0.021  0.00  0.00    -0.461 OA
BRANCH  13  15
ATOM     14  C   UNL     1      -0.021   1.527  -0.050  0.00  0.00    +0.048 C 
ATOM     15  C   UNL     1       0.001  -0.002  -0.037  0.00  0.00    +0.229 C 
ENDBRANCH  13  15
ENDBRANCH  11  13
ENDBRANCH   5  11
BRANCH   7  16
ATOM     16  C   UNL     1      -4.769  -5.312   0.786  0.00  0.00    +0.073 C 
ATOM     17  N   UNL     1      -4.889  -6.238   1.434  0.00  0.00    -0.196 NA
ENDBRANCH   7  16
ENDBRANCH   1   8
BRANCH   2  18
ATOM     18  C   UNL     1      -9.232  -2.625  -0.240  0.00  0.00    +0.173 C 
BRANCH  18  19
ATOM     19  S   UNL     1     -10.583  -2.440   0.957  0.00  0.00    -0.075 S 
BRANCH  19  20
ATOM     20  C   UNL     1     -12.028  -2.333  -0.045  0.00  0.00    +0.208 C 
ATOM     21  N   UNL     1     -11.885  -2.405  -1.347  0.00  0.00    -0.227 NA
ATOM     22  C   UNL     1     -13.079  -2.237  -2.172  0.00  0.00    +0.252 C 
ATOM     23  C   UNL     1     -14.253  -2.715  -1.330  0.00  0.00    +0.117 C 
ATOM     24  C   UNL     1     -14.956  -3.563  -2.131  0.00  0.00    +0.025 A 
ATOM     25  C   UNL     1     -16.192  -4.233  -1.954  0.00  0.00    +0.012 A 
ATOM     26  C   UNL     1     -16.617  -5.038  -2.965  0.00  0.00    +0.001 A 
ATOM     27  C   UNL     1     -15.913  -5.243  -4.155  0.00  0.00    +0.002 A 
ATOM     28  C   UNL     1     -14.723  -4.648  -4.435  0.00  0.00    +0.026 A 
ATOM     29  C   UNL     1     -14.187  -3.750  -3.399  0.00  0.00    +0.046 A 
ATOM     30  N   UNL     1     -13.101  -3.038  -3.388  0.00  0.00    -0.358 N 
ATOM     31  N   UNL     1     -14.351  -2.399  -0.035  0.00  0.00    -0.147 NA
ATOM     32  N   UNL     1     -13.226  -2.187   0.574  0.00  0.00    -0.122 NA
ATOM     33  H   UNL     1     -12.418  -3.039  -4.077  0.00  0.00    +0.162 HD
ENDBRANCH  19  20
ENDBRANCH  18  19
ENDBRANCH   2  18
TORSDOF 8
