REMARK  Name = ZINC57519653
REMARK  5 active torsions:
REMARK  status: ('A' for Active; 'I' for Inactive)
REMARK    1  A    between atoms: C_1  and  C_2
REMARK    2  A    between atoms: C_2  and  C_3
REMARK    3  A    between atoms: C_2  and  C_4
REMARK    4  A    between atoms: C_2  and  C_5
REMARK    5  A    between atoms: C_8  and  C_11
REMARK                            x       y       z     vdW  Elec       q    Type
REMARK                         _______ _______ _______ _____ _____    ______ ____
ROOT
ATOM      1  C   UNL     1       0.707  -0.490  -1.238  0.00  0.00    -0.042 A 
ATOM      2  C   UNL     1       0.036  -1.284  -2.148  0.00  0.00    +0.004 A 
ATOM      3  C   UNL     1       0.683  -1.730  -3.286  0.00  0.00    +0.004 A 
ATOM      4  C   UNL     1       2.001  -1.381  -3.513  0.00  0.00    -0.036 A 
ATOM      5  C   UNL     1       2.672  -0.586  -2.603  0.00  0.00    +0.004 A 
ATOM      6  C   UNL     1       2.024  -0.137  -1.467  0.00  0.00    +0.004 A 
ENDROOT
BRANCH   4   7
ATOM      7  C   UNL     1       2.707  -1.868  -4.752  0.00  0.00    +0.105 C 
ATOM      8  C   UNL     1       3.165  -0.666  -5.582  0.00  0.00    +0.019 C 
ATOM      9  C   UNL     1       4.109  -1.167  -6.681  0.00  0.00    +0.020 C 
ATOM     10  C   UNL     1       5.394  -1.677  -6.027  0.00  0.00    +0.104 C 
ATOM     11  N   UNL     1       5.084  -2.613  -4.954  0.00  0.00    -0.315 N 
ATOM     12  C   UNL     1       3.896  -2.696  -4.357  0.00  0.00    +0.220 C 
ATOM     13  O   UNL     1       3.767  -3.486  -3.445  0.00  0.00    -0.275 OA
ATOM     14  H   UNL     1       5.786  -3.211  -4.655  0.00  0.00    +0.149 HD
ENDBRANCH   4   7
BRANCH   1  16
ATOM     15  C   UNL     1      -0.019   1.526   0.010  0.00  0.00    +0.015 C 
ATOM     16  C   UNL     1       0.002  -0.004   0.002  0.00  0.00    -0.013 C 
ATOM     17  C   UNL     1       0.742  -0.511   1.242  0.00  0.00    +0.015 C 
ATOM     18  C   UNL     1      -1.433  -0.534   0.013  0.00  0.00    +0.015 C 
ENDBRANCH   1  16
TORSDOF 2
