REMARK  Name = ZINC36046321
REMARK  12 active torsions:
REMARK  status: ('A' for Active; 'I' for Inactive)
REMARK    1  A    between atoms: C_1  and  C_2
REMARK    2  A    between atoms: C_2  and  C_3
REMARK    3  A    between atoms: C_3  and  C_5
REMARK    4  A    between atoms: C_3  and  C_6
REMARK    5  A    between atoms: C_6  and  O_8
REMARK    6  A    between atoms: O_8  and  C_9
REMARK    7  A    between atoms: C_11  and  N_34
REMARK    8  A    between atoms: C_17  and  C_20
REMARK    9  A    between atoms: C_18  and  O_19
REMARK   10  A    between atoms: C_21  and  C_22
REMARK   11  A    between atoms: C_31  and  C_32
REMARK   12  A    between atoms: C_31  and  C_33
REMARK                            x       y       z     vdW  Elec       q    Type
REMARK                         _______ _______ _______ _____ _____    ______ ____
ROOT
ATOM      1  C   UNL     1      -2.339  -4.322  -0.442  0.00  0.00    +0.210 C 
ATOM      2  C   UNL     1      -3.733  -4.650  -0.983  0.00  0.00    +0.015 C 
ATOM      3  C   UNL     1      -4.771  -4.335   0.065  0.00  0.00    +0.026 A 
ATOM      4  C   UNL     1      -4.428  -4.181   1.398  0.00  0.00    +0.127 A 
ATOM      5  C   UNL     1      -5.413  -3.895   2.345  0.00  0.00    +0.047 A 
ATOM      6  C   UNL     1      -6.727  -3.760   1.967  0.00  0.00    +0.015 A 
ATOM      7  C   UNL     1      -7.084  -3.909   0.622  0.00  0.00    +0.017 A 
ATOM      8  C   UNL     1      -6.093  -4.199  -0.330  0.00  0.00    +0.129 A 
ATOM      9  O   UNL     1      -3.143  -4.295   1.822  0.00  0.00    -0.482 OA
ATOM     10  C   UNL     1      -2.207  -4.939   0.956  0.00  0.00    +0.140 C 
ATOM     11  C   UNL     1      -2.513  -6.437   0.889  0.00  0.00    +0.059 C 
ATOM     12  C   UNL     1      -0.785  -4.726   1.481  0.00  0.00    +0.059 C 
ENDROOT
BRANCH   2  13
ATOM     13  N   UNL     1      -3.993  -3.846  -2.184  0.00  0.00    +0.387 N 
ATOM     14  C   UNL     1      -2.844  -3.942  -3.093  0.00  0.00    -0.078 C 
ATOM     15  C   UNL     1      -3.143  -3.173  -4.382  0.00  0.00    -0.019 C 
ATOM     16  C   UNL     1      -3.407  -1.703  -4.043  0.00  0.00    -0.004 C 
ATOM     17  C   UNL     1      -4.559  -1.620  -3.037  0.00  0.00    -0.019 C 
ATOM     18  C   UNL     1      -4.207  -2.447  -1.798  0.00  0.00    -0.078 C 
ATOM     19  H   UNL     1      -4.817  -4.196  -2.649  0.00  0.00    -0.081 HD
ENDBRANCH   2  13
BRANCH   8  20
ATOM     20  O   UNL     1      -6.429  -4.347  -1.636  0.00  0.00    -0.506 OA
ATOM     21  H   UNL     1      -6.727  -5.237  -1.867  0.00  0.00    +0.292 HD
ENDBRANCH   8  20
BRANCH   7  22
ATOM     22  C   UNL     1      -8.485  -3.765   0.208  0.00  0.00    +0.016 C 
ATOM     23  C   UNL     1      -9.435  -3.486   1.128  0.00  0.00    +0.068 C 
BRANCH  23  24
ATOM     24  C   UNL     1     -10.789  -3.346   0.729  0.00  0.00    +0.239 C 
ATOM     25  O   UNL     1     -11.110  -3.573  -0.423  0.00  0.00    -0.271 OA
ATOM     26  N   UNL     1     -11.720  -2.962   1.625  0.00  0.00    -0.298 N 
ATOM     27  C   UNL     1     -11.368  -2.784   3.040  0.00  0.00    +0.108 C 
ATOM     28  C   UNL     1     -11.798  -1.382   3.483  0.00  0.00    +0.019 C 
ATOM     29  C   UNL     1     -13.285  -1.189   3.176  0.00  0.00    +0.003 C 
ATOM     30  C   UNL     1     -13.516  -1.311   1.668  0.00  0.00    +0.019 C 
ATOM     31  C   UNL     1     -13.104  -2.706   1.204  0.00  0.00    +0.108 C 
ENDBRANCH  23  24
ENDBRANCH   7  22
BRANCH   1  32
ATOM     32  O   UNL     1      -2.175  -2.905  -0.361  0.00  0.00    -0.458 OA
BRANCH  32  33
ATOM     33  C   UNL     1      -0.929  -2.426  -0.506  0.00  0.00    +0.310 C 
ATOM     34  O   UNL     1      -0.008  -3.186  -0.695  0.00  0.00    -0.251 OA
BRANCH  33  35
ATOM     35  C   UNL     1      -0.679  -0.942  -0.432  0.00  0.00    +0.094 C 
ATOM     36  C   UNL     1      -1.120  -0.418   0.936  0.00  0.00    +0.019 C 
BRANCH  35  38
ATOM     37  C   UNL     1       1.051   0.844  -0.676  0.00  0.00    +0.004 C 
ATOM     38  C   UNL     1       0.814  -0.666  -0.627  0.00  0.00    +0.011 C 
ENDBRANCH  35  38
ENDBRANCH  33  35
ENDBRANCH  32  33
ENDBRANCH   1  32
TORSDOF 8
