REMARK  Name = ZINC37979998
REMARK  3 active torsions:
REMARK  status: ('A' for Active; 'I' for Inactive)
REMARK    1  A    between atoms: C_6  and  O_7
REMARK    2  A    between atoms: O_7  and  C_8
REMARK    3  A    between atoms: C_13  and  O_15
REMARK                            x       y       z     vdW  Elec       q    Type
REMARK                         _______ _______ _______ _____ _____    ______ ____
ROOT
ATOM      1  C   UNL     1       1.199  -0.660  -0.248  0.00  0.00    +0.047 A 
ATOM      2  C   UNL     1       2.385   0.050  -0.262  0.00  0.00    +0.025 A 
ATOM      3  C   UNL     1       2.379   1.414  -0.034  0.00  0.00    +0.059 A 
ATOM      4  C   UNL     1       1.184   2.071   0.209  0.00  0.00    +0.063 A 
ATOM      5  C   UNL     1      -0.004   1.365   0.225  0.00  0.00    +0.067 A 
ATOM      6  C   UNL     1       0.002  -0.004  -0.005  0.00  0.00    +0.123 A 
ATOM      7 CL   UNL     1       1.179   3.784   0.496  0.00  0.00    -0.082 Cl
ATOM      8 CL   UNL     1       3.870   2.303  -0.052  0.00  0.00    -0.082 Cl
ENDROOT
BRANCH   6   9
ATOM      9  O   UNL     1      -1.165  -0.700   0.009  0.00  0.00    -0.486 OA
BRANCH   9  10
ATOM     10  C   UNL     1      -1.074  -2.121  -0.110  0.00  0.00    +0.202 C 
ATOM     11  C   UNL     1      -1.045  -2.526  -1.599  0.00  0.00    +0.047 C 
ATOM     12  C   UNL     1      -1.869  -3.837  -1.652  0.00  0.00    +0.006 C 
ATOM     13  C   UNL     1      -3.007  -3.567  -0.637  0.00  0.00    +0.035 C 
ATOM     14  C   UNL     1      -2.321  -2.783   0.502  0.00  0.00    +0.155 C 
BRANCH  14  15
ATOM     15  O   UNL     1      -3.205  -1.783   1.012  0.00  0.00    -0.388 OA
ATOM     16  H   UNL     1      -4.011  -2.138   1.411  0.00  0.00    +0.210 HD
ENDBRANCH  14  15
ENDBRANCH   9  10
ENDBRANCH   6   9
TORSDOF 3
