REMARK  Name = ZINC63648757
REMARK  6 active torsions:
REMARK  status: ('A' for Active; 'I' for Inactive)
REMARK    1  A    between atoms: C_1  and  C_2
REMARK    2  A    between atoms: N_5  and  C_8
REMARK    3  A    between atoms: C_14  and  C_19
REMARK    4  A    between atoms: N_21  and  C_22
REMARK    5  A    between atoms: C_22  and  C_23
REMARK    6  A    between atoms: C_23  and  C_24
REMARK                            x       y       z     vdW  Elec       q    Type
REMARK                         _______ _______ _______ _____ _____    ______ ____
ROOT
ATOM      1  C   UNL     1      -0.673  -3.896   1.448  0.00  0.00    +0.224 C 
ATOM      2  N   UNL     1       0.151  -4.379   2.587  0.00  0.00    -0.253 N 
ATOM      3  N   UNL     1       0.723  -5.608   2.406  0.00  0.00    -0.204 N 
ATOM      4  C   UNL     1       1.121  -6.439   3.418  0.00  0.00    +0.284 A 
ATOM      5  O   UNL     1       0.916  -6.129   4.579  0.00  0.00    -0.265 OA
ATOM      6  C   UNL     1       1.770  -7.657   3.115  0.00  0.00    +0.121 A 
ATOM      7  C   UNL     1       1.970  -8.008   1.778  0.00  0.00    +0.132 A 
ATOM      8  N   UNL     1       1.532  -7.186   0.835  0.00  0.00    -0.229 NA
ATOM      9  C   UNL     1       0.926  -6.059   1.129  0.00  0.00    +0.192 A 
ATOM     10  S   UNL     1       0.183  -4.808   0.092  0.00  0.00    -0.046 S 
ATOM     11  H   UNL     1       0.843  -3.693   2.849  0.00  0.00    +0.169 HD
ENDROOT
BRANCH   1  16
ATOM     12  C   UNL     1       0.124   1.760   1.669  0.00  0.00    +0.007 C 
ATOM     13  C   UNL     1       0.083   0.273   2.026  0.00  0.00    -0.012 C 
ATOM     14  C   UNL     1       0.935  -0.517   1.029  0.00  0.00    +0.019 C 
ATOM     15  C   UNL     1       0.841  -2.009   1.355  0.00  0.00    +0.087 C 
ATOM     16  N   UNL     1      -0.560  -2.441   1.278  0.00  0.00    -0.275 NA
ATOM     17  C   UNL     1      -1.390  -1.730   2.259  0.00  0.00    +0.087 C 
ATOM     18  C   UNL     1      -1.362  -0.230   1.960  0.00  0.00    +0.019 C 
ENDBRANCH   1  16
BRANCH   6  19
ATOM     19  C   UNL     1       2.228  -8.544   4.191  0.00  0.00    +0.251 C 
ATOM     20  O   UNL     1       2.895  -9.527   3.928  0.00  0.00    -0.270 OA
ATOM     21  N   UNL     1       1.911  -8.268   5.472  0.00  0.00    -0.311 N 
ATOM     22  H   UNL     1       1.316  -7.530   5.676  0.00  0.00    +0.149 HD
BRANCH  21  23
ATOM     23  C   UNL     1       2.465  -9.083   6.556  0.00  0.00    +0.109 C 
BRANCH  23  24
ATOM     24  C   UNL     1       1.951  -8.563   7.899  0.00  0.00    +0.052 C 
BRANCH  24  25
ATOM     25  C   UNL     1       2.521  -9.402   9.014  0.00  0.00    -0.040 C 
ATOM     26  C   UNL     1       3.625  -9.136   9.749  0.00  0.00    -0.001 A 
ATOM     27  C   UNL     1       4.589  -8.029   9.731  0.00  0.00    +0.010 A 
ATOM     28  C   UNL     1       5.617  -8.040  10.609  0.00  0.00    +0.001 A 
ATOM     29  C   UNL     1       5.785  -9.079  11.535  0.00  0.00    +0.002 A 
ATOM     30  C   UNL     1       4.941 -10.130  11.612  0.00  0.00    +0.026 A 
ATOM     31  C   UNL     1       3.824 -10.221  10.736  0.00  0.00    +0.043 A 
ATOM     32  N   UNL     1       2.880 -11.123  10.616  0.00  0.00    -0.380 N 
ATOM     33  C   UNL     1       1.971 -10.708   9.542  0.00  0.00    +0.144 C 
ATOM     34  H   UNL     1       2.794 -11.928  11.151  0.00  0.00    +0.160 HD
ENDBRANCH  24  25
ENDBRANCH  23  24
ENDBRANCH  21  23
ENDBRANCH   6  19
TORSDOF 5
