REMARK  Name = ZINC20060523
REMARK  8 active torsions:
REMARK  status: ('A' for Active; 'I' for Inactive)
REMARK    1  A    between atoms: C_1  and  S_2
REMARK    2  A    between atoms: S_2  and  N_5
REMARK    3  A    between atoms: N_5  and  C_6
REMARK    4  A    between atoms: N_5  and  C_21
REMARK    5  A    between atoms: C_6  and  C_7
REMARK    6  A    between atoms: N_9  and  N_10
REMARK    7  A    between atoms: C_11  and  C_12
REMARK    8  A    between atoms: C_17  and  C_18
REMARK                            x       y       z     vdW  Elec       q    Type
REMARK                         _______ _______ _______ _____ _____    ______ ____
ROOT
ATOM      1  C   UNL     1       3.339   7.464  -0.228  0.00  0.00    +0.251 C 
ATOM      2  O   UNL     1       2.252   7.997  -0.301  0.00  0.00    -0.272 OA
ATOM      3  N   UNL     1       3.427   6.123  -0.131  0.00  0.00    -0.206 N 
ATOM      4  H   UNL     1       4.413   5.639  -0.065  0.00  0.00    +0.177 HD
ENDROOT
BRANCH   3   5
ATOM      5  N   UNL     1       2.262   5.344  -0.114  0.00  0.00    -0.188 NA
ATOM      6  C   UNL     1       2.347   4.052  -0.020  0.00  0.00    +0.139 C 
BRANCH   6   7
ATOM      7  C   UNL     1       1.123   3.234  -0.002  0.00  0.00    +0.009 A 
ATOM      8  C   UNL     1       1.208   1.841  -0.020  0.00  0.00    +0.010 A 
ATOM      9  C   UNL     1       0.059   1.079  -0.003  0.00  0.00    +0.001 A 
ATOM     10  C   UNL     1      -1.187   1.687   0.027  0.00  0.00    +0.001 A 
ATOM     11  C   UNL     1      -1.294   3.062   0.051  0.00  0.00    +0.016 A 
ATOM     12  C   UNL     1      -0.144   3.852   0.034  0.00  0.00    +0.072 A 
BRANCH  12  13
ATOM     13  C   UNL     1      -0.253   5.322   0.053  0.00  0.00    +0.387 C 
ATOM     14  O   UNL     1       0.321   5.962   0.912  0.00  0.00    -0.241 OA
ATOM     15  O   UNL     1      -0.988   5.955  -0.882  0.00  0.00    -0.241 OA
ENDBRANCH  12  13
ENDBRANCH   6   7
ENDBRANCH   3   5
BRANCH   1  16
ATOM     16  C   UNL     1       4.592   8.302  -0.247  0.00  0.00    +0.228 C 
BRANCH  16  17
ATOM     17  N   UNL     1       4.232   9.717  -0.358  0.00  0.00    -0.199 N 
BRANCH  17  18
ATOM     18  C   UNL     1       3.996  10.281  -1.614  0.00  0.00    +0.052 A 
ATOM     19  C   UNL     1       4.162  11.648  -1.806  0.00  0.00    +0.025 A 
ATOM     20  C   UNL     1       3.933  12.202  -3.049  0.00  0.00    +0.003 A 
ATOM     21  C   UNL     1       3.530  11.401  -4.102  0.00  0.00    +0.015 A 
ATOM     22  C   UNL     1       3.359  10.041  -3.914  0.00  0.00    +0.020 A 
ATOM     23  C   UNL     1       3.591   9.479  -2.672  0.00  0.00    +0.040 A 
ATOM     24 BR   UNL     1       2.806   8.950  -5.356  0.00  0.00    -0.050 Br
ENDBRANCH  17  18
BRANCH  17  26
ATOM     25  C   UNL     1       5.763  11.333   1.261  0.00  0.00    +0.218 C 
ATOM     26  S   UNL     1       4.103  10.649   1.005  0.00  0.00    +0.043 S 
ATOM     27  O   UNL     1       3.196  11.684   0.653  0.00  0.00    -0.155 OA
ATOM     28  O   UNL     1       3.787   9.731   2.043  0.00  0.00    -0.155 OA
ENDBRANCH  17  26
ENDBRANCH  16  17
ENDBRANCH   1  16
TORSDOF 7
