REMARK  Name = ZINC22325213
REMARK  9 active torsions:
REMARK  status: ('A' for Active; 'I' for Inactive)
REMARK    1  A    between atoms: C_1  and  C_2
REMARK    2  A    between atoms: C_5  and  C_35
REMARK    3  A    between atoms: N_8  and  C_10
REMARK    4  A    between atoms: C_10  and  C_11
REMARK    5  A    between atoms: C_17  and  C_19
REMARK    6  A    between atoms: C_19  and  C_20
REMARK    7  A    between atoms: C_20  and  C_21
REMARK    8  A    between atoms: C_21  and  N_22
REMARK    9  A    between atoms: C_26  and  N_32
REMARK                            x       y       z     vdW  Elec       q    Type
REMARK                         _______ _______ _______ _____ _____    ______ ____
ROOT
ATOM      1  C   UNL     1      -5.147  10.429  -6.044  0.00  0.00    +0.034 A 
ATOM      2  C   UNL     1      -4.800   9.461  -6.928  0.00  0.00    +0.070 A 
ATOM      3  S   UNL     1      -4.304   8.156  -5.812  0.00  0.00    -0.060 S 
ATOM      4  C   UNL     1      -4.610   9.000  -4.326  0.00  0.00    +0.164 A 
ATOM      5  N   UNL     1      -5.042  10.170  -4.755  0.00  0.00    -0.231 NA
ATOM      6  N   UNL     1      -4.437   8.558  -3.019  0.00  0.00    -0.265 N 
ATOM      7  C   UNL     1      -3.979   7.313  -2.784  0.00  0.00    +0.219 C 
ATOM      8  O   UNL     1      -3.717   6.577  -3.712  0.00  0.00    -0.275 OA
ATOM      9  H   UNL     1      -4.675   9.225  -2.178  0.00  0.00    +0.157 HD
ENDROOT
BRANCH   1  10
ATOM     10  C   UNL     1      -5.642  11.769  -6.523  0.00  0.00    -0.022 C 
BRANCH  10  16
ATOM     11  C   UNL     1      -9.537  10.236  -6.072  0.00  0.00    +0.005 C 
ATOM     12  C   UNL     1      -9.140  10.737  -7.462  0.00  0.00    -0.031 C 
ATOM     13  C   UNL     1      -9.739  12.127  -7.695  0.00  0.00    +0.003 C 
ATOM     14  C   UNL     1      -9.161  13.102  -6.666  0.00  0.00    -0.031 C 
ATOM     15  C   UNL     1      -7.635  13.118  -6.785  0.00  0.00    -0.075 C 
ATOM     16  N   UNL     1      -7.111  11.766  -6.553  0.00  0.00    +0.384 N 
ATOM     17  C   UNL     1      -7.615  10.821  -7.559  0.00  0.00    -0.075 C 
ATOM     18  C   UNL     1      -9.709  14.506  -6.929  0.00  0.00    +0.005 C 
ATOM     19  H   UNL     1      -7.470  11.431  -5.569  0.00  0.00    -0.081 HD
ENDBRANCH  10  16
ENDBRANCH   1  10
BRANCH   7  20
ATOM     20  C   UNL     1      -3.792   6.834  -1.367  0.00  0.00    +0.098 C 
BRANCH  20  21
ATOM     21  C   UNL     1      -3.266   5.397  -1.380  0.00  0.00    +0.031 C 
BRANCH  21  22
ATOM     22  C   UNL     1      -3.076   4.911   0.058  0.00  0.00    +0.129 C 
BRANCH  22  23
ATOM     23  N   UNL     1      -2.573   3.536   0.046  0.00  0.00    -0.274 N 
ATOM     24  C   UNL     1      -1.233   3.148   0.031  0.00  0.00    +0.090 A 
ATOM     25  C   UNL     1      -0.039   3.851   0.023  0.00  0.00    +0.032 A 
ATOM     26  C   UNL     1       1.161   3.167   0.008  0.00  0.00    +0.035 A 
ATOM     27  C   UNL     1       1.174   1.784   0.000  0.00  0.00    +0.130 A 
ATOM     28  C   UNL     1      -0.013   1.076   0.008  0.00  0.00    +0.081 A 
ATOM     29  C   UNL     1      -1.222   1.753   0.017  0.00  0.00    +0.159 A 
ATOM     30  O   UNL     1      -2.513   1.340   0.034  0.00  0.00    -0.407 OA
ATOM     31  C   UNL     1      -3.319   2.413   0.048  0.00  0.00    +0.421 A 
ATOM     32  O   UNL     1      -4.534   2.378   0.060  0.00  0.00    -0.223 OA
BRANCH  27  33
ATOM     33  N   UNL     1       2.464   1.058  -0.016  0.00  0.00    +0.057 N 
ATOM     34  O   UNL     1       2.478  -0.160  -0.023  0.00  0.00    -0.126 OA
ATOM     35  O   UNL     1       3.511   1.679  -0.023  0.00  0.00    -0.126 OA
ENDBRANCH  27  33
ENDBRANCH  22  23
ENDBRANCH  21  22
ENDBRANCH  20  21
ENDBRANCH   7  20
TORSDOF 7
