REMARK  Name = ZINC58387887
REMARK  8 active torsions:
REMARK  status: ('A' for Active; 'I' for Inactive)
REMARK    1  A    between atoms: C_1  and  C_2
REMARK    2  A    between atoms: C_5  and  C_8
REMARK    3  A    between atoms: C_8  and  N_9
REMARK    4  A    between atoms: N_12  and  C_13
REMARK    5  A    between atoms: C_13  and  C_14
REMARK    6  A    between atoms: N_16  and  C_17
REMARK    7  A    between atoms: C_17  and  C_18
REMARK    8  A    between atoms: C_23  and  N_24
REMARK                            x       y       z     vdW  Elec       q    Type
REMARK                         _______ _______ _______ _____ _____    ______ ____
ROOT
ATOM      1  C   UNL     1       3.273  -7.937  -0.059  0.00  0.00    +0.201 C 
ENDROOT
BRANCH   1   5
ATOM      2  N   UNL     1       1.447  -4.746  -0.032  0.00  0.00    -0.295 N 
ATOM      3  C   UNL     1       1.710  -6.067  -0.040  0.00  0.00    +0.300 C 
ATOM      4  O   UNL     1       0.796  -6.870  -0.040  0.00  0.00    -0.253 OA
ATOM      5  N   UNL     1       2.986  -6.500  -0.050  0.00  0.00    -0.291 N 
ATOM      6  H   UNL     1       2.176  -4.106  -0.032  0.00  0.00    +0.151 HD
ATOM      7  H   UNL     1       3.716  -5.861  -0.050  0.00  0.00    +0.151 HD
BRANCH   2   8
ATOM      8  C   UNL     1       0.059  -4.275  -0.021  0.00  0.00    +0.141 C 
BRANCH   8  13
ATOM      9  C   UNL     1      -0.018   1.503   0.010  0.00  0.00    +0.044 C 
ATOM     10  C   UNL     1       0.002  -0.004   0.002  0.00  0.00    -0.050 A 
ATOM     11  C   UNL     1       0.006  -0.689  -1.199  0.00  0.00    +0.003 A 
ATOM     12  C   UNL     1       0.025  -2.071  -1.206  0.00  0.00    +0.005 A 
ATOM     13  C   UNL     1       0.040  -2.768  -0.013  0.00  0.00    -0.030 A 
ATOM     14  C   UNL     1       0.037  -2.084   1.188  0.00  0.00    +0.005 A 
ATOM     15  C   UNL     1       0.023  -0.702   1.195  0.00  0.00    +0.003 A 
ENDBRANCH   8  13
ENDBRANCH   2   8
ENDBRANCH   1   5
BRANCH   1  16
ATOM     16  C   UNL     1       4.764  -8.152  -0.069  0.00  0.00    +0.231 C 
ATOM     17  O   UNL     1       5.514  -7.199  -0.068  0.00  0.00    -0.274 OA
ATOM     18  N   UNL     1       5.265  -9.403  -0.078  0.00  0.00    -0.310 N 
ATOM     19  H   UNL     1       4.665 -10.166  -0.079  0.00  0.00    +0.149 HD
BRANCH  18  20
ATOM     20  C   UNL     1       6.715  -9.612  -0.087  0.00  0.00    +0.141 C 
BRANCH  20  21
ATOM     21  C   UNL     1       7.009 -11.090  -0.097  0.00  0.00    -0.000 A 
ATOM     22  C   UNL     1       7.349 -11.735   1.078  0.00  0.00    +0.007 A 
ATOM     23  C   UNL     1       7.619 -13.091   1.069  0.00  0.00    +0.000 A 
ATOM     24  C   UNL     1       7.549 -13.802  -0.115  0.00  0.00    +0.002 A 
ATOM     25  C   UNL     1       7.208 -13.157  -1.289  0.00  0.00    +0.033 A 
ATOM     26  C   UNL     1       6.934 -11.802  -1.279  0.00  0.00    +0.131 A 
BRANCH  26  27
ATOM     27  N   UNL     1       6.564 -11.113  -2.536  0.00  0.00    +0.057 N 
ATOM     28  O   UNL     1       6.498 -11.736  -3.570  0.00  0.00    -0.126 OA
ATOM     29  O   UNL     1       6.328  -9.927  -2.528  0.00  0.00    -0.126 OA
ENDBRANCH  26  27
ENDBRANCH  20  21
ENDBRANCH  18  20
ENDBRANCH   1  16
TORSDOF 7
