REMARK  Name = ZINC64103294
REMARK  6 active torsions:
REMARK  status: ('A' for Active; 'I' for Inactive)
REMARK    1  A    between atoms: C_7  and  C_10
REMARK    2  A    between atoms: C_10  and  N_11
REMARK    3  A    between atoms: C_15  and  C_18
REMARK    4  A    between atoms: C_18  and  N_19
REMARK    5  A    between atoms: C_21  and  C_24
REMARK    6  A    between atoms: C_24  and  O_29
REMARK                            x       y       z     vdW  Elec       q    Type
REMARK                         _______ _______ _______ _____ _____    ______ ____
ROOT
ATOM      1  N   UNL     1       0.466  -3.635  -1.404  0.00  0.00    +0.382 N 
ATOM      2  C   UNL     1      -0.222  -2.578  -2.155  0.00  0.00    -0.078 C 
ATOM      3  C   UNL     1      -0.387  -3.008  -3.615  0.00  0.00    -0.018 C 
ATOM      4  C   UNL     1      -1.212  -4.297  -3.671  0.00  0.00    +0.002 C 
ATOM      5  C   UNL     1      -0.523  -5.370  -2.824  0.00  0.00    -0.006 C 
ATOM      6  C   UNL     1      -0.354  -4.853  -1.394  0.00  0.00    -0.073 C 
ATOM      7  H   UNL     1       1.354  -3.832  -1.842  0.00  0.00    -0.081 HD
ENDROOT
BRANCH   1   8
ATOM      8  C   UNL     1       0.691  -3.186  -0.024  0.00  0.00    -0.045 C 
BRANCH   8  15
ATOM      9  C   UNL     1      -0.016   1.348   0.009  0.00  0.00    +0.001 A 
ATOM     10  C   UNL     1       1.166   2.101   0.002  0.00  0.00    +0.002 A 
ATOM     11  C   UNL     1       2.391   1.535  -0.013  0.00  0.00    +0.026 A 
ATOM     12  C   UNL     1       2.529   0.120  -0.022  0.00  0.00    +0.043 A 
ATOM     13  N   UNL     1       3.587  -0.654  -0.037  0.00  0.00    -0.380 N 
ATOM     14  C   UNL     1       3.143  -2.053  -0.041  0.00  0.00    +0.142 C 
ATOM     15  C   UNL     1       1.631  -2.008  -0.025  0.00  0.00    -0.058 C 
ATOM     16  C   UNL     1       1.295  -0.698  -0.014  0.00  0.00    -0.003 A 
ATOM     17  C   UNL     1       0.002  -0.004   0.002  0.00  0.00    +0.010 A 
ATOM     18  H   UNL     1       4.509  -0.353  -0.045  0.00  0.00    +0.160 HD
ENDBRANCH   8  15
ENDBRANCH   1   8
BRANCH   5  19
ATOM     19  C   UNL     1      -1.379  -6.638  -2.811  0.00  0.00    +0.147 C 
BRANCH  19  20
ATOM     20  N   UNL     1      -1.445  -7.197  -4.164  0.00  0.00    -0.251 N 
ATOM     21  C   UNL     1      -1.117  -8.461  -4.517  0.00  0.00    +0.136 A 
ATOM     22  C   UNL     1      -1.326  -8.546  -5.851  0.00  0.00    +0.114 A 
ATOM     23  N   UNL     1      -1.766  -7.346  -6.244  0.00  0.00    -0.132 NA
ATOM     24  N   UNL     1      -1.831  -6.570  -5.220  0.00  0.00    -0.065 NA
BRANCH  22  25
ATOM     25  C   UNL     1      -1.106  -9.756  -6.723  0.00  0.00    +0.111 C 
ATOM     26  C   UNL     1       0.386 -10.149  -6.714  0.00  0.00    +0.041 C 
ATOM     27  C   UNL     1       0.664 -10.617  -8.164  0.00  0.00    +0.003 C 
ATOM     28  C   UNL     1      -0.179  -9.630  -9.010  0.00  0.00    +0.003 C 
ATOM     29  C   UNL     1      -1.465  -9.426  -8.182  0.00  0.00    +0.041 C 
BRANCH  25  30
ATOM     30  O   UNL     1      -1.903 -10.846  -6.257  0.00  0.00    -0.382 OA
ATOM     31  H   UNL     1      -1.716 -11.109  -5.345  0.00  0.00    +0.211 HD
ENDBRANCH  25  30
ENDBRANCH  22  25
ENDBRANCH  19  20
ENDBRANCH   5  19
TORSDOF 6
