REMARK  Name = ZINC14344366
REMARK  5 active torsions:
REMARK  status: ('A' for Active; 'I' for Inactive)
REMARK    1  A    between atoms: C_1  and  N_2
REMARK    2  A    between atoms: N_9  and  C_12
REMARK    3  A    between atoms: C_12  and  C_13
REMARK    4  A    between atoms: C_13  and  C_14
REMARK    5  A    between atoms: C_19  and  C_22
REMARK                            x       y       z     vdW  Elec       q    Type
REMARK                         _______ _______ _______ _____ _____    ______ ____
ROOT
ATOM      1  C   UNL     1      -2.799   8.740   0.069  0.00  0.00    +0.220 C 
ATOM      2  O   UNL     1      -3.956   8.375   0.077  0.00  0.00    -0.275 OA
ATOM      3  N   UNL     1      -1.805   7.829   0.055  0.00  0.00    -0.265 N 
ATOM      4  C   UNL     1      -2.106   6.473   0.052  0.00  0.00    +0.165 A 
ATOM      5  N   UNL     1      -1.282   5.445   0.045  0.00  0.00    -0.225 NA
ATOM      6  C   UNL     1      -1.737   4.200   0.038  0.00  0.00    +0.082 A 
ATOM      7  C   UNL     1      -3.091   4.011   0.050  0.00  0.00    +0.077 A 
ATOM      8  S   UNL     1      -3.663   5.704   0.063  0.00  0.00    -0.060 S 
ATOM      9  H   UNL     1      -0.880   8.121   0.049  0.00  0.00    +0.157 HD
ENDROOT
BRANCH   6  10
ATOM     10  C   UNL     1      -0.805   3.046   0.025  0.00  0.00    +0.026 A 
ATOM     11  C   UNL     1      -1.143   1.734   0.016  0.00  0.00    +0.093 A 
ATOM     12  N   UNL     1      -0.011   0.966   0.007  0.00  0.00    -0.360 N 
ATOM     13  H   UNL     1       0.002  -0.004   0.002  0.00  0.00    +0.165 HD
ATOM     14  C   UNL     1       1.107   1.770   0.001  0.00  0.00    +0.047 A 
ATOM     15  C   UNL     1       0.665   3.105   0.011  0.00  0.00    +0.009 A 
ATOM     16  C   UNL     1       1.591   4.146   0.008  0.00  0.00    +0.010 A 
ATOM     17  C   UNL     1       2.929   3.865  -0.006  0.00  0.00    +0.001 A 
ATOM     18  C   UNL     1       3.372   2.550  -0.016  0.00  0.00    +0.002 A 
ATOM     19  C   UNL     1       2.473   1.506  -0.013  0.00  0.00    +0.026 A 
ENDBRANCH   6  10
BRANCH   1  20
ATOM     20  C   UNL     1      -2.473  10.211   0.072  0.00  0.00    +0.118 C 
BRANCH  20  21
ATOM     21  C   UNL     1      -3.770  11.021   0.088  0.00  0.00    +0.136 C 
BRANCH  21  30
ATOM     22  C   UNL     1      -2.738  15.602   1.720  0.00  0.00    +0.154 C 
ATOM     23  N   UNL     1      -2.996  14.480   0.814  0.00  0.00    -0.295 N 
ATOM     24  C   UNL     1      -2.997  14.539  -0.577  0.00  0.00    +0.070 A 
ATOM     25  C   UNL     1      -2.780  15.563  -1.486  0.00  0.00    +0.028 A 
ATOM     26  C   UNL     1      -2.850  15.306  -2.841  0.00  0.00    +0.002 A 
ATOM     27  C   UNL     1      -3.138  14.031  -3.296  0.00  0.00    +0.002 A 
ATOM     28  C   UNL     1      -3.356  13.004  -2.398  0.00  0.00    +0.028 A 
ATOM     29  C   UNL     1      -3.287  13.252  -1.036  0.00  0.00    +0.070 A 
ATOM     30  N   UNL     1      -3.453  12.451   0.091  0.00  0.00    -0.292 N 
ATOM     31  C   UNL     1      -3.279  13.217   1.185  0.00  0.00    +0.330 A 
ATOM     32  O   UNL     1      -3.360  12.826   2.335  0.00  0.00    -0.246 OA
ENDBRANCH  21  30
ENDBRANCH  20  21
ENDBRANCH   1  20
TORSDOF 4
