REMARK  Name = ZINC05316355
REMARK  8 active torsions:
REMARK  status: ('A' for Active; 'I' for Inactive)
REMARK    1  A    between atoms: C_1  and  O_2
REMARK    2  A    between atoms: O_2  and  C_3
REMARK    3  A    between atoms: C_3  and  C_5
REMARK    4  A    between atoms: C_10  and  N_11
REMARK    5  A    between atoms: C_12  and  C_14
REMARK    6  A    between atoms: C_16  and  C_17
REMARK    7  A    between atoms: C_17  and  C_19
REMARK    8  A    between atoms: C_24  and  N_25
REMARK                            x       y       z     vdW  Elec       q    Type
REMARK                         _______ _______ _______ _____ _____    ______ ____
ROOT
ATOM      1  C   UNL     1       3.398  -2.088  -8.268  0.00  0.00    +0.192 C 
ATOM      2  O   UNL     1       3.553  -0.920  -7.964  0.00  0.00    -0.287 OA
ENDROOT
BRANCH   1   3
ATOM      3  C   UNL     1       4.035  -2.625  -9.485  0.00  0.00    +0.047 A 
ATOM      4  C   UNL     1       3.856  -3.962  -9.842  0.00  0.00    +0.014 A 
ATOM      5  C   UNL     1       4.454  -4.458 -10.981  0.00  0.00    +0.001 A 
ATOM      6  C   UNL     1       5.236  -3.638 -11.780  0.00  0.00    +0.002 A 
ATOM      7  C   UNL     1       5.428  -2.314 -11.447  0.00  0.00    +0.028 A 
ATOM      8  C   UNL     1       4.826  -1.788 -10.301  0.00  0.00    +0.075 A 
BRANCH   8   9
ATOM      9  N   UNL     1       5.006  -0.478  -9.971  0.00  0.00    -0.250 NA
ATOM     10  C   UNL     1       6.210   0.025  -9.930  0.00  0.00    +0.057 C 
ATOM     11  C   UNL     1       7.416  -0.872 -10.103  0.00  0.00    +0.139 C 
ATOM     12  C   UNL     1       8.463  -0.425  -9.096  0.00  0.00    +0.209 C 
ATOM     13  O   UNL     1       9.008  -1.205  -8.352  0.00  0.00    -0.288 OA
ATOM     14  C   UNL     1       8.782   1.043  -9.083  0.00  0.00    +0.229 C 
ATOM     15  O   UNL     1       9.913   1.447  -8.907  0.00  0.00    -0.284 OA
ATOM     16  C   UNL     1       7.652   1.972  -9.294  0.00  0.00    +0.034 A 
ATOM     17  C   UNL     1       6.402   1.468  -9.723  0.00  0.00    +0.008 A 
ATOM     18  C   UNL     1       5.345   2.353  -9.941  0.00  0.00    +0.010 A 
ATOM     19  C   UNL     1       5.527   3.707  -9.734  0.00  0.00    +0.001 A 
ATOM     20  C   UNL     1       6.751   4.199  -9.310  0.00  0.00    +0.001 A 
ATOM     21  C   UNL     1       7.813   3.340  -9.080  0.00  0.00    +0.012 A 
ENDBRANCH   8   9
ENDBRANCH   1   3
BRANCH   1  24
ATOM     22  C   UNL     1       1.992  -2.471  -6.307  0.00  0.00    +0.244 C 
ATOM     23  O   UNL     1       2.165  -1.172  -5.969  0.00  0.00    -0.282 OA
ATOM     24  C   UNL     1       2.577  -2.963  -7.424  0.00  0.00    +0.107 C 
BRANCH  22  26
ATOM     25  N   UNL     1       0.581  -2.864  -4.343  0.00  0.00    -0.278 N 
ATOM     26  C   UNL     1       1.163  -3.354  -5.455  0.00  0.00    +0.288 C 
ATOM     27  O   UNL     1       1.008  -4.520  -5.759  0.00  0.00    -0.266 OA
ATOM     28  H   UNL     1       0.634  -1.916  -4.145  0.00  0.00    +0.155 HD
BRANCH  25  34
ATOM     29  C   UNL     1      -1.097  -3.216  -2.632  0.00  0.00    +0.080 A 
ATOM     30  C   UNL     1      -1.775  -4.085  -1.774  0.00  0.00    +0.017 A 
ATOM     31  C   UNL     1      -1.454  -5.425  -1.759  0.00  0.00    +0.001 A 
ATOM     32  C   UNL     1      -0.461  -5.916  -2.592  0.00  0.00    +0.002 A 
ATOM     33  C   UNL     1       0.217  -5.070  -3.445  0.00  0.00    +0.024 A 
ATOM     34  C   UNL     1      -0.097  -3.717  -3.479  0.00  0.00    +0.048 A 
BRANCH  29  35
ATOM     35  C   UNL     1      -1.436  -1.781  -2.653  0.00  0.00    +0.341 C 
ATOM     36  O   UNL     1      -0.919  -1.047  -3.471  0.00  0.00    -0.245 OA
BRANCH  35  38
ATOM     37  C   UNL     1      -2.600   0.115  -1.842  0.00  0.00    +0.280 C 
ATOM     38  O   UNL     1      -2.319  -1.284  -1.764  0.00  0.00    -0.464 OA
ENDBRANCH  35  38
ENDBRANCH  29  35
ENDBRANCH  25  34
ENDBRANCH  22  26
ENDBRANCH   1  24
TORSDOF 7
