REMARK  Name = ZINC33517483
REMARK  8 active torsions:
REMARK  status: ('A' for Active; 'I' for Inactive)
REMARK    1  A    between atoms: C_1  and  C_2
REMARK    2  A    between atoms: C_9  and  N_29
REMARK    3  A    between atoms: C_10  and  C_13
REMARK    4  A    between atoms: N_17  and  C_21
REMARK    5  A    between atoms: C_21  and  C_22
REMARK    6  A    between atoms: C_22  and  C_23
REMARK    7  A    between atoms: N_29  and  C_30
REMARK    8  A    between atoms: C_33  and  C_36
REMARK                            x       y       z     vdW  Elec       q    Type
REMARK                         _______ _______ _______ _____ _____    ______ ____
ROOT
ATOM      1  C   UNL     1       2.338  -8.672  -1.224  0.00  0.00    +0.047 C 
ATOM      2  C   UNL     1       1.908  -7.230  -1.294  0.00  0.00    -0.007 A 
ATOM      3  C   UNL     1       0.583  -6.908  -1.305  0.00  0.00    +0.008 A 
ATOM      4  C   UNL     1       0.199  -5.562  -1.371  0.00  0.00    +0.019 A 
ATOM      5  C   UNL     1       1.138  -4.591  -1.424  0.00  0.00    +0.096 A 
ATOM      6  N   UNL     1       2.465  -4.902  -1.414  0.00  0.00    -0.267 N 
ATOM      7  C   UNL     1       2.871  -6.206  -1.350  0.00  0.00    +0.145 A 
ATOM      8  N   UNL     1       4.164  -6.530  -1.340  0.00  0.00    -0.214 NA
ATOM      9  C   UNL     1       5.113  -5.607  -1.395  0.00  0.00    +0.134 A 
ATOM     10  C   UNL     1       4.753  -4.240  -1.456  0.00  0.00    +0.081 A 
ATOM     11  C   UNL     1       3.378  -3.907  -1.467  0.00  0.00    +0.267 A 
ATOM     12  O   UNL     1       3.022  -2.743  -1.524  0.00  0.00    -0.267 OA
ENDROOT
BRANCH  10  13
ATOM     13  C   UNL     1       5.744  -3.232  -1.511  0.00  0.00    +0.037 C 
ATOM     14  C   UNL     1       5.884  -2.356  -0.473  0.00  0.00    +0.077 C 
ATOM     15  C   UNL     1       5.237  -2.344   0.795  0.00  0.00    +0.258 C 
ATOM     16  O   UNL     1       4.422  -3.200   1.091  0.00  0.00    -0.269 OA
ATOM     17  N   UNL     1       5.546  -1.378   1.643  0.00  0.00    -0.255 N 
ATOM     18  C   UNL     1       6.446  -0.425   1.312  0.00  0.00    +0.121 C 
ATOM     19  S   UNL     1       6.987   0.909   2.239  0.00  0.00    -0.027 S 
ATOM     20  S   UNL     1       6.930  -0.913  -0.337  0.00  0.00    -0.061 S 
BRANCH  17  21
ATOM     21  C   UNL     1       4.899  -1.335   2.957  0.00  0.00    +0.119 C 
BRANCH  21  22
ATOM     22  C   UNL     1       5.729  -2.137   3.960  0.00  0.00    +0.054 C 
BRANCH  22  23
ATOM     23  C   UNL     1       5.064  -2.094   5.312  0.00  0.00    -0.046 A 
ATOM     24  C   UNL     1       4.138  -3.060   5.657  0.00  0.00    +0.004 A 
ATOM     25  C   UNL     1       3.523  -3.017   6.895  0.00  0.00    +0.000 A 
ATOM     26  C   UNL     1       3.842  -2.013   7.790  0.00  0.00    +0.000 A 
ATOM     27  C   UNL     1       4.769  -1.047   7.445  0.00  0.00    +0.000 A 
ATOM     28  C   UNL     1       5.380  -1.087   6.205  0.00  0.00    +0.004 A 
ENDBRANCH  22  23
ENDBRANCH  21  22
ENDBRANCH  17  21
ENDBRANCH  10  13
BRANCH   9  29
ATOM     29  N   UNL     1       6.441  -5.976  -1.388  0.00  0.00    -0.326 N 
ATOM     30  H   UNL     1       7.225  -5.206  -1.430  0.00  0.00    +0.148 HD
BRANCH  29  31
ATOM     31  C   UNL     1       6.807  -7.392  -1.325  0.00  0.00    +0.072 C 
ATOM     32  C   UNL     1       6.824  -7.850   0.135  0.00  0.00    +0.022 C 
ATOM     33  C   UNL     1       7.847  -7.023   0.917  0.00  0.00    +0.005 C 
ATOM     34  C   UNL     1       9.236  -7.218   0.305  0.00  0.00    -0.014 C 
ATOM     35  C   UNL     1       9.219  -6.761  -1.155  0.00  0.00    +0.005 C 
ATOM     36  C   UNL     1       8.196  -7.588  -1.937  0.00  0.00    +0.022 C 
ATOM     37  C   UNL     1      10.258  -6.392   1.087  0.00  0.00    +0.007 C 
ENDBRANCH  29  31
ENDBRANCH   9  29
TORSDOF 6
