REMARK  Name = ZINC35926664
REMARK  6 active torsions:
REMARK  status: ('A' for Active; 'I' for Inactive)
REMARK    1  A    between atoms: C_1  and  O_2
REMARK    2  A    between atoms: O_2  and  C_3
REMARK    3  A    between atoms: C_8  and  N_9
REMARK    4  A    between atoms: N_12  and  C_15
REMARK    5  A    between atoms: C_15  and  C_16
REMARK    6  A    between atoms: C_30  and  C_32
REMARK                            x       y       z     vdW  Elec       q    Type
REMARK                         _______ _______ _______ _____ _____    ______ ____
ROOT
ATOM      1  C   UNL     1      -1.418  -3.915   4.767  0.00  0.00    +0.034 A 
ATOM      2  C   UNL     1      -0.679  -3.178   5.646  0.00  0.00    +0.091 A 
ATOM      3  C   UNL     1       0.163  -3.846   6.553  0.00  0.00    +0.253 A 
ATOM      4  O   UNL     1       0.838  -3.218   7.352  0.00  0.00    -0.268 OA
ATOM      5  N   UNL     1       0.210  -5.195   6.523  0.00  0.00    -0.295 N 
ATOM      6  H   UNL     1       0.783  -5.676   7.140  0.00  0.00    +0.172 HD
ATOM      7  C   UNL     1      -0.551  -5.877   5.624  0.00  0.00    +0.198 A 
ATOM      8  N   UNL     1      -1.341  -5.244   4.780  0.00  0.00    -0.223 NA
ATOM      9  N   UNL     1      -0.498  -7.245   5.600  0.00  0.00    -0.298 N 
ATOM     10  C   UNL     1       0.273  -7.982   6.610  0.00  0.00    +0.127 C 
ATOM     11  C   UNL     1      -0.655  -8.993   7.294  0.00  0.00    +0.127 C 
ATOM     12  N   UNL     1      -1.369  -9.751   6.257  0.00  0.00    -0.298 N 
ATOM     13  C   UNL     1      -2.141  -9.014   5.247  0.00  0.00    +0.127 C 
ATOM     14  C   UNL     1      -1.217  -8.003   4.566  0.00  0.00    +0.127 C 
ATOM     15  C   UNL     1      -1.318 -11.097   6.233  0.00  0.00    +0.219 C 
ATOM     16  O   UNL     1      -0.677 -11.695   7.072  0.00  0.00    -0.275 OA
ENDROOT
BRANCH  15  17
ATOM     17  C   UNL     1      -2.055 -11.861   5.163  0.00  0.00    +0.075 C 
ATOM     18  C   UNL     1      -3.546 -12.073   5.475  0.00  0.00    +0.013 C 
ATOM     19  C   UNL     1      -3.384 -13.490   4.901  0.00  0.00    +0.001 C 
ATOM     20  C   UNL     1      -1.896 -13.386   5.274  0.00  0.00    +0.013 C 
ENDBRANCH  15  17
BRANCH   1  21
ATOM     21  C   UNL     1      -2.329  -3.224   3.785  0.00  0.00    -0.022 C 
BRANCH  21  25
ATOM     22  N   UNL     1      -0.981  -2.817  -0.155  0.00  0.00    -0.331 N 
ATOM     23  C   UNL     1      -2.371  -3.259   0.033  0.00  0.00    +0.086 C 
ATOM     24  C   UNL     1      -2.806  -2.901   1.458  0.00  0.00    -0.059 C 
ATOM     25  N   UNL     1      -1.853  -3.473   2.418  0.00  0.00    +0.385 N 
ATOM     26  C   UNL     1      -0.533  -2.855   2.241  0.00  0.00    -0.059 C 
ATOM     27  C   UNL     1       0.015  -3.216   0.851  0.00  0.00    +0.086 C 
ATOM     28  H   UNL     1      -1.781  -4.468   2.265  0.00  0.00    -0.081 HD
BRANCH  22  34
ATOM     29  C   UNL     1      -0.662  -0.654  -1.191  0.00  0.00    +0.141 A 
ATOM     30  C   UNL     1      -0.293   0.106  -2.288  0.00  0.00    +0.049 A 
ATOM     31  C   UNL     1       0.115  -0.514  -3.455  0.00  0.00    +0.024 A 
ATOM     32  C   UNL     1       0.156  -1.895  -3.530  0.00  0.00    +0.043 A 
ATOM     33  C   UNL     1      -0.211  -2.661  -2.438  0.00  0.00    +0.046 A 
ATOM     34  C   UNL     1      -0.615  -2.045  -1.263  0.00  0.00    +0.073 A 
ATOM     35 CL   UNL     1       0.669  -2.668  -4.997  0.00  0.00    -0.083 Cl
BRANCH  29  37
ATOM     36  C   UNL     1      -1.087   1.385  -0.042  0.00  0.00    +0.277 C 
ATOM     37  O   UNL     1      -1.064  -0.044  -0.043  0.00  0.00    -0.493 OA
ENDBRANCH  29  37
ENDBRANCH  22  34
ENDBRANCH  21  25
ENDBRANCH   1  21
TORSDOF 5
