REMARK  Name = ZINC21037120
REMARK  4 active torsions:
REMARK  status: ('A' for Active; 'I' for Inactive)
REMARK    1  A    between atoms: C_1  and  C_2
REMARK    2  A    between atoms: N_8  and  S_9
REMARK    3  A    between atoms: S_9  and  N_12
REMARK    4  A    between atoms: N_12  and  C_13
REMARK                            x       y       z     vdW  Elec       q    Type
REMARK                         _______ _______ _______ _____ _____    ______ ____
ROOT
ATOM      1  N   UNL     1      -2.574   0.910  -0.014  0.00  0.00    -0.205 N 
ATOM      2  H   UNL     1      -1.876   1.413   0.672  0.00  0.00    +0.175 HD
ENDROOT
BRANCH   1   3
ATOM      3  C   UNL     1      -2.525  -0.481  -0.167  0.00  0.00    +0.070 A 
ATOM      4  C   UNL     1      -2.772  -1.047  -1.405  0.00  0.00    +0.026 A 
ATOM      5  C   UNL     1      -2.729  -2.421  -1.555  0.00  0.00    +0.002 A 
ATOM      6  C   UNL     1      -2.433  -3.224  -0.471  0.00  0.00    +0.005 A 
ATOM      7  C   UNL     1      -2.177  -2.665   0.773  0.00  0.00    -0.025 A 
ATOM      8  C   UNL     1      -2.222  -1.294   0.934  0.00  0.00    +0.053 A 
ATOM      9  N   UNL     1      -1.983  -0.664   2.159  0.00  0.00    -0.342 N 
ATOM     10  C   UNL     1      -1.247  -1.506   3.104  0.00  0.00    +0.102 C 
ATOM     11  C   UNL     1      -1.982  -2.845   3.243  0.00  0.00    +0.023 C 
ATOM     12  C   UNL     1      -1.851  -3.594   1.915  0.00  0.00    +0.038 C 
ATOM     13  H   UNL     1      -2.286   0.353   2.449  0.00  0.00    +0.146 HD
ENDBRANCH   1   3
BRANCH   1  14
ATOM     14  S   UNL     1      -3.681   1.798  -0.867  0.00  0.00    +0.112 S 
ATOM     15  O   UNL     1      -4.918   1.107  -0.769  0.00  0.00    -0.138 OA
ATOM     16  O   UNL     1      -3.527   3.148  -0.449  0.00  0.00    -0.138 OA
BRANCH  14  23
ATOM     17  C   UNL     1      -1.420   3.242  -1.771  0.00  0.00    +0.026 C 
ATOM     18  C   UNL     1      -2.011   2.420  -2.918  0.00  0.00    +0.078 C 
ATOM     19  C   UNL     1      -2.364   3.346  -4.081  0.00  0.00    +0.020 C 
ATOM     20  C   UNL     1      -3.084   2.545  -5.168  0.00  0.00    +0.003 C 
ATOM     21  C   UNL     1      -4.381   1.964  -4.601  0.00  0.00    +0.017 C 
ATOM     22  C   UNL     1      -4.048   1.017  -3.443  0.00  0.00    +0.111 C 
ATOM     23  N   UNL     1      -3.231   1.742  -2.460  0.00  0.00    -0.161 NA
ENDBRANCH  14  23
ENDBRANCH   1  14
TORSDOF 3
