REMARK  Name = ZINC39361323
REMARK  8 active torsions:
REMARK  status: ('A' for Active; 'I' for Inactive)
REMARK    1  A    between atoms: C_1  and  C_2
REMARK    2  A    between atoms: C_2  and  O_3
REMARK    3  A    between atoms: O_3  and  C_4
REMARK    4  A    between atoms: C_4  and  C_6
REMARK    5  A    between atoms: C_9  and  N_12
REMARK    6  A    between atoms: C_17  and  C_31
REMARK    7  A    between atoms: C_34  and  O_37
REMARK    8  A    between atoms: O_37  and  C_38
REMARK                            x       y       z     vdW  Elec       q    Type
REMARK                         _______ _______ _______ _____ _____    ______ ____
ROOT
ATOM      1  N   UNL     1      -6.723  -3.966  -0.276  0.00  0.00    -0.209 N 
ATOM      2  C   UNL     1      -6.936  -5.293  -0.206  0.00  0.00    +0.231 C 
ATOM      3  O   UNL     1      -6.096  -6.159  -0.318  0.00  0.00    -0.274 OA
ATOM      4  C   UNL     1      -8.416  -5.507   0.038  0.00  0.00    +0.107 C 
ATOM      5  C   UNL     1      -8.923  -6.736  -0.674  0.00  0.00    +0.052 C 
ATOM      6  C   UNL     1      -8.574  -6.644  -2.161  0.00  0.00    +0.114 C 
ATOM      7  C   UNL     1      -9.524  -5.583  -2.734  0.00  0.00    +0.080 C 
ATOM      8  N   UNL     1     -10.182  -5.985  -3.780  0.00  0.00    -0.197 NA
ATOM      9  C   UNL     1     -10.144  -7.232  -4.282  0.00  0.00    +0.132 C 
ATOM     10  S   UNL     1     -10.800  -7.815  -5.751  0.00  0.00    -0.026 S 
ATOM     11  S   UNL     1      -9.203  -8.146  -3.020  0.00  0.00    -0.090 S 
ATOM     12  S   UNL     1      -9.699  -4.086  -2.035  0.00  0.00    -0.098 S 
ATOM     13  C   UNL     1      -9.032  -4.186  -0.386  0.00  0.00    +0.151 C 
ATOM     14  C   UNL     1      -7.848  -3.231  -0.268  0.00  0.00    +0.240 C 
ATOM     15  O   UNL     1      -7.911  -2.023  -0.185  0.00  0.00    -0.274 OA
ENDROOT
BRANCH   1  19
ATOM     16  C   UNL     1      -2.914  -2.285  -0.483  0.00  0.00    +0.059 A 
ATOM     17  C   UNL     1      -3.324  -2.950   0.676  0.00  0.00    +0.017 A 
ATOM     18  C   UNL     1      -4.583  -3.503   0.740  0.00  0.00    +0.025 A 
ATOM     19  C   UNL     1      -5.446  -3.402  -0.346  0.00  0.00    +0.044 A 
ATOM     20  C   UNL     1      -5.041  -2.741  -1.501  0.00  0.00    +0.025 A 
ATOM     21  C   UNL     1      -3.786  -2.180  -1.571  0.00  0.00    +0.017 A 
BRANCH  16  22
ATOM     22  C   UNL     1      -1.566  -1.690  -0.557  0.00  0.00    +0.339 C 
ATOM     23  O   UNL     1      -1.212  -1.108  -1.563  0.00  0.00    -0.245 OA
BRANCH  22  24
ATOM     24  O   UNL     1      -0.726  -1.792   0.492  0.00  0.00    -0.461 OA
BRANCH  24  26
ATOM     25  C   UNL     1       1.369  -1.410   1.635  0.00  0.00    +0.048 C 
ATOM     26  C   UNL     1       0.563  -1.193   0.352  0.00  0.00    +0.229 C 
ENDBRANCH  24  26
ENDBRANCH  22  24
ENDBRANCH  16  22
ENDBRANCH   1  19
BRANCH   5  27
ATOM     27  C   UNL     1     -10.419  -6.829  -0.514  0.00  0.00    -0.042 A 
ATOM     28  C   UNL     1     -11.115  -7.859  -1.118  0.00  0.00    +0.007 A 
ATOM     29  C   UNL     1     -12.486  -7.946  -0.973  0.00  0.00    +0.046 A 
ATOM     30  C   UNL     1     -13.164  -6.999  -0.220  0.00  0.00    +0.120 A 
ATOM     31  C   UNL     1     -12.463  -5.966   0.386  0.00  0.00    +0.046 A 
ATOM     32  C   UNL     1     -11.092  -5.886   0.242  0.00  0.00    +0.007 A 
BRANCH  30  33
ATOM     33  O   UNL     1     -14.513  -7.082  -0.077  0.00  0.00    -0.495 OA
ATOM     34  C   UNL     1     -15.145  -6.072   0.713  0.00  0.00    +0.277 C 
ENDBRANCH  30  33
ENDBRANCH   5  27
TORSDOF 6
