REMARK  Name = ZINC23380437
REMARK  5 active torsions:
REMARK  status: ('A' for Active; 'I' for Inactive)
REMARK    1  A    between atoms: C_1  and  C_2
REMARK    2  A    between atoms: C_6  and  C_8
REMARK    3  A    between atoms: C_8  and  C_9
REMARK    4  A    between atoms: N_17  and  C_18
REMARK    5  A    between atoms: C_18  and  C_19
REMARK                            x       y       z     vdW  Elec       q    Type
REMARK                         _______ _______ _______ _____ _____    ______ ____
ROOT
ATOM      1  C   UNL     1      -0.090   5.857  -1.387  0.00  0.00    +0.108 A 
ATOM      2  N   UNL     1      -1.111   6.124  -2.176  0.00  0.00    -0.144 NA
ATOM      3  N   UNL     1      -0.923   6.554  -3.348  0.00  0.00    -0.126 NA
ATOM      4  C   UNL     1       0.290   6.742  -3.837  0.00  0.00    +0.189 A 
ATOM      5  S   UNL     1       1.267   6.264  -2.480  0.00  0.00    -0.035 S 
ATOM      6  N   UNL     1       0.679   7.198  -5.092  0.00  0.00    -0.247 N 
ATOM      7  C   UNL     1      -0.253   7.519  -6.011  0.00  0.00    +0.306 C 
ATOM      8  O   UNL     1      -1.433   7.410  -5.744  0.00  0.00    -0.252 OA
ATOM      9  N   UNL     1       0.125   7.961  -7.228  0.00  0.00    -0.292 N 
ATOM     10  H   UNL     1       1.748   7.297  -5.335  0.00  0.00    +0.158 HD
ATOM     11  H   UNL     1       1.193   8.059  -7.470  0.00  0.00    +0.151 HD
ENDROOT
BRANCH   1  12
ATOM     12  C   UNL     1      -0.070   5.347   0.031  0.00  0.00    +0.100 C 
BRANCH  12  18
ATOM     13  C   UNL     1      -2.514   0.980   0.019  0.00  0.00    +0.044 C 
ATOM     14  C   UNL     1      -1.219   1.751   0.017  0.00  0.00    -0.050 A 
ATOM     15  C   UNL     1      -0.013   1.076   0.008  0.00  0.00    +0.003 A 
ATOM     16  C   UNL     1       1.175   1.783   0.000  0.00  0.00    +0.001 A 
ATOM     17  C   UNL     1       1.156   3.166   0.008  0.00  0.00    +0.004 A 
ATOM     18  C   UNL     1      -0.050   3.840   0.022  0.00  0.00    -0.041 A 
ATOM     19  C   UNL     1      -1.238   3.133   0.029  0.00  0.00    +0.007 A 
ENDBRANCH  12  18
ENDBRANCH   1  12
BRANCH   9  20
ATOM     20  C   UNL     1      -0.888   8.310  -8.227  0.00  0.00    +0.182 C 
BRANCH  20  21
ATOM     21  C   UNL     1      -0.210   8.771  -9.491  0.00  0.00    +0.151 A 
ATOM     22  N   UNL     1       0.150   8.020 -10.498  0.00  0.00    -0.133 NA
ATOM     23  N   UNL     1       0.697   8.748 -11.408  0.00  0.00    -0.134 NA
ATOM     24  C   UNL     1       0.706   9.992 -11.025  0.00  0.00    +0.133 A 
ATOM     25  N   UNL     1       0.137  10.041  -9.798  0.00  0.00    -0.314 N 
ATOM     26  C   UNL     1      -0.049  11.233  -8.970  0.00  0.00    +0.125 C 
ATOM     27  C   UNL     1      -0.180  12.463  -9.873  0.00  0.00    +0.022 C 
ATOM     28  C   UNL     1       1.203  13.053 -10.145  0.00  0.00    +0.002 C 
ATOM     29  C   UNL     1       2.085  12.039 -10.867  0.00  0.00    +0.008 C 
ATOM     30  C   UNL     1       1.230  11.178 -11.793  0.00  0.00    +0.076 C 
ENDBRANCH  20  21
ENDBRANCH   9  20
TORSDOF 4
