REMARK  Name = ZINC09018676
REMARK  10 active torsions:
REMARK  status: ('A' for Active; 'I' for Inactive)
REMARK    1  A    between atoms: C_1  and  C_2
REMARK    2  A    between atoms: C_2  and  C_3
REMARK    3  A    between atoms: C_2  and  C_4
REMARK    4  A    between atoms: C_12  and  S_15
REMARK    5  A    between atoms: S_15  and  C_16
REMARK    6  A    between atoms: C_16  and  C_17
REMARK    7  A    between atoms: N_19  and  C_20
REMARK    8  A    between atoms: C_20  and  C_21
REMARK    9  A    between atoms: C_20  and  C_22
REMARK   10  A    between atoms: C_20  and  C_23
REMARK                            x       y       z     vdW  Elec       q    Type
REMARK                         _______ _______ _______ _____ _____    ______ ____
ROOT
ATOM      1  C   UNL     1       1.825  -1.655   0.282  0.00  0.00    +0.037 A 
ATOM      2  C   UNL     1       3.168  -1.722   0.292  0.00  0.00    +0.092 A 
ATOM      3  C   UNL     1       3.932  -0.563   0.579  0.00  0.00    +0.253 A 
ATOM      4  O   UNL     1       5.149  -0.619   0.589  0.00  0.00    -0.268 OA
ATOM      5  N   UNL     1       3.307   0.603   0.841  0.00  0.00    -0.291 N 
ATOM      6  H   UNL     1       3.825   1.399   1.038  0.00  0.00    +0.172 HD
ATOM      7  C   UNL     1       1.923   0.661   0.829  0.00  0.00    +0.237 A 
ATOM      8  N   UNL     1       1.190  -0.465   0.550  0.00  0.00    -0.260 N 
ATOM      9  C   UNL     1      -0.136  -0.127   0.605  0.00  0.00    +0.198 A 
ATOM     10  N   UNL     1      -0.217   1.147   0.903  0.00  0.00    -0.120 NA
ATOM     11  N   UNL     1       1.085   1.645   1.044  0.00  0.00    -0.109 NA
ENDROOT
BRANCH   1  13
ATOM     12  C   UNL     1       0.504  -2.820  -1.464  0.00  0.00    +0.013 C 
ATOM     13  C   UNL     1       1.014  -2.888  -0.023  0.00  0.00    +0.030 C 
ATOM     14  C   UNL     1       1.890  -4.131   0.150  0.00  0.00    +0.013 C 
ENDBRANCH   1  13
BRANCH   9  15
ATOM     15  S   UNL     1      -1.494  -1.213   0.324  0.00  0.00    -0.076 S 
BRANCH  15  16
ATOM     16  C   UNL     1      -2.953  -0.158   0.544  0.00  0.00    +0.173 C 
BRANCH  16  17
ATOM     17  C   UNL     1      -4.201  -0.974   0.328  0.00  0.00    +0.224 C 
ATOM     18  O   UNL     1      -4.115  -2.152   0.053  0.00  0.00    -0.275 OA
ATOM     19  N   UNL     1      -5.413  -0.395   0.441  0.00  0.00    -0.310 N 
ATOM     20  H   UNL     1      -5.482   0.547   0.661  0.00  0.00    +0.149 HD
BRANCH  19  21
ATOM     21  C   UNL     1      -6.626  -1.189   0.231  0.00  0.00    +0.026 C 
ATOM     22  C   UNL     1      -6.668  -2.335   1.245  0.00  0.00    +0.031 C 
ATOM     23  C   UNL     1      -7.857  -0.299   0.417  0.00  0.00    +0.031 C 
ATOM     24  C   UNL     1      -6.621  -1.764  -1.187  0.00  0.00    +0.031 C 
ENDBRANCH  19  21
ENDBRANCH  16  17
ENDBRANCH  15  16
ENDBRANCH   9  15
TORSDOF 5
