REMARK  Name = ZINC34954490
REMARK  8 active torsions:
REMARK  status: ('A' for Active; 'I' for Inactive)
REMARK    1  A    between atoms: C_1  and  C_2
REMARK    2  A    between atoms: C_2  and  C_3
REMARK    3  A    between atoms: C_3  and  C_4
REMARK    4  A    between atoms: N_9  and  C_23
REMARK    5  A    between atoms: C_13  and  C_21
REMARK    6  A    between atoms: C_14  and  N_20
REMARK    7  A    between atoms: C_15  and  C_16
REMARK    8  A    between atoms: C_15  and  C_18
REMARK                            x       y       z     vdW  Elec       q    Type
REMARK                         _______ _______ _______ _____ _____    ______ ____
ROOT
ATOM      1  C   UNL     1       0.758  -2.021  -1.389  0.00  0.00    +0.038 C 
ATOM      2  C   UNL     1       1.648  -2.409  -2.572  0.00  0.00    +0.040 C 
ATOM      3  C   UNL     1       3.104  -2.094  -2.308  0.00  0.00    +0.093 C 
ATOM      4  N   UNL     1       3.516  -0.837  -2.938  0.00  0.00    -0.301 NA
ATOM      5  C   UNL     1       3.329  -0.915  -4.398  0.00  0.00    +0.111 C 
ATOM      6  C   UNL     1       1.853  -1.088  -4.662  0.00  0.00    -0.007 C 
ATOM      7  C   UNL     1       1.112  -1.735  -3.802  0.00  0.00    -0.027 C 
ATOM      8  C   UNL     1      -0.356  -1.788  -4.017  0.00  0.00    +0.074 C 
ATOM      9  C   UNL     1      -1.164  -2.160  -2.992  0.00  0.00    +0.054 C 
ATOM     10  C   UNL     1      -0.655  -2.551  -1.635  0.00  0.00    +0.184 C 
ATOM     11  C   UNL     1       4.908  -0.511  -2.603  0.00  0.00    +0.105 C 
ENDROOT
BRANCH   9  12
ATOM     12  N   UNL     1      -2.514  -2.179  -3.205  0.00  0.00    -0.358 N 
ATOM     13  H   UNL     1      -2.871  -1.931  -4.072  0.00  0.00    +0.142 HD
ATOM     14  H   UNL     1      -3.115  -2.441  -2.490  0.00  0.00    +0.142 HD
ENDBRANCH   9  12
BRANCH  10  15
ATOM     15  C   UNL     1      -0.642  -4.019  -1.532  0.00  0.00    +0.091 C 
ATOM     16  N   UNL     1      -0.631  -5.152  -1.452  0.00  0.00    -0.195 NA
ENDBRANCH  10  15
BRANCH  10  17
ATOM     17  C   UNL     1      -1.556  -2.008  -0.605  0.00  0.00    +0.091 C 
ATOM     18  N   UNL     1      -2.252  -1.589   0.189  0.00  0.00    -0.195 NA
ENDBRANCH  10  17
BRANCH   8  19
ATOM     19  C   UNL     1      -0.913  -1.451  -5.292  0.00  0.00    +0.101 C 
ATOM     20  N   UNL     1      -1.355  -1.183  -6.304  0.00  0.00    -0.191 NA
ENDBRANCH   8  19
BRANCH   1  21
ATOM     21  C   UNL     1       0.718  -0.497  -1.257  0.00  0.00    +0.007 C 
BRANCH  21  23
ATOM     22  C   UNL     1       1.921   1.497  -0.354  0.00  0.00    +0.004 C 
ATOM     23  C   UNL     1       2.017  -0.007  -0.614  0.00  0.00    -0.003 C 
ENDBRANCH  21  23
ENDBRANCH   1  21
TORSDOF 6
