REMARK  Name = ZINC20205997
REMARK  10 active torsions:
REMARK  status: ('A' for Active; 'I' for Inactive)
REMARK    1  A    between atoms: C_1  and  C_2
REMARK    2  A    between atoms: C_2  and  O_3
REMARK    3  A    between atoms: O_3  and  C_4
REMARK    4  A    between atoms: C_6  and  C_19
REMARK    5  A    between atoms: C_9  and  O_10
REMARK    6  A    between atoms: O_10  and  C_11
REMARK    7  A    between atoms: C_11  and  C_12
REMARK    8  A    between atoms: C_16  and  C_18
REMARK    9  A    between atoms: C_30  and  S_31
REMARK   10  A    between atoms: S_31  and  C_34
REMARK                            x       y       z     vdW  Elec       q    Type
REMARK                         _______ _______ _______ _____ _____    ______ ____
ROOT
ATOM      1  C   UNL     1       1.236  -1.864  -1.317  0.00  0.00    +0.162 A 
ATOM      2  C   UNL     1       0.514  -2.616  -0.413  0.00  0.00    +0.057 A 
ATOM      3  C   UNL     1       0.711  -4.003  -0.344  0.00  0.00    -0.021 A 
ATOM      4  C   UNL     1       1.642  -4.616  -1.195  0.00  0.00    +0.012 A 
ATOM      5  C   UNL     1       2.357  -3.857  -2.093  0.00  0.00    +0.050 A 
ATOM      6  C   UNL     1       2.156  -2.484  -2.164  0.00  0.00    +0.162 A 
ENDROOT
BRANCH   3   7
ATOM      7  C   UNL     1      -0.051  -4.807   0.613  0.00  0.00    +0.024 C 
ATOM      8  C   UNL     1      -0.527  -6.046   0.246  0.00  0.00    +0.078 C 
ATOM      9  C   UNL     1      -1.141  -6.978   1.236  0.00  0.00    +0.117 C 
ATOM     10  N   UNL     1      -1.825  -6.577   2.273  0.00  0.00    -0.386 N 
ATOM     11  N   UNL     1      -0.909  -8.336   0.936  0.00  0.00    -0.203 N 
ATOM     12  C   UNL     1      -0.625  -8.681  -0.368  0.00  0.00    +0.183 C 
ATOM     13  N   UNL     1      -0.444  -7.856  -1.375  0.00  0.00    -0.152 NA
ATOM     14  C   UNL     1      -0.463  -6.526  -1.157  0.00  0.00    +0.273 C 
ATOM     15  O   UNL     1      -0.425  -5.736  -2.086  0.00  0.00    -0.268 OA
ATOM     16  S   UNL     1      -0.557 -10.345  -0.316  0.00  0.00    +0.049 S 
ATOM     17  N   UNL     1      -0.774 -10.575   1.330  0.00  0.00    -0.174 NA
ATOM     18  C   UNL     1      -0.941  -9.378   1.800  0.00  0.00    +0.257 C 
ATOM     19  H   UNL     1      -1.873  -5.632   2.486  0.00  0.00    +0.157 HD
ATOM     20  H   UNL     1      -2.285  -7.224   2.830  0.00  0.00    +0.157 HD
BRANCH  18  21
ATOM     21  S   UNL     1      -1.204  -9.113   3.522  0.00  0.00    +0.026 S 
ATOM     22  O   UNL     1      -0.674 -10.271   4.152  0.00  0.00    -0.167 OA
ATOM     23  O   UNL     1      -0.650  -7.830   3.781  0.00  0.00    -0.167 OA
ATOM     24  C   UNL     1      -3.007  -9.066   3.717  0.00  0.00    +0.203 C 
ENDBRANCH  18  21
ENDBRANCH   3   7
BRANCH   1  25
ATOM     25  O   UNL     1       1.047  -0.519  -1.387  0.00  0.00    -0.489 OA
BRANCH  25  27
ATOM     26  C   UNL     1       0.016   1.560  -0.715  0.00  0.00    +0.048 C 
ATOM     27  C   UNL     1       0.090   0.049  -0.491  0.00  0.00    +0.226 C 
ENDBRANCH  25  27
ENDBRANCH   1  25
BRANCH   6  28
ATOM     28  O   UNL     1       2.861  -1.742  -3.056  0.00  0.00    -0.484 OA
BRANCH  28  29
ATOM     29  C   UNL     1       3.785  -2.440  -3.893  0.00  0.00    +0.264 C 
BRANCH  29  30
ATOM     30  C   UNL     1       4.470  -1.460  -4.811  0.00  0.00    -0.010 A 
ATOM     31  C   UNL     1       3.920  -1.170  -6.046  0.00  0.00    +0.007 A 
ATOM     32  C   UNL     1       4.547  -0.272  -6.888  0.00  0.00    +0.001 A 
ATOM     33  C   UNL     1       5.724   0.337  -6.496  0.00  0.00    +0.003 A 
ATOM     34  C   UNL     1       6.274   0.048  -5.261  0.00  0.00    -0.050 A 
ATOM     35  C   UNL     1       5.644  -0.848  -4.417  0.00  0.00    +0.010 A 
ATOM     36  C   UNL     1       7.558   0.711  -4.834  0.00  0.00    +0.044 C 
ENDBRANCH  29  30
ENDBRANCH  28  29
ENDBRANCH   6  28
TORSDOF 7
