REMARK  Name = ZINC31030604
REMARK  4 active torsions:
REMARK  status: ('A' for Active; 'I' for Inactive)
REMARK    1  A    between atoms: C_9  and  C_12
REMARK    2  A    between atoms: C_12  and  N_13
REMARK    3  A    between atoms: N_16  and  C_17
REMARK    4  A    between atoms: C_17  and  C_18
REMARK                            x       y       z     vdW  Elec       q    Type
REMARK                         _______ _______ _______ _____ _____    ______ ____
ROOT
ATOM      1  N   UNL     1      -3.037  -2.265  -2.872  0.00  0.00    -0.296 N 
ATOM      2  C   UNL     1      -2.664  -2.001  -1.605  0.00  0.00    +0.300 C 
ATOM      3  O   UNL     1      -3.283  -2.483  -0.675  0.00  0.00    -0.253 OA
ATOM      4  N   UNL     1      -1.605  -1.202  -1.367  0.00  0.00    -0.292 N 
ATOM      5  H   UNL     1      -2.477  -1.829  -3.713  0.00  0.00    +0.150 HD
ATOM      6  H   UNL     1      -1.045  -0.766  -2.207  0.00  0.00    +0.151 HD
ENDROOT
BRANCH   1   7
ATOM      7  C   UNL     1      -4.188  -3.134  -3.131  0.00  0.00    +0.153 C 
BRANCH   7  16
ATOM      8  C   UNL     1      -6.133  -1.867  -9.062  0.00  0.00    +0.004 A 
ATOM      9  C   UNL     1      -5.555  -0.741  -8.506  0.00  0.00    +0.004 A 
ATOM     10  C   UNL     1      -5.054  -0.782  -7.218  0.00  0.00    +0.049 A 
ATOM     11  C   UNL     1      -5.131  -1.954  -6.481  0.00  0.00    +0.163 A 
ATOM     12  C   UNL     1      -5.710  -3.087  -7.040  0.00  0.00    +0.162 A 
ATOM     13  C   UNL     1      -6.212  -3.038  -8.332  0.00  0.00    +0.049 A 
ATOM     14  O   UNL     1      -5.792  -4.248  -6.336  0.00  0.00    -0.485 OA
ATOM     15  C   UNL     1      -5.619  -4.154  -4.918  0.00  0.00    +0.275 C 
ATOM     16  C   UNL     1      -4.396  -3.269  -4.641  0.00  0.00    +0.228 C 
ATOM     17  O   UNL     1      -4.637  -1.979  -5.213  0.00  0.00    -0.480 OA
ENDBRANCH   7  16
ENDBRANCH   1   7
BRANCH   4  18
ATOM     18  C   UNL     1      -1.199  -0.914   0.011  0.00  0.00    +0.182 C 
BRANCH  18  19
ATOM     19  C   UNL     1       0.002  -0.004   0.002  0.00  0.00    +0.151 A 
ATOM     20  N   UNL     1       1.253  -0.374  -0.015  0.00  0.00    -0.133 NA
ATOM     21  N   UNL     1       2.012   0.664  -0.017  0.00  0.00    -0.134 NA
ATOM     22  C   UNL     1       1.277   1.744  -0.001  0.00  0.00    +0.134 A 
ATOM     23  N   UNL     1      -0.016   1.352   0.009  0.00  0.00    -0.313 N 
ATOM     24  C   UNL     1      -0.921   2.508   0.019  0.00  0.00    +0.125 C 
ATOM     25  C   UNL     1      -0.052   3.709   0.456  0.00  0.00    +0.029 C 
ATOM     26  C   UNL     1       1.358   3.256   0.013  0.00  0.00    +0.078 C 
ENDBRANCH  18  19
ENDBRANCH   4  18
TORSDOF 4
