REMARK  Name = ZINC39708724
REMARK  5 active torsions:
REMARK  status: ('A' for Active; 'I' for Inactive)
REMARK    1  A    between atoms: C_1  and  C_2
REMARK    2  A    between atoms: C_2  and  C_3
REMARK    3  A    between atoms: C_3  and  C_5
REMARK    4  A    between atoms: C_3  and  S_17
REMARK    5  A    between atoms: S_17  and  C_18
REMARK                            x       y       z     vdW  Elec       q    Type
REMARK                         _______ _______ _______ _____ _____    ______ ____
ROOT
ATOM      1  C   UNL     1       0.630  -0.597  -1.286  0.00  0.00    +0.140 C 
ENDROOT
BRANCH   1   2
ATOM      2  C   UNL     1       0.509  -2.093  -1.424  0.00  0.00    +0.232 C 
ATOM      3  O   UNL     1       1.433  -2.808  -1.100  0.00  0.00    -0.274 OA
ATOM      4  N   UNL     1      -0.627  -2.635  -1.906  0.00  0.00    -0.264 N 
ATOM      5  C   UNL     1      -0.738  -4.010  -2.032  0.00  0.00    +0.165 A 
ATOM      6  N   UNL     1       0.140  -4.938  -1.733  0.00  0.00    -0.225 NA
ATOM      7  C   UNL     1      -0.106  -6.255  -1.910  0.00  0.00    +0.080 A 
ATOM      8  C   UNL     1       0.748  -7.347  -1.631  0.00  0.00    +0.029 A 
ATOM      9  C   UNL     1       0.340  -8.633  -1.872  0.00  0.00    +0.002 A 
ATOM     10  C   UNL     1      -0.916  -8.910  -2.394  0.00  0.00    +0.001 A 
ATOM     11  C   UNL     1      -1.776  -7.866  -2.678  0.00  0.00    +0.017 A 
ATOM     12  C   UNL     1      -1.376  -6.574  -2.440  0.00  0.00    +0.041 A 
ATOM     13  S   UNL     1      -2.118  -4.972  -2.636  0.00  0.00    -0.052 S 
ATOM     14  H   UNL     1      -1.366  -2.063  -2.165  0.00  0.00    +0.157 HD
ENDBRANCH   1   2
BRANCH   1  16
ATOM     15  C   UNL     1       0.022   1.371   0.128  0.00  0.00    +0.005 C 
ATOM     16  C   UNL     1       0.026  -0.157   0.049  0.00  0.00    +0.020 C 
ENDBRANCH   1  16
BRANCH   1  17
ATOM     17  S   UNL     1       2.381  -0.124  -1.343  0.00  0.00    -0.072 S 
BRANCH  17  18
ATOM     18  C   UNL     1       2.863  -0.474  -3.001  0.00  0.00    +0.208 C 
ATOM     19  N   UNL     1       1.968  -0.988  -3.810  0.00  0.00    -0.227 NA
ATOM     20  C   UNL     1       2.397  -1.348  -5.159  0.00  0.00    +0.252 C 
ATOM     21  C   UNL     1       3.547  -0.413  -5.506  0.00  0.00    +0.117 C 
ATOM     22  C   UNL     1       3.253   0.086  -6.739  0.00  0.00    +0.025 A 
ATOM     23  C   UNL     1       3.982   0.914  -7.629  0.00  0.00    +0.012 A 
ATOM     24  C   UNL     1       3.382   1.250  -8.802  0.00  0.00    +0.001 A 
ATOM     25  C   UNL     1       2.102   0.833  -9.180  0.00  0.00    +0.002 A 
ATOM     26  C   UNL     1       1.317   0.033  -8.409  0.00  0.00    +0.026 A 
ATOM     27  C   UNL     1       1.887  -0.389  -7.119  0.00  0.00    +0.046 A 
ATOM     28  N   UNL     1       1.392  -1.154  -6.195  0.00  0.00    -0.358 N 
ATOM     29  N   UNL     1       4.499  -0.125  -4.613  0.00  0.00    -0.147 NA
ATOM     30  N   UNL     1       4.136  -0.190  -3.370  0.00  0.00    -0.122 NA
ATOM     31  H   UNL     1       0.499  -1.534  -6.194  0.00  0.00    +0.162 HD
ENDBRANCH  17  18
ENDBRANCH   1  17
TORSDOF 4
