REMARK  Name = ZINC11849212
REMARK  6 active torsions:
REMARK  status: ('A' for Active; 'I' for Inactive)
REMARK    1  A    between atoms: C_1  and  C_2
REMARK    2  A    between atoms: C_2  and  O_3
REMARK    3  A    between atoms: O_3  and  C_4
REMARK    4  A    between atoms: C_9  and  O_10
REMARK    5  A    between atoms: O_10  and  C_11
REMARK    6  A    between atoms: C_11  and  C_12
REMARK                            x       y       z     vdW  Elec       q    Type
REMARK                         _______ _______ _______ _____ _____    ______ ____
ROOT
ATOM      1  C   UNL     1      -2.847   1.433   2.334  0.00  0.00    +0.166 A 
ATOM      2  C   UNL     1      -2.321   2.233   3.344  0.00  0.00    +0.050 A 
ATOM      3  C   UNL     1      -3.094   2.592   4.412  0.00  0.00    +0.019 A 
ATOM      4  C   UNL     1      -4.416   2.147   4.495  0.00  0.00    +0.063 A 
ATOM      5  C   UNL     1      -4.959   1.339   3.482  0.00  0.00    +0.177 A 
ATOM      6  C   UNL     1      -4.161   0.983   2.401  0.00  0.00    +0.205 A 
ATOM      7  O   UNL     1      -6.242   0.912   3.546  0.00  0.00    -0.481 OA
ATOM      8  C   UNL     1      -6.891   0.870   4.815  0.00  0.00    +0.114 C 
ATOM      9  C   UNL     1      -8.377   0.556   4.626  0.00  0.00    +0.029 C 
ATOM     10  C   UNL     1      -8.525  -0.834   4.004  0.00  0.00    -0.079 C 
ATOM     11  C   UNL     1      -6.464  -1.581   5.035  0.00  0.00    -0.079 C 
ATOM     12  C   UNL     1      -6.251  -0.213   5.688  0.00  0.00    +0.029 C 
ATOM     13  C   UNL     1      -6.746   2.231   5.510  0.00  0.00    +0.127 C 
ATOM     14  C   UNL     1      -5.260   2.512   5.644  0.00  0.00    +0.171 C 
ATOM     15  O   UNL     1      -4.792   3.011   6.646  0.00  0.00    -0.292 OA
ATOM     16  N   UNL     1      -7.908  -1.842   4.886  0.00  0.00    +0.379 N 
ATOM     17  H   UNL     1      -8.043  -2.776   4.480  0.00  0.00    -0.086 HD
ATOM     18  H   UNL     1      -8.355  -1.803   5.810  0.00  0.00    -0.086 HD
ENDROOT
BRANCH   1  19
ATOM     19  O   UNL     1      -2.070   1.085   1.277  0.00  0.00    -0.488 OA
BRANCH  19  21
ATOM     20  C   UNL     1      -0.013   1.086   0.008  0.00  0.00    +0.048 C 
ATOM     21  C   UNL     1      -0.729   1.579   1.267  0.00  0.00    +0.226 C 
ENDBRANCH  19  21
ENDBRANCH   1  19
BRANCH   6  22
ATOM     22  O   UNL     1      -4.665   0.197   1.411  0.00  0.00    -0.485 OA
BRANCH  22  23
ATOM     23  C   UNL     1      -4.517  -1.216   1.567  0.00  0.00    +0.226 C 
ATOM     24  C   UNL     1      -5.139  -1.929   0.364  0.00  0.00    +0.048 C 
ENDBRANCH  22  23
ENDBRANCH   6  22
TORSDOF 4
