REMARK  Name = ZINC58105859
REMARK  5 active torsions:
REMARK  status: ('A' for Active; 'I' for Inactive)
REMARK    1  A    between atoms: C_10  and  N_11
REMARK    2  A    between atoms: C_12  and  C_14
REMARK    3  A    between atoms: C_14  and  C_15
REMARK    4  A    between atoms: C_15  and  C_17
REMARK    5  A    between atoms: C_15  and  N_24
REMARK                            x       y       z     vdW  Elec       q    Type
REMARK                         _______ _______ _______ _____ _____    ______ ____
ROOT
ATOM      1  C   UNL     1       7.301   0.187   0.203  0.00  0.00    +0.123 C 
ENDROOT
BRANCH   1   3
ATOM      2  N   UNL     1       4.835  -0.008   0.186  0.00  0.00    -0.285 N 
ATOM      3  C   UNL     1       6.032  -0.627   0.209  0.00  0.00    +0.219 C 
ATOM      4  O   UNL     1       6.089  -1.838   0.234  0.00  0.00    -0.275 OA
ATOM      5  H   UNL     1       4.789   0.957   0.104  0.00  0.00    +0.155 HD
BRANCH   2  15
ATOM      6  C   UNL     1       0.305   0.737   2.283  0.00  0.00    +0.001 A 
ATOM      7  C   UNL     1       1.467   1.501   2.201  0.00  0.00    +0.001 A 
ATOM      8  C   UNL     1       2.569   1.032   1.554  0.00  0.00    +0.010 A 
ATOM      9  C   UNL     1       2.538  -0.239   0.959  0.00  0.00    +0.003 A 
ATOM     10  C   UNL     1       1.356  -1.016   1.042  0.00  0.00    -0.016 A 
ATOM     11  C   UNL     1       0.238  -0.499   1.718  0.00  0.00    +0.008 A 
ATOM     12  C   UNL     1       1.323  -2.289   0.447  0.00  0.00    +0.008 A 
ATOM     13  C   UNL     1       2.422  -2.765  -0.202  0.00  0.00    +0.002 A 
ATOM     14  C   UNL     1       3.588  -2.010  -0.289  0.00  0.00    +0.024 A 
ATOM     15  C   UNL     1       3.661  -0.757   0.280  0.00  0.00    +0.041 A 
ENDBRANCH   2  15
ENDBRANCH   1   3
BRANCH   1  16
ATOM     16  C   UNL     1       8.509  -0.751   0.233  0.00  0.00    +0.113 C 
BRANCH  16  17
ATOM     17  C   UNL     1       9.775   0.056   0.103  0.00  0.00    -0.027 A 
ATOM     18  C   UNL     1      10.349   0.625   1.225  0.00  0.00    +0.006 A 
ATOM     19  C   UNL     1      11.511   1.365   1.107  0.00  0.00    +0.015 A 
ATOM     20  C   UNL     1      12.099   1.536  -0.134  0.00  0.00    +0.018 A 
ATOM     21  C   UNL     1      11.524   0.966  -1.256  0.00  0.00    +0.015 A 
ATOM     22  C   UNL     1      10.365   0.222  -1.136  0.00  0.00    +0.006 A 
ATOM     23 BR   UNL     1      13.687   2.548  -0.296  0.00  0.00    -0.050 Br
ENDBRANCH  16  17
BRANCH  16  24
ATOM     24  N   UNL     1       8.525  -1.486   1.500  0.00  0.00    -0.292 N 
ATOM     25  C   UNL     1       9.061  -2.722   1.555  0.00  0.00    +0.298 C 
ATOM     26  O   UNL     1       9.613  -3.189   0.578  0.00  0.00    -0.253 OA
ATOM     27  N   UNL     1       8.986  -3.438   2.694  0.00  0.00    -0.313 N 
ATOM     28  H   UNL     1       8.151  -1.084   2.299  0.00  0.00    +0.151 HD
ATOM     29  H   UNL     1       8.546  -3.065   3.474  0.00  0.00    +0.146 HD
ATOM     30  H   UNL     1       9.372  -4.327   2.734  0.00  0.00    +0.146 HD
ENDBRANCH  16  24
ENDBRANCH   1  16
TORSDOF 5
