REMARK  Name = ZINC39980825
REMARK  8 active torsions:
REMARK  status: ('A' for Active; 'I' for Inactive)
REMARK    1  A    between atoms: C_1  and  C_2
REMARK    2  A    between atoms: C_2  and  C_3
REMARK    3  A    between atoms: C_3  and  C_5
REMARK    4  A    between atoms: C_3  and  N_17
REMARK    5  A    between atoms: N_9  and  C_10
REMARK    6  A    between atoms: C_10  and  C_11
REMARK    7  A    between atoms: N_20  and  C_23
REMARK    8  A    between atoms: C_28  and  C_29
REMARK                            x       y       z     vdW  Elec       q    Type
REMARK                         _______ _______ _______ _____ _____    ______ ____
ROOT
ATOM      1  N   UNL     1      -0.132  -0.230  -2.556  0.00  0.00    +0.388 N 
ATOM      2  C   UNL     1       0.428  -0.915  -3.728  0.00  0.00    -0.059 C 
ATOM      3  C   UNL     1      -0.505  -0.720  -4.927  0.00  0.00    +0.086 C 
ATOM      4  N   UNL     1      -0.728   0.722  -5.115  0.00  0.00    -0.333 N 
ATOM      5  C   UNL     1      -1.135   1.519  -3.948  0.00  0.00    +0.086 C 
ATOM      6  C   UNL     1      -0.172   1.218  -2.795  0.00  0.00    -0.059 C 
ATOM      7  H   UNL     1      -1.068  -0.567  -2.388  0.00  0.00    -0.081 HD
ENDROOT
BRANCH   4   8
ATOM      8  C   UNL     1      -0.558   1.318  -6.367  0.00  0.00    +0.034 A 
ATOM      9  C   UNL     1      -1.629   1.408  -7.247  0.00  0.00    +0.043 A 
ATOM     10  C   UNL     1      -1.458   1.998  -8.484  0.00  0.00    +0.043 A 
ATOM     11  C   UNL     1      -0.219   2.498  -8.848  0.00  0.00    +0.020 A 
ATOM     12  C   UNL     1       0.849   2.410  -7.974  0.00  0.00    +0.006 A 
ATOM     13  C   UNL     1       0.682   1.826  -6.733  0.00  0.00    -0.029 A 
ATOM     14  C   UNL     1       1.845   1.737  -5.780  0.00  0.00    +0.045 C 
ATOM     15 CL   UNL     1      -2.795   2.110  -9.585  0.00  0.00    -0.083 Cl
ENDBRANCH   4   8
BRANCH   1  16
ATOM     16  C   UNL     1       0.705  -0.508  -1.381  0.00  0.00    +0.002 C 
BRANCH  16  17
ATOM     17  C   UNL     1       2.081   0.066  -1.598  0.00  0.00    +0.138 A 
ATOM     18  N   UNL     1       2.803  -0.021  -2.689  0.00  0.00    -0.115 NA
ATOM     19  N   UNL     1       3.915   0.596  -2.481  0.00  0.00    -0.023 NA
ATOM     20  N   UNL     1       3.921   1.075  -1.286  0.00  0.00    -0.044 NA
ATOM     21  N   UNL     1       2.806   0.774  -0.712  0.00  0.00    -0.228 N 
BRANCH  21  22
ATOM     22  C   UNL     1       2.404   1.132   0.651  0.00  0.00    +0.178 C 
BRANCH  22  23
ATOM     23  C   UNL     1       2.852   0.036   1.620  0.00  0.00    +0.140 C 
ATOM     24  C   UNL     1       2.518   0.438   3.079  0.00  0.00    +0.035 C 
ATOM     25  C   UNL     1       2.429  -0.957   3.755  0.00  0.00    +0.031 C 
ATOM     26  C   UNL     1       1.845  -1.833   2.626  0.00  0.00    +0.160 C 
ATOM     27  O   UNL     1       2.112  -1.172   1.382  0.00  0.00    -0.375 OA
ENDBRANCH  22  23
ENDBRANCH  21  22
ENDBRANCH  16  17
BRANCH  16  29
ATOM     28  C   UNL     1      -0.577  -2.592  -0.877  0.00  0.00    +0.002 C 
ATOM     29  C   UNL     1       0.810  -2.021  -1.177  0.00  0.00    -0.011 C 
ENDBRANCH  16  29
ENDBRANCH   1  16
TORSDOF 6
