REMARK  Name = ZINC39486377
REMARK  9 active torsions:
REMARK  status: ('A' for Active; 'I' for Inactive)
REMARK    1  A    between atoms: C_1  and  C_2
REMARK    2  A    between atoms: C_2  and  C_3
REMARK    3  A    between atoms: C_2  and  S_4
REMARK    4  A    between atoms: S_4  and  C_7
REMARK    5  A    between atoms: C_7  and  C_9
REMARK    6  A    between atoms: C_11  and  C_33
REMARK    7  A    between atoms: C_21  and  C_23
REMARK    8  A    between atoms: C_27  and  O_29
REMARK    9  A    between atoms: C_33  and  C_34
REMARK                            x       y       z     vdW  Elec       q    Type
REMARK                         _______ _______ _______ _____ _____    ______ ____
ROOT
ATOM      1  C   UNL     1      -3.082   0.995  -1.403  0.00  0.00    +0.101 C 
ATOM      2  C   UNL     1      -4.239   1.159  -0.409  0.00  0.00    +0.077 C 
ATOM      3  C   UNL     1      -4.512   2.642  -0.271  0.00  0.00    +0.168 C 
ATOM      4  O   UNL     1      -4.725   3.143   0.812  0.00  0.00    -0.292 OA
ATOM      5  C   UNL     1      -4.509   3.455  -1.500  0.00  0.00    +0.025 A 
ATOM      6  C   UNL     1      -4.990   4.769  -1.461  0.00  0.00    +0.061 A 
ATOM      7  C   UNL     1      -4.986   5.536  -2.608  0.00  0.00    +0.167 A 
ATOM      8  C   UNL     1      -4.500   4.998  -3.802  0.00  0.00    +0.167 A 
ATOM      9  C   UNL     1      -4.026   3.694  -3.837  0.00  0.00    +0.054 A 
ATOM     10  C   UNL     1      -4.028   2.916  -2.696  0.00  0.00    -0.025 A 
ATOM     11  C   UNL     1      -3.517   1.503  -2.775  0.00  0.00    +0.062 C 
ATOM     12  O   UNL     1      -4.600   5.946  -4.777  0.00  0.00    -0.453 OA
ATOM     13  C   UNL     1      -5.527   6.924  -4.271  0.00  0.00    +0.466 C 
ATOM     14  O   UNL     1      -5.391   6.819  -2.841  0.00  0.00    -0.453 OA
ENDROOT
BRANCH  11  15
ATOM     15  C   UNL     1      -2.341   1.455  -3.715  0.00  0.00    -0.036 A 
ATOM     16  C   UNL     1      -1.269   2.308  -3.526  0.00  0.00    +0.004 A 
ATOM     17  C   UNL     1      -0.188   2.266  -4.386  0.00  0.00    +0.004 A 
ATOM     18  C   UNL     1      -0.176   1.371  -5.439  0.00  0.00    +0.045 A 
ATOM     19  C   UNL     1      -1.250   0.514  -5.631  0.00  0.00    +0.117 A 
ATOM     20  C   UNL     1      -2.331   0.554  -4.762  0.00  0.00    +0.049 A 
BRANCH  19  21
ATOM     21  O   UNL     1      -1.240  -0.367  -6.666  0.00  0.00    -0.507 OA
ATOM     22  H   UNL     1      -0.850  -1.224  -6.449  0.00  0.00    +0.292 HD
ENDBRANCH  19  21
ENDBRANCH  11  15
BRANCH   1  23
ATOM     23  C   UNL     1      -2.706  -0.461  -1.502  0.00  0.00    +0.272 C 
ATOM     24  O   UNL     1      -3.301  -1.188  -2.260  0.00  0.00    -0.272 OA
BRANCH  23  25
ATOM     25  S   UNL     1      -1.397  -1.102  -0.511  0.00  0.00    +0.032 S 
ATOM     26  O   UNL     1      -1.692  -2.485  -0.372  0.00  0.00    -0.166 OA
ATOM     27  O   UNL     1      -1.355  -0.253   0.627  0.00  0.00    -0.166 OA
BRANCH  25  29
ATOM     28  C   UNL     1       0.375   0.615  -1.691  0.00  0.00    +0.032 C 
ATOM     29  C   UNL     1       0.098  -0.879  -1.513  0.00  0.00    +0.133 C 
ATOM     30  C   UNL     1       1.287  -1.537  -0.809  0.00  0.00    +0.032 C 
ENDBRANCH  25  29
ENDBRANCH  23  25
ENDBRANCH   1  23
BRANCH   2  31
ATOM     31  C   UNL     1      -3.845   0.573   0.949  0.00  0.00    +0.047 C 
BRANCH  31  32
ATOM     32  C   UNL     1      -5.053   0.534   1.849  0.00  0.00    -0.047 A 
ATOM     33  C   UNL     1      -5.349   1.616   2.655  0.00  0.00    +0.003 A 
ATOM     34  C   UNL     1      -6.458   1.580   3.481  0.00  0.00    +0.000 A 
ATOM     35  C   UNL     1      -7.270   0.462   3.499  0.00  0.00    +0.000 A 
ATOM     36  C   UNL     1      -6.974  -0.621   2.692  0.00  0.00    +0.000 A 
ATOM     37  C   UNL     1      -5.868  -0.583   1.863  0.00  0.00    +0.003 A 
ENDBRANCH  31  32
ENDBRANCH   2  31
TORSDOF 7
