REMARK  Name = ZINC05938677
REMARK  4 active torsions:
REMARK  status: ('A' for Active; 'I' for Inactive)
REMARK    1  A    between atoms: C_1  and  C_2
REMARK    2  A    between atoms: C_2  and  C_3
REMARK    3  A    between atoms: C_3  and  C_23
REMARK    4  A    between atoms: N_6  and  N_10
REMARK                            x       y       z     vdW  Elec       q    Type
REMARK                         _______ _______ _______ _____ _____    ______ ____
ROOT
ATOM      1  N   UNL     1      -1.733   4.091   0.038  0.00  0.00    -0.237 N 
ATOM      2  C   UNL     1      -2.439   4.398  -1.112  0.00  0.00    +0.147 A 
ATOM      3  C   UNL     1      -3.404   5.442  -1.109  0.00  0.00    +0.052 A 
ATOM      4  C   UNL     1      -3.792   6.326   0.002  0.00  0.00    -0.025 A 
ATOM      5  C   UNL     1      -4.736   7.246  -0.256  0.00  0.00    -0.004 A 
ATOM      6  S   UNL     1      -5.156   7.011  -1.968  0.00  0.00    -0.073 S 
ATOM      7  C   UNL     1      -4.058   5.670  -2.334  0.00  0.00    +0.114 A 
ATOM      8  N   UNL     1      -3.789   4.946  -3.404  0.00  0.00    -0.228 NA
ATOM      9  C   UNL     1      -2.886   3.986  -3.346  0.00  0.00    +0.224 A 
ATOM     10  N   UNL     1      -2.230   3.720  -2.230  0.00  0.00    -0.219 NA
ATOM     11  C   UNL     1      -5.060   8.082   0.954  0.00  0.00    +0.043 C 
ATOM     12  C   UNL     1      -4.494   7.276   2.144  0.00  0.00    +0.010 C 
ATOM     13  C   UNL     1      -3.372   6.466   1.468  0.00  0.00    +0.037 C 
ATOM     14  H   UNL     1      -1.892   4.593   0.853  0.00  0.00    +0.172 HD
ENDROOT
BRANCH   1  18
ATOM     15  C   UNL     1       1.158   1.862   0.001  0.00  0.00    +0.111 C 
ATOM     16  C   UNL     1       0.545   3.248   0.013  0.00  0.00    +0.263 C 
ATOM     17  O   UNL     1       1.132   4.309   0.014  0.00  0.00    -0.271 OA
ATOM     18  N   UNL     1      -0.789   3.056   0.025  0.00  0.00    -0.138 N 
ATOM     19  C   UNL     1      -1.101   1.755   0.016  0.00  0.00    +0.326 C 
ATOM     20  O   UNL     1      -2.240   1.333   0.019  0.00  0.00    -0.251 OA
ATOM     21  N   UNL     1      -0.011   0.966   0.007  0.00  0.00    -0.284 N 
ATOM     22  C   UNL     1       2.013   1.641   1.250  0.00  0.00    +0.041 C 
ATOM     23  H   UNL     1       0.002  -0.004   0.002  0.00  0.00    +0.151 HD
BRANCH  15  25
ATOM     24  C   UNL     1       2.402   0.183  -1.369  0.00  0.00    +0.006 C 
ATOM     25  C   UNL     1       1.990   1.653  -1.266  0.00  0.00    +0.032 C 
ENDBRANCH  15  25
ENDBRANCH   1  18
TORSDOF 2
