REMARK  Name = ZINC23410397
REMARK  5 active torsions:
REMARK  status: ('A' for Active; 'I' for Inactive)
REMARK    1  A    between atoms: C_4  and  C_7
REMARK    2  A    between atoms: C_16  and  C_24
REMARK    3  A    between atoms: C_17  and  N_23
REMARK    4  A    between atoms: C_18  and  C_19
REMARK    5  A    between atoms: C_18  and  C_21
REMARK                            x       y       z     vdW  Elec       q    Type
REMARK                         _______ _______ _______ _____ _____    ______ ____
ROOT
ATOM      1  C   UNL     1      -1.233   3.499  -0.445  0.00  0.00    +0.067 C 
ATOM      2  C   UNL     1      -0.123   4.217   0.323  0.00  0.00    +0.040 C 
ATOM      3  C   UNL     1      -0.239   5.714   0.228  0.00  0.00    +0.078 C 
ATOM      4  S   UNL     1       0.911   6.379  -1.012  0.00  0.00    -0.156 S 
ATOM      5  C   UNL     1       2.497   5.674  -0.459  0.00  0.00    +0.096 C 
ATOM      6  C   UNL     1       2.312   4.190  -0.330  0.00  0.00    -0.011 C 
ATOM      7  C   UNL     1       1.188   3.591  -0.013  0.00  0.00    -0.027 C 
ATOM      8  C   UNL     1       1.215   2.094   0.013  0.00  0.00    +0.074 C 
ATOM      9  C   UNL     1       0.051   1.405   0.024  0.00  0.00    +0.054 C 
ATOM     10  C   UNL     1      -1.303   2.049   0.029  0.00  0.00    +0.188 C 
ENDROOT
BRANCH   1  14
ATOM     11  C   UNL     1      -0.368   3.586  -4.627  0.00  0.00    +0.000 A 
ATOM     12  C   UNL     1      -1.160   4.570  -4.064  0.00  0.00    +0.000 A 
ATOM     13  C   UNL     1      -1.440   4.542  -2.711  0.00  0.00    +0.004 A 
ATOM     14  C   UNL     1      -0.928   3.530  -1.920  0.00  0.00    -0.041 A 
ATOM     15  C   UNL     1      -0.133   2.549  -2.482  0.00  0.00    +0.004 A 
ATOM     16  C   UNL     1       0.144   2.575  -3.836  0.00  0.00    +0.000 A 
ENDBRANCH   1  14
BRANCH   9  17
ATOM     17  N   UNL     1       0.112   0.040   0.026  0.00  0.00    -0.358 N 
ATOM     18  H   UNL     1      -0.814  -0.553   0.035  0.00  0.00    +0.142 HD
ATOM     19  H   UNL     1       1.089  -0.466   0.018  0.00  0.00    +0.142 HD
ENDBRANCH   9  17
BRANCH  10  20
ATOM     20  C   UNL     1      -2.200   1.292  -0.859  0.00  0.00    +0.091 C 
ATOM     21  N   UNL     1      -2.892   0.707  -1.545  0.00  0.00    -0.194 NA
ENDBRANCH  10  20
BRANCH  10  22
ATOM     22  C   UNL     1      -1.846   2.019   1.397  0.00  0.00    +0.091 C 
ATOM     23  N   UNL     1      -2.264   1.996   2.453  0.00  0.00    -0.194 NA
ENDBRANCH  10  22
BRANCH   8  24
ATOM     24  C   UNL     1       2.466   1.397   0.025  0.00  0.00    +0.101 C 
ATOM     25  N   UNL     1       3.458   0.843   0.035  0.00  0.00    -0.191 NA
ENDBRANCH   8  24
TORSDOF 5
