REMARK  Name = ZINC64084038
REMARK  10 active torsions:
REMARK  status: ('A' for Active; 'I' for Inactive)
REMARK    1  A    between atoms: C_1  and  C_2
REMARK    2  A    between atoms: C_5  and  C_32
REMARK    3  A    between atoms: C_6  and  N_8
REMARK    4  A    between atoms: C_10  and  C_21
REMARK    5  A    between atoms: C_12  and  C_15
REMARK    6  A    between atoms: C_21  and  N_22
REMARK    7  A    between atoms: N_22  and  C_23
REMARK    8  A    between atoms: N_22  and  C_24
REMARK    9  A    between atoms: C_24  and  C_25
REMARK   10  A    between atoms: C_29  and  C_31
REMARK                            x       y       z     vdW  Elec       q    Type
REMARK                         _______ _______ _______ _____ _____    ______ ____
ROOT
ATOM      1  N   UNL     1       0.236  -2.119   2.431  0.00  0.00    -0.266 N 
ATOM      2  C   UNL     1       1.181  -2.216   3.555  0.00  0.00    +0.131 C 
ATOM      3  C   UNL     1       0.590  -3.291   4.499  0.00  0.00    +0.045 C 
ATOM      4  C   UNL     1      -0.893  -3.309   4.041  0.00  0.00    +0.108 C 
ATOM      5  N   UNL     1      -0.768  -3.039   2.588  0.00  0.00    -0.232 NA
ATOM      6  H   UNL     1      -1.637  -2.694   2.208  0.00  0.00    +0.145 HD
ENDROOT
BRANCH   1  12
ATOM      7  C   UNL     1       0.669   2.506   0.827  0.00  0.00    +0.044 C 
ATOM      8  C   UNL     1       0.554   1.027   0.560  0.00  0.00    -0.049 A 
ATOM      9  C   UNL     1       0.555   0.559  -0.741  0.00  0.00    +0.004 A 
ATOM     10  C   UNL     1       0.449  -0.797  -0.991  0.00  0.00    +0.005 A 
ATOM     11  C   UNL     1       0.343  -1.688   0.059  0.00  0.00    -0.028 A 
ATOM     12  C   UNL     1       0.343  -1.221   1.367  0.00  0.00    +0.048 A 
ATOM     13  C   UNL     1       0.455   0.142   1.614  0.00  0.00    +0.028 A 
ATOM     14  C   UNL     1       0.227  -3.166  -0.214  0.00  0.00    +0.046 C 
ENDBRANCH   1  12
BRANCH   4  15
ATOM     15  C   UNL     1      -1.518  -4.658   4.290  0.00  0.00    -0.029 A 
ATOM     16  C   UNL     1      -1.284  -5.700   3.413  0.00  0.00    +0.005 A 
ATOM     17  C   UNL     1      -1.857  -6.938   3.642  0.00  0.00    +0.000 A 
ATOM     18  C   UNL     1      -2.663  -7.132   4.748  0.00  0.00    +0.000 A 
ATOM     19  C   UNL     1      -2.896  -6.090   5.626  0.00  0.00    +0.000 A 
ATOM     20  C   UNL     1      -2.319  -4.854   5.400  0.00  0.00    +0.005 A 
ENDBRANCH   4  15
BRANCH   3  21
ATOM     21  C   UNL     1       0.711  -2.863   5.963  0.00  0.00    +0.091 C 
BRANCH  21  22
ATOM     22  N   UNL     1       2.130  -2.744   6.324  0.00  0.00    -0.298 NA
ATOM     23  C   UNL     1       2.294  -1.987   7.572  0.00  0.00    +0.105 C 
BRANCH  22  24
ATOM     24  C   UNL     1       2.760  -4.067   6.423  0.00  0.00    +0.156 C 
BRANCH  24  25
ATOM     25  C   UNL     1       4.253  -3.904   6.549  0.00  0.00    +0.099 A 
ATOM     26  H   UNL     1       4.876  -5.714   7.358  0.00  0.00    +0.167 HD
ATOM     27  N   UNL     1       4.933  -2.841   6.215  0.00  0.00    -0.349 N 
ATOM     28  C   UNL     1       6.234  -3.051   6.466  0.00  0.00    +0.105 A 
ATOM     29  C   UNL     1       6.365  -4.291   6.974  0.00  0.00    +0.030 A 
ATOM     30  N   UNL     1       5.108  -4.830   7.033  0.00  0.00    -0.346 N 
ATOM     31  C   UNL     1       7.648  -4.955   7.402  0.00  0.00    +0.065 C 
ATOM     32  H   UNL     1       4.557  -2.027   5.844  0.00  0.00    +0.166 HD
ENDBRANCH  24  25
ENDBRANCH  22  24
ENDBRANCH  21  22
ENDBRANCH   3  21
TORSDOF 6
