REMARK  Name = ZINC39467025
REMARK  10 active torsions:
REMARK  status: ('A' for Active; 'I' for Inactive)
REMARK    1  A    between atoms: C_1  and  C_2
REMARK    2  A    between atoms: C_2  and  C_3
REMARK    3  A    between atoms: C_2  and  S_4
REMARK    4  A    between atoms: S_4  and  C_7
REMARK    5  A    between atoms: P_16  and  C_31
REMARK    6  A    between atoms: C_24  and  S_25
REMARK    7  A    between atoms: S_25  and  C_28
REMARK    8  A    between atoms: C_28  and  C_29
REMARK    9  A    between atoms: C_28  and  C_30
REMARK   10  A    between atoms: C_31  and  C_32
REMARK                            x       y       z     vdW  Elec       q    Type
REMARK                         _______ _______ _______ _____ _____    ______ ____
ROOT
ATOM      1  C   UNL     1       2.119  -0.106  -1.031  0.00  0.00    +0.109 C 
ATOM      2  C   UNL     1       3.147  -0.945  -0.947  0.00  0.00    +0.006 C 
ATOM      3  C   UNL     1       4.548  -0.393  -0.812  0.00  0.00    +0.023 C 
ATOM      4  C   UNL     1       4.789  -0.031   0.654  0.00  0.00    +0.031 C 
ATOM      5  C   UNL     1       6.149   0.653   0.827  0.00  0.00    +0.100 C 
ATOM      6  C   UNL     1       6.291   1.004   2.313  0.00  0.00    +0.189 C 
ATOM      7  O   UNL     1       7.567   1.625   2.546  0.00  0.00    -0.314 OA
ATOM      8  P   UNL     1       7.986   2.876   1.593  0.00  0.00    +0.289 P 
ATOM      9  O   UNL     1       9.456   3.049   1.591  0.00  0.00    -0.271 OA
ATOM     10  N   UNL     1       7.455   2.468   0.085  0.00  0.00    -0.179 NA
ATOM     11  N   UNL     1       6.223   1.853  -0.012  0.00  0.00    -0.230 NA
ATOM     12  C   UNL     1       6.010   1.534  -1.434  0.00  0.00    +0.111 C 
ATOM     13  C   UNL     1       4.657   0.873  -1.670  0.00  0.00    +0.036 C 
ATOM     14  C   UNL     1       3.556   1.827  -1.290  0.00  0.00    +0.007 C 
ATOM     15  C   UNL     1       2.354   1.347  -0.987  0.00  0.00    +0.109 C 
ATOM     16  H   UNL     1       7.989   2.657  -0.703  0.00  0.00    +0.151 HD
ENDROOT
BRANCH   1  17
ATOM     17  S   UNL     1       0.480  -0.731  -1.201  0.00  0.00    +0.001 S 
ATOM     18  O   UNL     1      -0.321   0.130  -0.404  0.00  0.00    -0.169 OA
ATOM     19  O   UNL     1       0.586  -2.114  -0.892  0.00  0.00    -0.169 OA
BRANCH  17  21
ATOM     20  C   UNL     1       0.992  -1.401  -3.804  0.00  0.00    +0.032 C 
ATOM     21  C   UNL     1       0.078  -0.513  -2.956  0.00  0.00    +0.130 C 
ATOM     22  C   UNL     1      -1.381  -0.905  -3.198  0.00  0.00    +0.032 C 
ENDBRANCH  17  21
ENDBRANCH   1  17
BRANCH  15  23
ATOM     23  S   UNL     1       1.053   2.444  -0.529  0.00  0.00    +0.001 S 
ATOM     24  O   UNL     1       0.461   1.847   0.616  0.00  0.00    -0.169 OA
ATOM     25  O   UNL     1       1.669   3.722  -0.444  0.00  0.00    -0.169 OA
BRANCH  23  26
ATOM     26  C   UNL     1      -0.105   2.401  -1.925  0.00  0.00    +0.130 C 
ATOM     27  C   UNL     1      -1.246   3.389  -1.671  0.00  0.00    +0.032 C 
ATOM     28  C   UNL     1       0.629   2.790  -3.209  0.00  0.00    +0.032 C 
ENDBRANCH  23  26
ENDBRANCH  15  23
BRANCH   8  29
ATOM     29  C   UNL     1       7.171   4.404   2.162  0.00  0.00    +0.150 C 
BRANCH  29  30
ATOM     30  C   UNL     1       7.593   4.701   3.578  0.00  0.00    -0.037 A 
ATOM     31  C   UNL     1       6.868   4.189   4.637  0.00  0.00    +0.004 A 
ATOM     32  C   UNL     1       7.255   4.461   5.936  0.00  0.00    +0.000 A 
ATOM     33  C   UNL     1       8.367   5.245   6.176  0.00  0.00    +0.000 A 
ATOM     34  C   UNL     1       9.093   5.757   5.117  0.00  0.00    +0.000 A 
ATOM     35  C   UNL     1       8.709   5.481   3.818  0.00  0.00    +0.004 A 
ENDBRANCH  29  30
ENDBRANCH   8  29
TORSDOF 6
