REMARK  Name = ZINC48908575
REMARK  4 active torsions:
REMARK  status: ('A' for Active; 'I' for Inactive)
REMARK    1  A    between atoms: C_1  and  C_2
REMARK    2  A    between atoms: C_2  and  C_4
REMARK    3  A    between atoms: C_2  and  N_11
REMARK    4  A    between atoms: N_14  and  C_15
REMARK                            x       y       z     vdW  Elec       q    Type
REMARK                         _______ _______ _______ _____ _____    ______ ____
ROOT
ATOM      1  N   UNL     1      -1.223  -0.531   0.029  0.00  0.00    -0.293 N 
ATOM      2  C   UNL     1      -1.929  -0.769  -1.094  0.00  0.00    +0.304 C 
ATOM      3  O   UNL     1      -1.440  -0.532  -2.182  0.00  0.00    -0.252 OA
ATOM      4  N   UNL     1      -3.178  -1.270  -1.011  0.00  0.00    -0.268 N 
ATOM      5  H   UNL     1      -1.613  -0.721   0.897  0.00  0.00    +0.151 HD
ATOM      6  H   UNL     1      -3.599  -1.382  -0.145  0.00  0.00    +0.156 HD
ENDROOT
BRANCH   4   7
ATOM      7  C   UNL     1      -3.866  -1.630  -2.176  0.00  0.00    +0.053 A 
ATOM      8  C   UNL     1      -3.162  -1.968  -3.324  0.00  0.00    +0.025 A 
ATOM      9  C   UNL     1      -3.844  -2.322  -4.472  0.00  0.00    +0.002 A 
ATOM     10  C   UNL     1      -5.227  -2.341  -4.479  0.00  0.00    +0.002 A 
ATOM     11  C   UNL     1      -5.932  -2.005  -3.338  0.00  0.00    +0.022 A 
ATOM     12  C   UNL     1      -5.255  -1.655  -2.184  0.00  0.00    +0.062 A 
ATOM     13 CL   UNL     1      -6.140  -1.240  -0.749  0.00  0.00    -0.082 Cl
ENDBRANCH   4   7
BRANCH   1  15
ATOM     14  C   UNL     1       0.073   1.542  -0.043  0.00  0.00    +0.033 C 
ATOM     15  C   UNL     1       0.134   0.013  -0.061  0.00  0.00    +0.103 C 
BRANCH  15  16
ATOM     16  C   UNL     1       0.949  -0.471   1.111  0.00  0.00    -0.014 A 
ATOM     17  C   UNL     1       0.319  -0.833   2.288  0.00  0.00    +0.006 A 
ATOM     18  C   UNL     1       1.066  -1.277   3.363  0.00  0.00    +0.000 A 
ATOM     19  C   UNL     1       2.442  -1.360   3.262  0.00  0.00    +0.001 A 
ATOM     20  C   UNL     1       3.072  -0.999   2.086  0.00  0.00    +0.015 A 
ATOM     21  C   UNL     1       2.325  -0.559   1.008  0.00  0.00    +0.023 A 
ATOM     22 BR   UNL     1       3.186  -0.071  -0.603  0.00  0.00    -0.050 Br
ENDBRANCH  15  16
ENDBRANCH   1  15
TORSDOF 3
