REMARK  Name = ZINC51033194
REMARK  7 active torsions:
REMARK  status: ('A' for Active; 'I' for Inactive)
REMARK    1  A    between atoms: C_1  and  C_2
REMARK    2  A    between atoms: C_6  and  O_8
REMARK    3  A    between atoms: O_8  and  C_9
REMARK    4  A    between atoms: C_9  and  C_11
REMARK    5  A    between atoms: C_9  and  C_12
REMARK    6  A    between atoms: N_14  and  C_15
REMARK    7  A    between atoms: C_19  and  N_21
REMARK                            x       y       z     vdW  Elec       q    Type
REMARK                         _______ _______ _______ _____ _____    ______ ____
ROOT
ATOM      1  C   UNL     1       0.902  -2.733   4.646  0.00  0.00    +0.258 C 
ATOM      2  O   UNL     1       1.198  -3.889   4.425  0.00  0.00    -0.271 OA
ATOM      3  N   UNL     1       1.278  -2.151   5.802  0.00  0.00    -0.282 N 
ATOM      4  H   UNL     1       0.981  -1.252   6.011  0.00  0.00    +0.155 HD
ENDROOT
BRANCH   3   5
ATOM      5  C   UNL     1       2.099  -2.843   6.699  0.00  0.00    +0.035 A 
ATOM      6  C   UNL     1       1.937  -2.666   8.068  0.00  0.00    +0.023 A 
ATOM      7  C   UNL     1       2.746  -3.349   8.955  0.00  0.00    +0.004 A 
ATOM      8  C   UNL     1       3.719  -4.210   8.484  0.00  0.00    +0.023 A 
ATOM      9  C   UNL     1       3.886  -4.392   7.117  0.00  0.00    +0.037 A 
ATOM     10  C   UNL     1       3.071  -3.712   6.224  0.00  0.00    +0.046 A 
BRANCH   9  11
ATOM     11  N   UNL     1       4.872  -5.264   6.642  0.00  0.00    -0.270 N 
ATOM     12  C   UNL     1       5.194  -6.366   7.347  0.00  0.00    +0.301 C 
ATOM     13  O   UNL     1       4.561  -6.656   8.344  0.00  0.00    -0.253 OA
ATOM     14  N   UNL     1       6.217  -7.147   6.948  0.00  0.00    -0.313 N 
ATOM     15  H   UNL     1       5.323  -5.075   5.804  0.00  0.00    +0.156 HD
ATOM     16  H   UNL     1       6.722  -6.915   6.152  0.00  0.00    +0.146 HD
ATOM     17  H   UNL     1       6.449  -7.940   7.455  0.00  0.00    +0.146 HD
ENDBRANCH   9  11
ENDBRANCH   3   5
BRANCH   1  18
ATOM     18  C   UNL     1       0.114  -1.949   3.629  0.00  0.00    +0.256 C 
ATOM     19  C   UNL     1      -1.203  -1.482   4.253  0.00  0.00    +0.062 C 
BRANCH  18  20
ATOM     20  O   UNL     1      -0.163  -2.778   2.498  0.00  0.00    -0.478 OA
BRANCH  20  26
ATOM     21  C   UNL     1      -0.463   1.363  -0.068  0.00  0.00    +0.044 C 
ATOM     22  C   UNL     1      -0.460  -0.142   0.008  0.00  0.00    -0.047 A 
ATOM     23  C   UNL     1      -0.605  -0.892  -1.145  0.00  0.00    +0.005 A 
ATOM     24  C   UNL     1      -0.603  -2.273  -1.080  0.00  0.00    +0.024 A 
ATOM     25  C   UNL     1      -0.455  -2.908   0.140  0.00  0.00    +0.083 A 
ATOM     26  C   UNL     1      -0.308  -2.157   1.298  0.00  0.00    +0.140 A 
ATOM     27  C   UNL     1      -0.306  -0.772   1.228  0.00  0.00    +0.050 A 
ATOM     28 CL   UNL     1      -0.453  -4.642   0.222  0.00  0.00    -0.080 Cl
ENDBRANCH  20  26
ENDBRANCH  18  20
ENDBRANCH   1  18
TORSDOF 5
