REMARK  Name = ZINC13566660
REMARK  6 active torsions:
REMARK  status: ('A' for Active; 'I' for Inactive)
REMARK    1  A    between atoms: C_4  and  N_17
REMARK    2  A    between atoms: C_5  and  C_7
REMARK    3  A    between atoms: N_9  and  C_10
REMARK    4  A    between atoms: C_10  and  C_11
REMARK    5  A    between atoms: C_18  and  C_20
REMARK    6  A    between atoms: C_20  and  N_21
REMARK                            x       y       z     vdW  Elec       q    Type
REMARK                         _______ _______ _______ _____ _____    ______ ____
ROOT
ATOM      1  N   UNL     1      -8.091  -0.116  -2.542  0.00  0.00    -0.284 N 
ATOM      2  C   UNL     1      -9.004  -0.087  -3.533  0.00  0.00    +0.235 C 
ATOM      3  O   UNL     1      -9.872   0.760  -3.532  0.00  0.00    -0.274 OA
ATOM      4  H   UNL     1      -7.352  -0.744  -2.582  0.00  0.00    +0.155 HD
ENDROOT
BRANCH   1   8
ATOM      5  C   UNL     1      -8.441   2.496   0.690  0.00  0.00    +0.001 A 
ATOM      6  C   UNL     1      -9.575   1.973   0.088  0.00  0.00    +0.002 A 
ATOM      7  C   UNL     1      -9.461   1.105  -0.979  0.00  0.00    +0.024 A 
ATOM      8  C   UNL     1      -8.207   0.755  -1.461  0.00  0.00    +0.046 A 
ATOM      9  C   UNL     1      -7.058   1.278  -0.851  0.00  0.00    +0.058 A 
ATOM     10  C   UNL     1      -7.189   2.155   0.228  0.00  0.00    +0.015 A 
BRANCH   9  11
ATOM     11  C   UNL     1      -5.720   0.909  -1.350  0.00  0.00    +0.246 C 
ATOM     12  O   UNL     1      -5.606   0.077  -2.229  0.00  0.00    -0.270 OA
ATOM     13  N   UNL     1      -4.622   1.495  -0.831  0.00  0.00    -0.309 N 
ATOM     14  H   UNL     1      -4.712   2.159  -0.130  0.00  0.00    +0.149 HD
BRANCH  13  15
ATOM     15  C   UNL     1      -3.293   1.129  -1.326  0.00  0.00    +0.136 C 
BRANCH  15  16
ATOM     16  C   UNL     1      -2.229   1.933  -0.576  0.00  0.00    +0.135 C 
ATOM     17  C   UNL     1      -0.838   1.649  -1.174  0.00  0.00    +0.035 C 
ATOM     18  C   UNL     1      -0.018   1.099   0.018  0.00  0.00    +0.031 C 
ATOM     19  C   UNL     1      -0.818   1.628   1.235  0.00  0.00    +0.160 C 
ATOM     20  O   UNL     1      -2.193   1.529   0.803  0.00  0.00    -0.375 OA
ENDBRANCH  15  16
ENDBRANCH  13  15
ENDBRANCH   9  11
ENDBRANCH   1   8
BRANCH   2  21
ATOM     21  C   UNL     1      -8.947  -1.107  -4.641  0.00  0.00    +0.210 C 
BRANCH  21  22
ATOM     22  N   UNL     1     -10.040  -0.863  -5.585  0.00  0.00    -0.258 N 
ATOM     23  C   UNL     1      -9.956  -0.038  -6.700  0.00  0.00    +0.046 A 
ATOM     24  C   UNL     1      -8.999   0.762  -7.297  0.00  0.00    +0.024 A 
ATOM     25  C   UNL     1      -9.306   1.468  -8.459  0.00  0.00    +0.002 A 
ATOM     26  C   UNL     1     -10.533   1.418  -9.065  0.00  0.00    +0.008 A 
ATOM     27  C   UNL     1     -11.533   0.617  -8.489  0.00  0.00    -0.015 A 
ATOM     28  C   UNL     1     -11.197  -0.079  -7.327  0.00  0.00    +0.016 A 
ATOM     29  C   UNL     1     -12.075  -0.921  -6.629  0.00  0.00    +0.047 A 
ATOM     30  C   UNL     1     -13.352  -1.054  -7.145  0.00  0.00    +0.014 A 
ATOM     31  C   UNL     1     -13.703  -0.366  -8.306  0.00  0.00    +0.001 A 
ATOM     32  C   UNL     1     -12.839   0.453  -8.981  0.00  0.00    +0.008 A 
ATOM     33  C   UNL     1     -11.278  -1.416  -5.500  0.00  0.00    +0.252 C 
ATOM     34  O   UNL     1     -11.660  -2.186  -4.638  0.00  0.00    -0.270 OA
ENDBRANCH  21  22
ENDBRANCH   2  21
TORSDOF 6
