REMARK  Name = ZINC12949640
REMARK  5 active torsions:
REMARK  status: ('A' for Active; 'I' for Inactive)
REMARK    1  A    between atoms: C_3  and  S_18
REMARK    2  A    between atoms: C_6  and  N_7
REMARK    3  A    between atoms: C_8  and  C_10
REMARK    4  A    between atoms: C_13  and  N_15
REMARK    5  A    between atoms: S_18  and  N_21
REMARK                            x       y       z     vdW  Elec       q    Type
REMARK                         _______ _______ _______ _____ _____    ______ ____
ROOT
ATOM      1  C   UNL     1      -0.013   1.374   0.194  0.00  0.00    +0.025 A 
ATOM      2  C   UNL     1       1.174   2.082   0.191  0.00  0.00    +0.031 A 
ATOM      3  C   UNL     1       2.374   1.421   0.003  0.00  0.00    +0.113 A 
ATOM      4  C   UNL     1       2.391   0.051  -0.183  0.00  0.00    +0.031 A 
ATOM      5  C   UNL     1       1.208  -0.662  -0.182  0.00  0.00    +0.025 A 
ATOM      6  C   UNL     1       0.001  -0.002   0.007  0.00  0.00    +0.034 A 
ENDROOT
BRANCH   6   7
ATOM      7  N   UNL     1      -1.198  -0.721   0.010  0.00  0.00    -0.281 N 
ATOM      8  C   UNL     1      -2.324  -0.156  -0.469  0.00  0.00    +0.255 C 
ATOM      9  O   UNL     1      -2.279   0.942  -0.992  0.00  0.00    -0.269 OA
ATOM     10  H   UNL     1      -1.220  -1.627   0.357  0.00  0.00    +0.155 HD
BRANCH   8  11
ATOM     11  C   UNL     1      -3.603  -0.864  -0.361  0.00  0.00    +0.076 A 
ATOM     12  C   UNL     1      -4.861  -0.467  -0.789  0.00  0.00    +0.023 A 
ATOM     13  C   UNL     1      -5.882  -1.354  -0.545  0.00  0.00    +0.041 A 
ATOM     14  C   UNL     1      -5.602  -2.525   0.079  0.00  0.00    +0.164 A 
ATOM     15  S   UNL     1      -3.945  -2.463   0.348  0.00  0.00    -0.060 S 
BRANCH  14  16
ATOM     16  N   UNL     1      -6.542  -3.612   0.436  0.00  0.00    +0.063 N 
ATOM     17  O   UNL     1      -7.716  -3.509   0.167  0.00  0.00    -0.126 OA
ATOM     18  O   UNL     1      -6.135  -4.603   0.996  0.00  0.00    -0.126 OA
ENDBRANCH  14  16
ENDBRANCH   8  11
ENDBRANCH   6   7
BRANCH   3  19
ATOM     19  S   UNL     1       3.885   2.327  -0.000  0.00  0.00    +0.100 S 
ATOM     20  O   UNL     1       4.821   1.554  -0.739  0.00  0.00    -0.146 OA
ATOM     21  O   UNL     1       3.556   3.664  -0.351  0.00  0.00    -0.146 OA
BRANCH  19  22
ATOM     22  N   UNL     1       4.434   2.369   1.562  0.00  0.00    -0.118 NA
ATOM     23  C   UNL     1       5.539   2.979   1.843  0.00  0.00    +0.117 C 
ATOM     24  C   UNL     1       6.336   3.667   0.737  0.00  0.00    +0.073 C 
ATOM     25  C   UNL     1       6.229   5.160   0.969  0.00  0.00    +0.008 C 
ATOM     26  C   UNL     1       7.313   5.710   1.898  0.00  0.00    +0.002 C 
ATOM     27  C   UNL     1       7.566   4.822   3.116  0.00  0.00    +0.019 C 
ATOM     28  C   UNL     1       6.295   4.296   3.747  0.00  0.00    +0.102 C 
ATOM     29  N   UNL     1       5.978   3.013   3.085  0.00  0.00    -0.331 N 
ATOM     30  H   UNL     1       6.096   2.184   3.575  0.00  0.00    +0.147 HD
ENDBRANCH  19  22
ENDBRANCH   3  19
TORSDOF 5
