REMARK  Name = ZINC52016851
REMARK  5 active torsions:
REMARK  status: ('A' for Active; 'I' for Inactive)
REMARK    1  A    between atoms: C_2  and  C_10
REMARK    2  A    between atoms: C_6  and  N_7
REMARK    3  A    between atoms: N_7  and  N_8
REMARK    4  A    between atoms: N_12  and  C_13
REMARK    5  A    between atoms: C_19  and  O_21
REMARK                            x       y       z     vdW  Elec       q    Type
REMARK                         _______ _______ _______ _____ _____    ______ ____
ROOT
ATOM      1  C   UNL     1      -0.017   1.386   0.010  0.00  0.00    +0.057 A 
ATOM      2  C   UNL     1       1.195   2.079   0.002  0.00  0.00    +0.043 A 
ATOM      3  C   UNL     1       2.381   1.337  -0.013  0.00  0.00    +0.053 A 
ATOM      4  C   UNL     1       2.313  -0.043  -0.020  0.00  0.00    +0.132 A 
ATOM      5  N   UNL     1       1.149  -0.665  -0.013  0.00  0.00    -0.220 NA
ATOM      6  C   UNL     1       0.002  -0.004   0.002  0.00  0.00    +0.134 A 
ATOM      7 CL   UNL     1       3.779  -0.972  -0.040  0.00  0.00    -0.062 Cl
ENDROOT
BRANCH   2   8
ATOM      8  C   UNL     1       1.224   3.560   0.009  0.00  0.00    +0.245 C 
ATOM      9  O   UNL     1       0.184   4.188   0.022  0.00  0.00    -0.270 OA
ATOM     10  N   UNL     1       2.405   4.211   0.001  0.00  0.00    -0.306 N 
ATOM     11  H   UNL     1       3.235   3.709  -0.009  0.00  0.00    +0.149 HD
BRANCH  10  12
ATOM     12  C   UNL     1       2.434   5.675   0.008  0.00  0.00    +0.102 C 
ATOM     13  C   UNL     1       2.331   6.181   1.449  0.00  0.00    +0.025 C 
ATOM     14  C   UNL     1       2.362   7.710   1.456  0.00  0.00    +0.002 C 
ATOM     15  C   UNL     1       3.673   8.197   0.837  0.00  0.00    +0.003 C 
ATOM     16  C   UNL     1       3.775   7.692  -0.604  0.00  0.00    +0.033 C 
ATOM     17  C   UNL     1       3.745   6.163  -0.611  0.00  0.00    +0.135 C 
BRANCH  17  18
ATOM     18  O   UNL     1       3.840   5.691  -1.957  0.00  0.00    -0.390 OA
ATOM     19  H   UNL     1       4.649   5.962  -2.412  0.00  0.00    +0.210 HD
ENDBRANCH  17  18
ENDBRANCH  10  12
ENDBRANCH   2   8
BRANCH   6  20
ATOM     20  N   UNL     1      -1.197  -0.708   0.010  0.00  0.00    -0.267 N 
ATOM     21  H   UNL     1      -2.040  -0.229   0.021  0.00  0.00    +0.167 HD
BRANCH  20  22
ATOM     22  N   UNL     1      -1.187  -2.074   0.003  0.00  0.00    -0.255 NA
ATOM     23  H   UNL     1      -2.126  -2.442   0.010  0.00  0.00    +0.140 HD
ATOM     24  H   UNL     1      -0.666  -2.427  -0.786  0.00  0.00    +0.140 HD
ENDBRANCH  20  22
ENDBRANCH   6  20
TORSDOF 5
