REMARK  Name = ZINC35966270
REMARK  11 active torsions:
REMARK  status: ('A' for Active; 'I' for Inactive)
REMARK    1  A    between atoms: C_1  and  C_2
REMARK    2  A    between atoms: C_2  and  N_3
REMARK    3  A    between atoms: C_6  and  C_11
REMARK    4  A    between atoms: C_14  and  C_18
REMARK    5  A    between atoms: C_16  and  C_17
REMARK    6  A    between atoms: N_21  and  C_23
REMARK    7  A    between atoms: C_23  and  C_25
REMARK    8  A    between atoms: C_23  and  C_28
REMARK    9  A    between atoms: C_25  and  C_26
REMARK   10  A    between atoms: C_25  and  C_27
REMARK   11  A    between atoms: N_30  and  C_31
REMARK                            x       y       z     vdW  Elec       q    Type
REMARK                         _______ _______ _______ _____ _____    ______ ____
ROOT
ATOM      1  N   UNL     1      -1.106  -1.964  -1.460  0.00  0.00    -0.257 N 
ATOM      2  C   UNL     1      -1.710  -2.289  -2.642  0.00  0.00    +0.042 C 
ATOM      3  C   UNL     1      -1.639  -3.539  -3.142  0.00  0.00    +0.058 C 
ATOM      4  C   UNL     1      -0.866  -4.573  -2.348  0.00  0.00    +0.142 C 
ATOM      5  N   UNL     1      -0.253  -4.123  -1.087  0.00  0.00    -0.288 N 
ATOM      6  C   UNL     1      -0.408  -2.836  -0.721  0.00  0.00    +0.307 C 
ATOM      7  O   UNL     1       0.099  -2.454   0.316  0.00  0.00    -0.252 OA
ATOM      8  C   UNL     1      -2.338  -3.619  -4.363  0.00  0.00    +0.247 C 
ATOM      9  O   UNL     1      -2.439  -4.630  -5.034  0.00  0.00    -0.270 OA
ATOM     10  N   UNL     1      -2.881  -2.433  -4.691  0.00  0.00    -0.280 N 
ATOM     11  C   UNL     1      -2.528  -1.483  -3.625  0.00  0.00    +0.160 C 
ATOM     12  H   UNL     1       0.254  -4.739  -0.534  0.00  0.00    +0.151 HD
ENDROOT
BRANCH   4  13
ATOM     13  C   UNL     1       0.229  -5.113  -3.230  0.00  0.00    -0.020 A 
ATOM     14  C   UNL     1       0.632  -4.403  -4.346  0.00  0.00    +0.006 A 
ATOM     15  C   UNL     1       1.637  -4.898  -5.155  0.00  0.00    +0.004 A 
ATOM     16  C   UNL     1       2.240  -6.104  -4.849  0.00  0.00    -0.050 A 
ATOM     17  C   UNL     1       1.838  -6.814  -3.733  0.00  0.00    +0.007 A 
ATOM     18  C   UNL     1       0.836  -6.316  -2.921  0.00  0.00    -0.045 A 
ATOM     19  C   UNL     1       0.401  -7.088  -1.702  0.00  0.00    +0.044 C 
ATOM     20  C   UNL     1       3.335  -6.645  -5.732  0.00  0.00    +0.044 C 
ENDBRANCH   4  13
BRANCH   1  22
ATOM     21  C   UNL     1      -0.066   0.248  -1.528  0.00  0.00    +0.025 C 
ATOM     22  C   UNL     1      -1.225  -0.586  -0.978  0.00  0.00    +0.111 C 
ENDBRANCH   1  22
BRANCH  10  23
ATOM     23  C   UNL     1      -3.674  -2.140  -5.888  0.00  0.00    +0.165 C 
BRANCH  23  24
ATOM     24  C   UNL     1      -5.023  -1.607  -5.478  0.00  0.00    +0.234 C 
ATOM     25  O   UNL     1      -5.295  -1.484  -4.303  0.00  0.00    -0.274 OA
ATOM     26  N   UNL     1      -5.927  -1.268  -6.418  0.00  0.00    -0.311 N 
ATOM     27  H   UNL     1      -5.710  -1.367  -7.358  0.00  0.00    +0.149 HD
BRANCH  26  28
ATOM     28  C   UNL     1      -7.238  -0.750  -6.020  0.00  0.00    +0.073 C 
ATOM     29  C   UNL     1      -8.464  -1.287  -6.761  0.00  0.00    +0.024 C 
ATOM     30  C   UNL     1      -7.979   0.141  -7.020  0.00  0.00    +0.024 C 
ENDBRANCH  26  28
ENDBRANCH  23  24
BRANCH  23  31
ATOM     31  C   UNL     1      -2.949  -1.095  -6.737  0.00  0.00    +0.012 C 
ATOM     32  C   UNL     1      -2.894   0.232  -5.977  0.00  0.00    +0.009 C 
ATOM     33  C   UNL     1      -1.526  -1.574  -7.031  0.00  0.00    +0.009 C 
ENDBRANCH  23  31
ENDBRANCH  10  23
TORSDOF 6
