REMARK  Name = ZINC04944456
REMARK  4 active torsions:
REMARK  status: ('A' for Active; 'I' for Inactive)
REMARK    1  A    between atoms: C_2  and  C_3
REMARK    2  A    between atoms: C_3  and  S_4
REMARK    3  A    between atoms: S_4  and  C_5
REMARK    4  A    between atoms: C_17  and  C_19
REMARK                            x       y       z     vdW  Elec       q    Type
REMARK                         _______ _______ _______ _____ _____    ______ ____
ROOT
ATOM      1  C   UNL     1       3.071  -2.467   1.357  0.00  0.00    +0.171 A 
ATOM      2  N   UNL     1       3.524  -3.269   2.361  0.00  0.00    -0.302 N 
ATOM      3  H   UNL     1       2.987  -3.398   3.159  0.00  0.00    +0.171 HD
ATOM      4  C   UNL     1       4.721  -3.885   2.246  0.00  0.00    +0.258 A 
ATOM      5  O   UNL     1       5.138  -4.606   3.138  0.00  0.00    -0.267 OA
ATOM      6  C   UNL     1       5.470  -3.681   1.085  0.00  0.00    +0.065 A 
ATOM      7  C   UNL     1       4.966  -2.857   0.093  0.00  0.00    +0.137 A 
ATOM      8  N   UNL     1       3.773  -2.276   0.259  0.00  0.00    -0.208 NA
ATOM      9  N   UNL     1       5.694  -2.643  -1.065  0.00  0.00    -0.270 N 
ATOM     10  C   UNL     1       7.013  -2.908  -1.105  0.00  0.00    +0.219 C 
ATOM     11  O   UNL     1       7.628  -2.728  -2.135  0.00  0.00    -0.275 OA
ATOM     12  C   UNL     1       7.734  -3.424   0.111  0.00  0.00    +0.109 C 
ATOM     13  C   UNL     1       6.809  -4.344   0.910  0.00  0.00    +0.066 C 
ATOM     14  H   UNL     1       5.250  -2.299  -1.856  0.00  0.00    +0.156 HD
ENDROOT
BRANCH  13  15
ATOM     15  C   UNL     1       6.633  -5.644   0.168  0.00  0.00    -0.036 A 
ATOM     16  C   UNL     1       6.095  -5.644  -1.106  0.00  0.00    +0.008 A 
ATOM     17  C   UNL     1       5.932  -6.834  -1.790  0.00  0.00    +0.050 A 
ATOM     18  C   UNL     1       6.306  -8.030  -1.200  0.00  0.00    +0.166 A 
ATOM     19  C   UNL     1       6.847  -8.030   0.083  0.00  0.00    +0.167 A 
ATOM     20  C   UNL     1       7.014  -6.834   0.761  0.00  0.00    +0.053 A 
ATOM     21  O   UNL     1       7.131  -9.318   0.437  0.00  0.00    -0.453 OA
ATOM     22  C   UNL     1       6.383 -10.142  -0.477  0.00  0.00    +0.466 C 
ATOM     23  O   UNL     1       6.251  -9.318  -1.651  0.00  0.00    -0.453 OA
ENDBRANCH  13  15
BRANCH   1  24
ATOM     24  S   UNL     1       1.507  -1.674   1.529  0.00  0.00    -0.084 S 
BRANCH  24  25
ATOM     25  C   UNL     1       1.317  -0.740  -0.015  0.00  0.00    +0.104 C 
BRANCH  25  27
ATOM     26  C   UNL     1      -0.016   1.306   0.009  0.00  0.00    +0.005 C 
ATOM     27  C   UNL     1       0.002  -0.004   0.002  0.00  0.00    -0.023 C 
ENDBRANCH  25  27
ENDBRANCH  24  25
ENDBRANCH   1  24
TORSDOF 4
