REMARK  Name = ZINC21782967
REMARK  13 active torsions:
REMARK  status: ('A' for Active; 'I' for Inactive)
REMARK    1  A    between atoms: C_1  and  C_2
REMARK    2  A    between atoms: C_4  and  C_34
REMARK    3  A    between atoms: C_5  and  C_9
REMARK    4  A    between atoms: C_6  and  O_8
REMARK    5  A    between atoms: N_17  and  C_30
REMARK    6  A    between atoms: C_18  and  C_20
REMARK    7  A    between atoms: C_23  and  O_28
REMARK    8  A    between atoms: C_24  and  O_26
REMARK    9  A    between atoms: O_26  and  C_27
REMARK   10  A    between atoms: O_28  and  C_29
REMARK   11  A    between atoms: C_30  and  C_31
REMARK   12  A    between atoms: C_31  and  O_32
REMARK   13  A    between atoms: O_32  and  C_33
REMARK                            x       y       z     vdW  Elec       q    Type
REMARK                         _______ _______ _______ _____ _____    ______ ____
ROOT
ATOM      1  C   UNL     1      -0.773  -3.588   0.381  0.00  0.00    +0.102 A 
ATOM      2  C   UNL     1      -0.631  -4.489   1.441  0.00  0.00    +0.035 A 
ATOM      3  C   UNL     1      -0.478  -5.733   0.860  0.00  0.00    +0.126 A 
ATOM      4  N   UNL     1      -0.533  -5.531  -0.490  0.00  0.00    -0.272 N 
ATOM      5  H   UNL     1      -0.455  -6.227  -1.161  0.00  0.00    +0.189 HD
ATOM      6  N   UNL     1      -0.709  -4.282  -0.738  0.00  0.00    -0.173 NA
ATOM      7  C   UNL     1      -0.325  -6.731   1.925  0.00  0.00    +0.266 C 
ATOM      8  O   UNL     1      -0.171  -7.923   1.743  0.00  0.00    -0.268 OA
ATOM      9  N   UNL     1      -0.379  -6.139   3.132  0.00  0.00    -0.283 N 
ATOM     10  C   UNL     1      -0.574  -4.697   2.930  0.00  0.00    +0.141 C 
ENDROOT
BRANCH   1  15
ATOM     11  C   UNL     1      -1.516   2.110   0.820  0.00  0.00    +0.044 C 
ATOM     12  C   UNL     1      -1.323   0.620   0.707  0.00  0.00    -0.047 A 
ATOM     13  C   UNL     1      -0.348   0.113  -0.133  0.00  0.00    +0.007 A 
ATOM     14  C   UNL     1      -0.165  -1.251  -0.242  0.00  0.00    -0.037 A 
ATOM     15  C   UNL     1      -0.965  -2.120   0.495  0.00  0.00    +0.047 A 
ATOM     16  C   UNL     1      -1.949  -1.605   1.343  0.00  0.00    +0.127 A 
ATOM     17  C   UNL     1      -2.119  -0.234   1.447  0.00  0.00    +0.049 A 
ATOM     18  C   UNL     1       0.898  -1.799  -1.159  0.00  0.00    +0.044 C 
BRANCH  16  19
ATOM     19  O   UNL     1      -2.734  -2.446   2.066  0.00  0.00    -0.506 OA
ATOM     20  H   UNL     1      -2.427  -2.589   2.972  0.00  0.00    +0.292 HD
ENDBRANCH  16  19
ENDBRANCH   1  15
BRANCH  10  21
ATOM     21  C   UNL     1       0.584  -3.930   3.516  0.00  0.00    -0.019 A 
ATOM     22  C   UNL     1       1.866  -4.156   3.053  0.00  0.00    +0.009 A 
ATOM     23  C   UNL     1       2.931  -3.454   3.587  0.00  0.00    +0.050 A 
ATOM     24  C   UNL     1       2.714  -2.523   4.589  0.00  0.00    +0.162 A 
ATOM     25  C   UNL     1       1.423  -2.295   5.056  0.00  0.00    +0.162 A 
ATOM     26  C   UNL     1       0.359  -2.998   4.512  0.00  0.00    +0.055 A 
BRANCH  25  27
ATOM     27  O   UNL     1       1.204  -1.382   6.039  0.00  0.00    -0.491 OA
ATOM     28  C   UNL     1      -0.147  -1.201   6.468  0.00  0.00    +0.277 C 
ENDBRANCH  25  27
BRANCH  24  29
ATOM     29  O   UNL     1       3.760  -1.832   5.117  0.00  0.00    -0.491 OA
ATOM     30  C   UNL     1       5.057  -2.118   4.590  0.00  0.00    +0.277 C 
ENDBRANCH  24  29
ENDBRANCH  10  21
BRANCH   9  31
ATOM     31  C   UNL     1      -0.265  -6.817   4.426  0.00  0.00    +0.137 C 
BRANCH  31  32
ATOM     32  C   UNL     1       1.213  -7.024   4.764  0.00  0.00    +0.178 C 
BRANCH  32  33
ATOM     33  O   UNL     1       1.820  -5.760   5.040  0.00  0.00    -0.381 OA
ATOM     34  C   UNL     1       3.164  -5.853   5.516  0.00  0.00    +0.194 C 
ENDBRANCH  32  33
ENDBRANCH  31  32
ENDBRANCH   9  31
TORSDOF 8
