REMARK  Name = ZINC62085214
REMARK  5 active torsions:
REMARK  status: ('A' for Active; 'I' for Inactive)
REMARK    1  A    between atoms: C_1  and  S_2
REMARK    2  A    between atoms: S_2  and  N_5
REMARK    3  A    between atoms: N_8  and  C_11
REMARK    4  A    between atoms: C_12  and  C_19
REMARK    5  A    between atoms: C_19  and  O_20
REMARK                            x       y       z     vdW  Elec       q    Type
REMARK                         _______ _______ _______ _____ _____    ______ ____
ROOT
ATOM      1  C   UNL     1       2.865  -0.195  -4.867  0.00  0.00    +0.146 A 
ATOM      2  C   UNL     1       3.206   0.658  -5.856  0.00  0.00    +0.091 A 
ATOM      3  N   UNL     1       3.739  -0.100  -6.902  0.00  0.00    -0.293 N 
ATOM      4  C   UNL     1       4.263   0.108  -8.159  0.00  0.00    +0.101 A 
ATOM      5  C   UNL     1       4.690  -0.914  -8.899  0.00  0.00    +0.067 A 
ATOM      6  S   UNL     1       4.368  -2.305  -7.825  0.00  0.00    -0.058 S 
ATOM      7  C   UNL     1       3.682  -1.395  -6.460  0.00  0.00    +0.179 A 
ATOM      8  N   UNL     1       3.172  -1.442  -5.262  0.00  0.00    -0.206 NA
ENDROOT
BRANCH   1  12
ATOM      9  N   UNL     1       1.299  -0.363  -1.145  0.00  0.00    -0.178 NA
ATOM     10  C   UNL     1       0.447  -0.700  -2.294  0.00  0.00    +0.128 C 
ATOM     11  C   UNL     1       0.835   0.203  -3.472  0.00  0.00    +0.123 C 
ATOM     12  N   UNL     1       2.294   0.161  -3.635  0.00  0.00    -0.311 N 
ATOM     13  C   UNL     1       3.146   0.498  -2.486  0.00  0.00    +0.123 C 
ATOM     14  C   UNL     1       2.759  -0.400  -1.310  0.00  0.00    +0.128 C 
BRANCH   9  16
ATOM     15  C   UNL     1       0.421   1.857   0.226  0.00  0.00    +0.215 C 
ATOM     16  S   UNL     1       0.625   0.056   0.309  0.00  0.00    +0.029 S 
ATOM     17  O   UNL     1       1.610  -0.281   1.276  0.00  0.00    -0.158 OA
ATOM     18  O   UNL     1      -0.646  -0.580   0.317  0.00  0.00    -0.158 OA
ENDBRANCH   9  16
ENDBRANCH   1  12
BRANCH   2  19
ATOM     19  C   UNL     1       3.042   2.156  -5.835  0.00  0.00    +0.213 C 
BRANCH  19  20
ATOM     20  O   UNL     1       1.758   2.501  -6.360  0.00  0.00    -0.389 OA
ATOM     21  H   UNL     1       1.583   3.452  -6.377  0.00  0.00    +0.210 HD
ENDBRANCH  19  20
ENDBRANCH   2  19
TORSDOF 4
