REMARK  Name = ZINC41630019
REMARK  7 active torsions:
REMARK  status: ('A' for Active; 'I' for Inactive)
REMARK    1  A    between atoms: C_1  and  C_2
REMARK    2  A    between atoms: C_5  and  N_25
REMARK    3  A    between atoms: C_7  and  S_8
REMARK    4  A    between atoms: S_8  and  N_11
REMARK    5  A    between atoms: N_11  and  C_12
REMARK    6  A    between atoms: C_12  and  C_13
REMARK    7  A    between atoms: C_13  and  C_14
REMARK                            x       y       z     vdW  Elec       q    Type
REMARK                         _______ _______ _______ _____ _____    ______ ____
ROOT
ATOM      1  N   UNL     1       1.176   1.029   2.916  0.00  0.00    -0.190 NA
ATOM      2  H   UNL     1       1.876   0.858   3.566  0.00  0.00    +0.148 HD
ENDROOT
BRANCH   1   3
ATOM      3  S   UNL     1      -0.065  -0.052   2.732  0.00  0.00    +0.059 S 
ATOM      4  O   UNL     1      -1.269   0.700   2.788  0.00  0.00    -0.153 OA
ATOM      5  O   UNL     1       0.202  -1.130   3.618  0.00  0.00    -0.153 OA
BRANCH   3  12
ATOM      6  C   UNL     1       2.239  -1.737   1.729  0.00  0.00    +0.046 C 
ATOM      7  C   UNL     1       1.143  -1.463   0.732  0.00  0.00    -0.024 A 
ATOM      8  C   UNL     1       1.229  -1.978  -0.548  0.00  0.00    +0.007 A 
ATOM      9  C   UNL     1       0.224  -1.726  -1.463  0.00  0.00    +0.033 A 
ATOM     10  C   UNL     1      -0.868  -0.961  -1.098  0.00  0.00    +0.128 A 
ATOM     11  C   UNL     1      -0.955  -0.447   0.182  0.00  0.00    +0.061 A 
ATOM     12  C   UNL     1       0.049  -0.702   1.099  0.00  0.00    +0.110 A 
BRANCH  10  13
ATOM     13  N   UNL     1      -1.944  -0.691  -2.078  0.00  0.00    +0.056 N 
ATOM     14  O   UNL     1      -1.868  -1.140  -3.198  0.00  0.00    -0.126 OA
ATOM     15  O   UNL     1      -2.899  -0.021  -1.759  0.00  0.00    -0.126 OA
ENDBRANCH  10  13
ENDBRANCH   3  12
ENDBRANCH   1   3
BRANCH   1  16
ATOM     16  C   UNL     1       1.217   2.244   2.098  0.00  0.00    +0.110 C 
BRANCH  16  17
ATOM     17  C   UNL     1       2.207   3.237   2.709  0.00  0.00    +0.056 C 
BRANCH  17  18
ATOM     18  C   UNL     1       2.249   4.487   1.868  0.00  0.00    -0.001 A 
ATOM     19  C   UNL     1       3.212   4.627   0.888  0.00  0.00    +0.045 A 
ATOM     20  C   UNL     1       3.252   5.775   0.115  0.00  0.00    +0.124 A 
ATOM     21  C   UNL     1       2.327   6.784   0.324  0.00  0.00    +0.047 A 
ATOM     22  C   UNL     1       1.362   6.646   1.305  0.00  0.00    +0.023 A 
ATOM     23  C   UNL     1       1.316   5.494   2.074  0.00  0.00    +0.132 A 
ATOM     24  O   UNL     1       0.363   5.340   3.032  0.00  0.00    -0.466 OA
ATOM     25  C   UNL     1      -0.330   6.519   3.449  0.00  0.00    +0.394 C 
ATOM     26  O   UNL     1      -0.744   7.243   2.284  0.00  0.00    -0.339 OA
ATOM     27  C   UNL     1       0.362   7.753   1.527  0.00  0.00    +0.202 C 
ATOM     28  F   UNL     1       4.194   5.912  -0.844  0.00  0.00    -0.205 F 
ENDBRANCH  17  18
ENDBRANCH  16  17
ENDBRANCH   1  16
TORSDOF 6
