REMARK  Name = ZINC06239463
REMARK  9 active torsions:
REMARK  status: ('A' for Active; 'I' for Inactive)
REMARK    1  A    between atoms: C_1  and  O_2
REMARK    2  A    between atoms: O_2  and  C_3
REMARK    3  A    between atoms: C_7  and  C_17
REMARK    4  A    between atoms: C_14  and  O_15
REMARK    5  A    between atoms: O_15  and  C_16
REMARK    6  A    between atoms: C_17  and  C_19
REMARK    7  A    between atoms: C_17  and  N_70
REMARK    8  A    between atoms: N_23  and  C_24
REMARK    9  A    between atoms: C_31  and  C_34
REMARK                            x       y       z     vdW  Elec       q    Type
REMARK                         _______ _______ _______ _____ _____    ______ ____
ROOT
ATOM      1  C   UNL     1      -1.416   3.638  -2.351  0.00  0.00    +0.039 C 
ENDROOT
BRANCH   1   6
ATOM      2  C   UNL     1      -4.801   8.829  -2.395  0.00  0.00    +0.162 A 
ATOM      3  C   UNL     1      -4.540   7.496  -2.623  0.00  0.00    +0.059 A 
ATOM      4  C   UNL     1      -3.296   6.962  -2.266  0.00  0.00    +0.002 A 
ATOM      5  C   UNL     1      -2.985   5.552  -2.499  0.00  0.00    +0.017 A 
ATOM      6  C   UNL     1      -1.765   5.087  -2.130  0.00  0.00    +0.011 A 
ATOM      7  C   UNL     1      -0.821   5.954  -1.544  0.00  0.00    +0.251 A 
ATOM      8  O   UNL     1       0.271   5.516  -1.224  0.00  0.00    -0.268 OA
ATOM      9  N   UNL     1      -1.094   7.253  -1.329  0.00  0.00    -0.322 N 
ATOM     10  H   UNL     1      -0.421   7.822  -0.923  0.00  0.00    +0.169 HD
ATOM     11  C   UNL     1      -2.318   7.788  -1.677  0.00  0.00    +0.053 A 
ATOM     12  C   UNL     1      -2.597   9.131  -1.454  0.00  0.00    +0.075 A 
ATOM     13  C   UNL     1      -3.829   9.648  -1.810  0.00  0.00    +0.163 A 
BRANCH   2  15
ATOM     14  C   UNL     1      -6.955   8.462  -3.334  0.00  0.00    +0.277 C 
ATOM     15  O   UNL     1      -6.008   9.352  -2.741  0.00  0.00    -0.491 OA
ENDBRANCH   2  15
BRANCH  13  16
ATOM     16  O   UNL     1      -4.098  10.961  -1.591  0.00  0.00    -0.491 OA
ATOM     17  C   UNL     1      -3.063  11.743  -0.990  0.00  0.00    +0.277 C 
ENDBRANCH  13  16
ENDBRANCH   1   6
BRANCH   1  23
ATOM     18  C   UNL     1      -0.751   1.592  -1.234  0.00  0.00    -0.072 C 
ATOM     19  C   UNL     1      -0.013   1.086   0.008  0.00  0.00    +0.017 C 
ATOM     20  C   UNL     1      -0.715   1.570   1.246  0.00  0.00    -0.048 C 
ATOM     21  C   UNL     1      -1.587   2.553   1.230  0.00  0.00    -0.041 C 
ATOM     22  C   UNL     1      -1.975   3.282  -0.023  0.00  0.00    -0.049 C 
ATOM     23  N   UNL     1      -0.966   3.045  -1.071  0.00  0.00    +0.392 N 
ATOM     24  H   UNL     1      -0.082   3.485  -0.792  0.00  0.00    -0.080 HD
BRANCH  20  25
ATOM     25  C   UNL     1      -0.410   0.914   2.535  0.00  0.00    -0.022 A 
ATOM     26  C   UNL     1       0.870   1.006   3.083  0.00  0.00    +0.011 A 
ATOM     27  C   UNL     1       1.146   0.398   4.290  0.00  0.00    +0.039 A 
ATOM     28  C   UNL     1       0.159  -0.315   4.952  0.00  0.00    +0.123 A 
ATOM     29  C   UNL     1      -1.112  -0.415   4.409  0.00  0.00    +0.039 A 
ATOM     30  C   UNL     1      -1.401   0.195   3.206  0.00  0.00    +0.011 A 
ATOM     31  F   UNL     1       0.437  -0.913   6.131  0.00  0.00    -0.205 F 
ENDBRANCH  20  25
ENDBRANCH   1  23
BRANCH   1  32
ATOM     32  C   UNL     1      -0.297   3.539  -3.357  0.00  0.00    +0.143 A 
ATOM     33  N   UNL     1       0.969   3.807  -3.148  0.00  0.00    -0.115 NA
ATOM     34  N   UNL     1       1.606   3.601  -4.248  0.00  0.00    -0.023 NA
ATOM     35  N   UNL     1       0.780   3.208  -5.154  0.00  0.00    -0.044 NA
ATOM     36  N   UNL     1      -0.403   3.152  -4.641  0.00  0.00    -0.227 N 
BRANCH  36  37
ATOM     37  C   UNL     1      -1.631   2.747  -5.330  0.00  0.00    +0.111 C 
ATOM     38  C   UNL     1      -1.477   1.318  -5.890  0.00  0.00    +0.027 C 
ATOM     39  C   UNL     1      -2.228   1.359  -7.245  0.00  0.00    +0.002 C 
ATOM     40  C   UNL     1      -1.880   2.767  -7.788  0.00  0.00    +0.002 C 
ATOM     41  C   UNL     1      -1.888   3.668  -6.535  0.00  0.00    +0.027 C 
ENDBRANCH  36  37
ENDBRANCH   1  32
TORSDOF 7
