REMARK  Name = ZINC37440247
REMARK  3 active torsions:
REMARK  status: ('A' for Active; 'I' for Inactive)
REMARK    1  A    between atoms: C_1  and  N_2
REMARK    2  A    between atoms: C_10  and  C_11
REMARK    3  A    between atoms: C_11  and  C_12
REMARK                            x       y       z     vdW  Elec       q    Type
REMARK                         _______ _______ _______ _____ _____    ______ ____
ROOT
ATOM      1  C   UNL     1      -0.018   1.461   0.010  0.00  0.00    +0.150 C 
ATOM      2  N   UNL     1       0.002  -0.004   0.002  0.00  0.00    -0.330 N 
ATOM      3  C   UNL     1       0.009  -0.817  -1.115  0.00  0.00    +0.069 A 
ATOM      4  C   UNL     1      -0.001  -0.578  -2.482  0.00  0.00    +0.029 A 
ATOM      5  C   UNL     1       0.009  -1.637  -3.364  0.00  0.00    +0.022 A 
ATOM      6  C   UNL     1       0.029  -2.944  -2.894  0.00  0.00    +0.043 A 
ATOM      7  C   UNL     1       0.038  -3.199  -1.541  0.00  0.00    +0.050 A 
ATOM      8  C   UNL     1       0.028  -2.136  -0.634  0.00  0.00    +0.091 A 
ATOM      9  N   UNL     1       0.033  -2.063   0.722  0.00  0.00    -0.232 NA
ATOM     10  C   UNL     1       0.024  -0.816   1.093  0.00  0.00    +0.116 A 
ATOM     11 CL   UNL     1       0.041  -4.264  -4.020  0.00  0.00    -0.083 Cl
ENDROOT
BRANCH  10  12
ATOM     12  C   UNL     1       0.030  -0.341   2.523  0.00  0.00    +0.130 C 
BRANCH  12  13
ATOM     13  C   UNL     1      -1.388  -0.202   3.013  0.00  0.00    +0.058 A 
ATOM     14  C   UNL     1      -1.813  -0.830   4.135  0.00  0.00    +0.072 A 
ATOM     15  S   UNL     1      -3.516  -0.296   4.191  0.00  0.00    -0.061 S 
ATOM     16  C   UNL     1      -3.508   0.655   2.803  0.00  0.00    +0.156 A 
ATOM     17  N   UNL     1      -2.270   0.543   2.370  0.00  0.00    -0.230 NA
ATOM     18  N   UNL     1      -4.550   1.384   2.252  0.00  0.00    -0.338 N 
ATOM     19  H   UNL     1      -5.421   1.384   2.679  0.00  0.00    +0.144 HD
ATOM     20  H   UNL     1      -4.409   1.895   1.440  0.00  0.00    +0.144 HD
ENDBRANCH  12  13
ENDBRANCH  10  12
TORSDOF 2
