REMARK  Name = ZINC05377006
REMARK  2 active torsions:
REMARK  status: ('A' for Active; 'I' for Inactive)
REMARK    1  A    between atoms: C_10  and  N_11
REMARK    2  A    between atoms: C_17  and  C_18
REMARK                            x       y       z     vdW  Elec       q    Type
REMARK                         _______ _______ _______ _____ _____    ______ ____
ROOT
ATOM      1  N   UNL     1      -1.650   3.424  -1.885  0.00  0.00    -0.225 NA
ATOM      2  C   UNL     1      -2.755   4.039  -1.521  0.00  0.00    +0.166 C 
ATOM      3  N   UNL     1      -3.017   5.391  -1.505  0.00  0.00    -0.260 N 
ATOM      4  C   UNL     1      -4.194   5.845  -1.111  0.00  0.00    +0.256 C 
ATOM      5  O   UNL     1      -4.445   7.036  -1.095  0.00  0.00    -0.269 OA
ATOM      6  C   UNL     1      -5.189   4.841  -0.683  0.00  0.00    +0.078 C 
ATOM      7  C   UNL     1      -6.456   5.023  -0.232  0.00  0.00    +0.028 C 
ATOM      8  S   UNL     1      -4.276   3.324  -0.920  0.00  0.00    -0.049 S 
ATOM      9  H   UNL     1      -2.332   6.016  -1.789  0.00  0.00    +0.157 HD
ENDROOT
BRANCH   1  19
ATOM     10  C   UNL     1       0.134  -0.336  -4.801  0.00  0.00    +0.001 A 
ATOM     11  C   UNL     1       0.046   1.043  -4.973  0.00  0.00    +0.001 A 
ATOM     12  C   UNL     1      -0.493   1.837  -4.005  0.00  0.00    +0.010 A 
ATOM     13  C   UNL     1      -0.966   1.259  -2.821  0.00  0.00    +0.008 A 
ATOM     14  C   UNL     1      -0.879  -0.144  -2.643  0.00  0.00    -0.016 A 
ATOM     15  C   UNL     1      -0.316  -0.931  -3.662  0.00  0.00    +0.008 A 
ATOM     16  C   UNL     1      -1.354  -0.720  -1.453  0.00  0.00    +0.008 A 
ATOM     17  C   UNL     1      -1.896   0.056  -0.474  0.00  0.00    +0.003 A 
ATOM     18  C   UNL     1      -2.002   1.433  -0.605  0.00  0.00    +0.028 A 
ATOM     19  C   UNL     1      -1.548   2.071  -1.754  0.00  0.00    +0.074 A 
ENDBRANCH   1  19
BRANCH   7  20
ATOM     20  C   UNL     1      -7.351   3.869  -0.071  0.00  0.00    -0.024 A 
ATOM     21  C   UNL     1      -6.981   2.616  -0.576  0.00  0.00    +0.011 A 
ATOM     22  C   UNL     1      -7.822   1.537  -0.416  0.00  0.00    +0.039 A 
ATOM     23  C   UNL     1      -9.039   1.692   0.233  0.00  0.00    +0.123 A 
ATOM     24  C   UNL     1      -9.414   2.931   0.730  0.00  0.00    +0.039 A 
ATOM     25  C   UNL     1      -8.580   4.017   0.583  0.00  0.00    +0.011 A 
ATOM     26  F   UNL     1      -9.861   0.630   0.380  0.00  0.00    -0.205 F 
ENDBRANCH   7  20
TORSDOF 2
