REMARK  Name = ZINC59266662
REMARK  7 active torsions:
REMARK  status: ('A' for Active; 'I' for Inactive)
REMARK    1  A    between atoms: C_4  and  C_20
REMARK    2  A    between atoms: C_5  and  C_7
REMARK    3  A    between atoms: C_7  and  C_8
REMARK    4  A    between atoms: C_20  and  O_22
REMARK    5  A    between atoms: O_22  and  C_23
REMARK    6  A    between atoms: C_23  and  C_24
REMARK    7  A    between atoms: C_27  and  C_29
REMARK                            x       y       z     vdW  Elec       q    Type
REMARK                         _______ _______ _______ _____ _____    ______ ____
ROOT
ATOM      1  C   UNL     1      -0.052   1.274  -0.213  0.00  0.00    +0.000 A 
ATOM      2  C   UNL     1       1.047   2.087   0.003  0.00  0.00    +0.001 A 
ATOM      3  C   UNL     1       2.291   1.528   0.211  0.00  0.00    +0.015 A 
ATOM      4  C   UNL     1       2.440   0.140   0.204  0.00  0.00    +0.063 A 
ATOM      5  C   UNL     1       1.327  -0.674  -0.014  0.00  0.00    -0.026 A 
ATOM      6  C   UNL     1       0.088  -0.102  -0.222  0.00  0.00    +0.005 A 
ENDROOT
BRANCH   4   7
ATOM      7  C   UNL     1       3.769  -0.465   0.425  0.00  0.00    +0.340 C 
ATOM      8  O   UNL     1       3.880  -1.671   0.514  0.00  0.00    -0.245 OA
BRANCH   7   9
ATOM      9  O   UNL     1       4.858   0.321   0.529  0.00  0.00    -0.452 OA
BRANCH   9  10
ATOM     10  C   UNL     1       6.111  -0.331   0.743  0.00  0.00    +0.328 C 
BRANCH  10  11
ATOM     11  C   UNL     1       7.206   0.700   0.832  0.00  0.00    +0.257 C 
ATOM     12  O   UNL     1       6.939   1.878   0.723  0.00  0.00    -0.272 OA
ATOM     13  N   UNL     1       8.482   0.314   1.033  0.00  0.00    -0.249 N 
ATOM     14  C   UNL     1       9.461   1.237   1.113  0.00  0.00    +0.257 C 
ATOM     15  O   UNL     1       9.193   2.418   1.004  0.00  0.00    -0.269 OA
ATOM     16  H   UNL     1       8.695  -0.628   1.120  0.00  0.00    +0.158 HD
BRANCH  14  17
ATOM     17  C   UNL     1      10.846   0.817   1.331  0.00  0.00    +0.074 A 
ATOM     18  C   UNL     1      11.988   1.596   1.448  0.00  0.00    +0.021 A 
ATOM     19  C   UNL     1      13.161   0.910   1.652  0.00  0.00    +0.008 A 
ATOM     20  C   UNL     1      13.128  -0.444   1.723  0.00  0.00    +0.046 A 
ATOM     21  S   UNL     1      11.505  -0.829   1.523  0.00  0.00    -0.092 S 
ENDBRANCH  14  17
ENDBRANCH  10  11
ENDBRANCH   9  10
ENDBRANCH   7   9
ENDBRANCH   4   7
BRANCH   5  22
ATOM     22  C   UNL     1       1.478  -2.173  -0.025  0.00  0.00    +0.110 C 
BRANCH  22  23
ATOM     23  C   UNL     1       1.526  -2.683   1.393  0.00  0.00    +0.115 A 
ATOM     24  N   UNL     1       1.666  -4.019   1.592  0.00  0.00    -0.310 N 
ATOM     25  H   UNL     1       1.731  -4.615   0.830  0.00  0.00    +0.170 HD
ATOM     26  C   UNL     1       1.716  -4.527   2.846  0.00  0.00    +0.259 A 
ATOM     27  O   UNL     1       1.841  -5.722   3.039  0.00  0.00    -0.267 OA
ATOM     28  C   UNL     1       1.612  -3.579   3.965  0.00  0.00    +0.065 A 
ATOM     29  C   UNL     1       1.652  -3.999   5.293  0.00  0.00    +0.015 A 
ATOM     30  C   UNL     1       1.550  -3.067   6.303  0.00  0.00    +0.001 A 
ATOM     31  C   UNL     1       1.409  -1.718   6.007  0.00  0.00    +0.002 A 
ATOM     32  C   UNL     1       1.367  -1.282   4.702  0.00  0.00    +0.028 A 
ATOM     33  C   UNL     1       1.469  -2.207   3.660  0.00  0.00    +0.078 A 
ATOM     34  N   UNL     1       1.438  -1.822   2.360  0.00  0.00    -0.233 NA
ENDBRANCH  22  23
ENDBRANCH   5  22
TORSDOF 7
