REMARK  Name = ZINC04686001
REMARK  8 active torsions:
REMARK  status: ('A' for Active; 'I' for Inactive)
REMARK    1  A    between atoms: C_1  and  C_2
REMARK    2  A    between atoms: C_2  and  C_29
REMARK    3  A    between atoms: C_6  and  C_17
REMARK    4  A    between atoms: C_11  and  O_16
REMARK    5  A    between atoms: C_12  and  O_15
REMARK    6  A    between atoms: C_23  and  S_25
REMARK    7  A    between atoms: S_25  and  C_26
REMARK    8  A    between atoms: C_26  and  C_27
REMARK                            x       y       z     vdW  Elec       q    Type
REMARK                         _______ _______ _______ _____ _____    ______ ____
ROOT
ATOM      1  C   UNL     1      -0.019   1.528   0.010  0.00  0.00    +0.034 C 
ATOM      2  C   UNL     1       0.002  -0.004   0.002  0.00  0.00    +0.040 C 
ATOM      3  C   UNL     1       0.589  -0.514  -1.304  0.00  0.00    +0.096 C 
ATOM      4  C   UNL     1       2.087  -0.789  -1.227  0.00  0.00    +0.181 C 
ATOM      5  C   UNL     1       2.884   0.515  -1.240  0.00  0.00    +0.082 C 
ATOM      6  C   UNL     1       4.376   0.198  -1.113  0.00  0.00    +0.065 C 
ATOM      7  C   UNL     1       4.754  -0.931  -2.036  0.00  0.00    +0.006 A 
ATOM      8  C   UNL     1       6.093  -1.179  -2.288  0.00  0.00    +0.011 A 
ATOM      9  C   UNL     1       6.472  -2.195  -3.144  0.00  0.00    +0.050 A 
ATOM     10  C   UNL     1       5.511  -2.987  -3.750  0.00  0.00    +0.162 A 
ATOM     11  C   UNL     1       4.166  -2.760  -3.486  0.00  0.00    +0.201 A 
ATOM     12  C   UNL     1       3.790  -1.731  -2.623  0.00  0.00    +0.172 A 
ATOM     13  O   UNL     1       2.466  -1.554  -2.376  0.00  0.00    -0.464 OA
ATOM     14  N   UNL     1       2.398  -1.551  -0.016  0.00  0.00    -0.288 N 
ATOM     15  C   UNL     1       1.767  -1.221   1.160  0.00  0.00    +0.131 C 
ATOM     16  N   UNL     1       0.705  -0.487   1.179  0.00  0.00    -0.363 N 
ATOM     17  C   UNL     1      -1.458  -0.490   0.096  0.00  0.00    +0.034 C 
ATOM     18  H   UNL     1       3.038  -2.281  -0.041  0.00  0.00    +0.152 HD
ATOM     19  H   UNL     1       0.351  -0.238   2.052  0.00  0.00    +0.162 HD
ENDROOT
BRANCH   6  20
ATOM     20  C   UNL     1       5.163   1.432  -1.470  0.00  0.00    -0.003 A 
ATOM     21  C   UNL     1       6.044   2.131  -0.712  0.00  0.00    +0.012 A 
ATOM     22  C   UNL     1       6.657   3.246  -1.253  0.00  0.00    +0.008 A 
ATOM     23  C   UNL     1       6.358   3.608  -2.525  0.00  0.00    +0.045 A 
ATOM     24  S   UNL     1       5.184   2.350  -3.001  0.00  0.00    -0.101 S 
ENDBRANCH   6  20
BRANCH  11  25
ATOM     25  O   UNL     1       3.217  -3.540  -4.069  0.00  0.00    -0.501 OA
ATOM     26  H   UNL     1       2.982  -4.324  -3.554  0.00  0.00    +0.292 HD
ENDBRANCH  11  25
BRANCH  10  27
ATOM     27  O   UNL     1       5.879  -3.981  -4.601  0.00  0.00    -0.503 OA
ATOM     28  H   UNL     1       6.025  -4.834  -4.170  0.00  0.00    +0.292 HD
ENDBRANCH  10  27
BRANCH  15  29
ATOM     29  S   UNL     1       2.428  -1.814   2.682  0.00  0.00    -0.089 S 
BRANCH  29  30
ATOM     30  C   UNL     1       1.302  -1.149   3.939  0.00  0.00    +0.103 C 
BRANCH  30  31
ATOM     31  C   UNL     1       1.759  -1.588   5.306  0.00  0.00    -0.023 C 
ATOM     32  C   UNL     1       2.173  -0.700   6.175  0.00  0.00    +0.005 C 
ENDBRANCH  30  31
ENDBRANCH  29  30
ENDBRANCH  15  29
TORSDOF 6
