REMARK  Name = ZINC63686406
REMARK  7 active torsions:
REMARK  status: ('A' for Active; 'I' for Inactive)
REMARK    1  A    between atoms: C_1  and  C_2
REMARK    2  A    between atoms: C_4  and  C_28
REMARK    3  A    between atoms: C_9  and  C_13
REMARK    4  A    between atoms: C_13  and  S_14
REMARK    5  A    between atoms: S_14  and  C_15
REMARK    6  A    between atoms: C_19  and  C_23
REMARK    7  A    between atoms: N_21  and  C_22
REMARK                            x       y       z     vdW  Elec       q    Type
REMARK                         _______ _______ _______ _____ _____    ______ ____
ROOT
ATOM      1  C   UNL     1       1.034  -4.445   3.536  0.00  0.00    +0.122 C 
ENDROOT
BRANCH   1  10
ATOM      2  C   UNL     1      -0.817   1.461  -0.457  0.00  0.00    +0.044 C 
ATOM      3  C   UNL     1      -0.395   0.016  -0.391  0.00  0.00    -0.048 A 
ATOM      4  C   UNL     1      -0.227  -0.705  -1.565  0.00  0.00    +0.007 A 
ATOM      5  C   UNL     1       0.155  -2.017  -1.526  0.00  0.00    -0.037 A 
ATOM      6  C   UNL     1       0.378  -2.635  -0.295  0.00  0.00    +0.048 A 
ATOM      7  C   UNL     1       0.209  -1.911   0.898  0.00  0.00    +0.051 A 
ATOM      8  C   UNL     1      -0.175  -0.574   0.835  0.00  0.00    +0.029 A 
ATOM      9  N   UNL     1       0.430  -2.532   2.106  0.00  0.00    -0.357 N 
ATOM     10  C   UNL     1       0.809  -3.830   2.179  0.00  0.00    +0.030 A 
ATOM     11  C   UNL     1       0.994  -4.594   1.082  0.00  0.00    +0.073 A 
ATOM     12  C   UNL     1       0.790  -4.047  -0.206  0.00  0.00    +0.190 A 
ATOM     13  O   UNL     1       0.950  -4.721  -1.211  0.00  0.00    -0.287 OA
ATOM     14  C   UNL     1       0.335  -2.792  -2.806  0.00  0.00    +0.044 C 
ATOM     15  H   UNL     1       0.313  -2.027   2.926  0.00  0.00    +0.166 HD
ENDBRANCH   1  10
BRANCH   1  16
ATOM     16  S   UNL     1       2.606  -3.847   4.218  0.00  0.00    -0.154 S 
BRANCH  16  17
ATOM     17  C   UNL     1       2.800  -4.783   5.759  0.00  0.00    +0.077 C 
ATOM     18  N   UNL     1       1.956  -4.191   6.822  0.00  0.00    -0.261 NA
ATOM     19  N   UNL     1       2.763  -4.319   8.046  0.00  0.00    -0.264 NA
ATOM     20  C   UNL     1       4.145  -4.054   7.567  0.00  0.00    +0.085 C 
ATOM     21  N   UNL     1       4.197  -4.697   6.232  0.00  0.00    +0.411 N 
ATOM     22  C   UNL     1       4.777  -6.042   6.341  0.00  0.00    -0.090 C 
ATOM     23  H   UNL     1       1.752  -3.222   6.624  0.00  0.00    +0.140 HD
ATOM     24  H   UNL     1       2.483  -3.639   8.737  0.00  0.00    +0.139 HD
ATOM     25  H   UNL     1       4.743  -4.133   5.597  0.00  0.00    -0.076 HD
BRANCH  20  26
ATOM     26  C   UNL     1       4.387  -2.571   7.452  0.00  0.00    +0.106 A 
ATOM     27  C   UNL     1       3.772  -1.615   8.171  0.00  0.00    +0.044 A 
ATOM     28  C   UNL     1       4.300  -0.376   7.741  0.00  0.00    +0.041 A 
ATOM     29  C   UNL     1       5.205  -0.648   6.784  0.00  0.00    +0.195 A 
ATOM     30  O   UNL     1       5.258  -1.980   6.617  0.00  0.00    -0.468 OA
ENDBRANCH  20  26
ENDBRANCH  16  17
ENDBRANCH   1  16
TORSDOF 4
