REMARK  Name = ZINC07397188
REMARK  6 active torsions:
REMARK  status: ('A' for Active; 'I' for Inactive)
REMARK    1  A    between atoms: C_3  and  N_9
REMARK    2  A    between atoms: C_10  and  C_12
REMARK    3  A    between atoms: C_12  and  O_13
REMARK    4  A    between atoms: O_13  and  C_14
REMARK    5  A    between atoms: C_17  and  C_23
REMARK    6  A    between atoms: C_19  and  N_20
REMARK                            x       y       z     vdW  Elec       q    Type
REMARK                         _______ _______ _______ _____ _____    ______ ____
ROOT
ATOM      1  C   UNL     1       1.278   2.115  -0.013  0.00  0.00    +0.325 C 
ENDROOT
BRANCH   1   3
ATOM      2  N   UNL     1       0.002  -0.004   0.002  0.00  0.00    -0.281 N 
ATOM      3  C   UNL     1      -0.017   1.344   0.005  0.00  0.00    +0.255 C 
ATOM      4  O   UNL     1      -1.075   1.935   0.018  0.00  0.00    -0.272 OA
ATOM      5  H   UNL     1       0.845  -0.477  -0.079  0.00  0.00    +0.155 HD
BRANCH   2   8
ATOM      6  C   UNL     1      -3.538  -0.938  -0.349  0.00  0.00    +0.003 A 
ATOM      7  C   UNL     1      -2.357  -0.229  -0.462  0.00  0.00    +0.025 A 
ATOM      8  C   UNL     1      -1.195  -0.721   0.115  0.00  0.00    +0.053 A 
ATOM      9  C   UNL     1      -1.221  -1.929   0.801  0.00  0.00    +0.080 A 
ATOM     10  C   UNL     1      -2.406  -2.631   0.916  0.00  0.00    +0.061 A 
ATOM     11  C   UNL     1      -3.563  -2.137   0.339  0.00  0.00    +0.021 A 
ATOM     12 CL   UNL     1      -2.443  -4.138   1.779  0.00  0.00    -0.082 Cl
ATOM     13 CL   UNL     1       0.232  -2.553   1.519  0.00  0.00    -0.080 Cl
ENDBRANCH   2   8
ENDBRANCH   1   3
BRANCH   1  14
ATOM     14  O   UNL     1       0.997   3.516  -0.006  0.00  0.00    -0.480 OA
BRANCH  14  15
ATOM     15  C   UNL     1       2.061   4.357  -0.021  0.00  0.00    +0.151 A 
ATOM     16  C   UNL     1       3.353   3.841  -0.043  0.00  0.00    +0.049 A 
ATOM     17  C   UNL     1       4.429   4.681  -0.058  0.00  0.00    +0.015 A 
ATOM     18  C   UNL     1       4.236   6.068  -0.052  0.00  0.00    +0.017 A 
ATOM     19  C   UNL     1       2.936   6.589  -0.030  0.00  0.00    +0.047 A 
ATOM     20  C   UNL     1       1.857   5.733  -0.020  0.00  0.00    +0.168 A 
BRANCH  20  21
ATOM     21  N   UNL     1       0.481   6.277  -0.004  0.00  0.00    +0.060 N 
ATOM     22  O   UNL     1       0.302   7.482  -0.003  0.00  0.00    -0.126 OA
ATOM     23  O   UNL     1      -0.473   5.520   0.009  0.00  0.00    -0.126 OA
ENDBRANCH  20  21
BRANCH  18  24
ATOM     24  C   UNL     1       5.392   6.974  -0.068  0.00  0.00    +0.258 C 
ATOM     25  O   UNL     1       5.221   8.175  -0.062  0.00  0.00    -0.296 OA
ENDBRANCH  18  24
ENDBRANCH  14  15
ENDBRANCH   1  14
TORSDOF 6
