REMARK  Name = ZINC13332731
REMARK  7 active torsions:
REMARK  status: ('A' for Active; 'I' for Inactive)
REMARK    1  A    between atoms: C_1  and  N_2
REMARK    2  A    between atoms: N_2  and  C_3
REMARK    3  A    between atoms: N_2  and  S_4
REMARK    4  A    between atoms: S_4  and  C_7
REMARK    5  A    between atoms: C_9  and  C_14
REMARK    6  A    between atoms: N_16  and  C_17
REMARK    7  A    between atoms: C_22  and  C_23
REMARK                            x       y       z     vdW  Elec       q    Type
REMARK                         _______ _______ _______ _____ _____    ______ ____
ROOT
ATOM      1  C   UNL     1      -2.299  -0.267   0.188  0.00  0.00    +0.248 C 
ATOM      2  O   UNL     1      -3.301   0.405   0.335  0.00  0.00    -0.270 OA
ATOM      3  N   UNL     1      -2.387  -1.611   0.161  0.00  0.00    -0.281 N 
ATOM      4  H   UNL     1      -1.598  -2.145  -0.022  0.00  0.00    +0.155 HD
ENDROOT
BRANCH   3   5
ATOM      5  C   UNL     1      -3.610  -2.234   0.397  0.00  0.00    +0.052 A 
ATOM      6  C   UNL     1      -4.785  -1.655  -0.061  0.00  0.00    +0.073 A 
ATOM      7  C   UNL     1      -5.998  -2.280   0.172  0.00  0.00    +0.164 A 
ATOM      8  C   UNL     1      -6.049  -3.482   0.872  0.00  0.00    +0.163 A 
ATOM      9  C   UNL     1      -4.891  -4.068   1.337  0.00  0.00    +0.066 A 
ATOM     10  C   UNL     1      -3.658  -3.447   1.103  0.00  0.00    +0.088 A 
ATOM     11  O   UNL     1      -7.257  -4.080   1.097  0.00  0.00    -0.488 OA
ATOM     12  C   UNL     1      -7.921  -4.602  -0.055  0.00  0.00    +0.232 C 
ATOM     13  C   UNL     1      -8.717  -3.514  -0.758  0.00  0.00    +0.082 C 
ATOM     14  C   UNL     1      -7.826  -2.421  -1.327  0.00  0.00    +0.232 C 
ATOM     15  O   UNL     1      -7.155  -1.717  -0.281  0.00  0.00    -0.488 OA
BRANCH  10  16
ATOM     16  C   UNL     1      -2.416  -4.064   1.595  0.00  0.00    +0.388 C 
ATOM     17  O   UNL     1      -1.359  -3.475   1.480  0.00  0.00    -0.241 OA
ATOM     18  O   UNL     1      -2.451  -5.281   2.172  0.00  0.00    -0.241 OA
ENDBRANCH  10  16
ENDBRANCH   3   5
BRANCH   1  21
ATOM     19  C   UNL     1       0.340   2.392  -0.073  0.00  0.00    +0.124 A 
ATOM     20  C   UNL     1      -0.890   1.784   0.067  0.00  0.00    +0.043 A 
ATOM     21  C   UNL     1      -0.984   0.391   0.039  0.00  0.00    +0.039 A 
ATOM     22  C   UNL     1       0.169  -0.378  -0.131  0.00  0.00    +0.014 A 
ATOM     23  C   UNL     1       1.393   0.242  -0.270  0.00  0.00    +0.023 A 
ATOM     24  C   UNL     1       1.480   1.624  -0.241  0.00  0.00    +0.067 A 
ATOM     25 CL   UNL     1       3.025   2.397  -0.416  0.00  0.00    -0.082 Cl
BRANCH  19  26
ATOM     26  S   UNL     1       0.460   4.149  -0.040  0.00  0.00    +0.062 S 
ATOM     27  O   UNL     1      -0.860   4.644   0.138  0.00  0.00    -0.153 OA
ATOM     28  O   UNL     1       1.519   4.467   0.854  0.00  0.00    -0.153 OA
BRANCH  26  30
ATOM     29  C   UNL     1      -0.033   4.795  -2.619  0.00  0.00    +0.131 C 
ATOM     30  N   UNL     1       0.950   4.636  -1.545  0.00  0.00    -0.183 NA
ATOM     31  C   UNL     1       2.366   4.907  -1.802  0.00  0.00    +0.131 C 
ENDBRANCH  26  30
ENDBRANCH  19  26
ENDBRANCH   1  21
TORSDOF 5
