REMARK  Name = ZINC39422745
REMARK  10 active torsions:
REMARK  status: ('A' for Active; 'I' for Inactive)
REMARK    1  A    between atoms: C_1  and  C_2
REMARK    2  A    between atoms: C_5  and  N_8
REMARK    3  A    between atoms: C_9  and  C_11
REMARK    4  A    between atoms: C_11  and  C_13
REMARK    5  A    between atoms: C_11  and  O_14
REMARK    6  A    between atoms: O_14  and  C_15
REMARK    7  A    between atoms: C_15  and  C_17
REMARK    8  A    between atoms: C_22  and  N_23
REMARK    9  A    between atoms: N_23  and  S_24
REMARK   10  A    between atoms: S_24  and  C_27
REMARK                            x       y       z     vdW  Elec       q    Type
REMARK                         _______ _______ _______ _____ _____    ______ ____
ROOT
ATOM      1  C   UNL     1       1.534  -8.494   3.926  0.00  0.00    +0.083 A 
ATOM      2  C   UNL     1       1.034  -7.851   5.062  0.00  0.00    +0.017 A 
ATOM      3  C   UNL     1       1.292  -8.367   6.313  0.00  0.00    +0.001 A 
ATOM      4  C   UNL     1       2.046  -9.521   6.453  0.00  0.00    +0.002 A 
ATOM      5  C   UNL     1       2.546 -10.168   5.342  0.00  0.00    +0.027 A 
ATOM      6  C   UNL     1       2.292  -9.667   4.071  0.00  0.00    +0.088 A 
ENDROOT
BRANCH   1   7
ATOM      7  C   UNL     1       1.262  -7.948   2.585  0.00  0.00    +0.342 C 
ATOM      8  O   UNL     1       1.694  -8.513   1.600  0.00  0.00    -0.245 OA
BRANCH   7   9
ATOM      9  O   UNL     1       0.533  -6.822   2.451  0.00  0.00    -0.449 OA
BRANCH   9  10
ATOM     10  C   UNL     1       0.309  -6.349   1.121  0.00  0.00    +0.259 C 
ATOM     11  C   UNL     1      -0.977  -6.970   0.570  0.00  0.00    +0.062 C 
BRANCH  10  13
ATOM     12  N   UNL     1       0.059  -4.170  -0.021  0.00  0.00    -0.282 N 
ATOM     13  C   UNL     1       0.175  -4.848   1.138  0.00  0.00    +0.258 C 
ATOM     14  O   UNL     1       0.173  -4.251   2.193  0.00  0.00    -0.271 OA
ATOM     15  H   UNL     1      -0.017  -4.651  -0.860  0.00  0.00    +0.155 HD
BRANCH  12  20
ATOM     16  C   UNL     1       0.008   1.503   0.007  0.00  0.00    +0.044 C 
ATOM     17  C   UNL     1       0.021  -0.004  -0.000  0.00  0.00    -0.050 A 
ATOM     18  C   UNL     1       0.777  -0.692   0.931  0.00  0.00    +0.005 A 
ATOM     19  C   UNL     1       0.791  -2.073   0.927  0.00  0.00    +0.023 A 
ATOM     20  C   UNL     1       0.046  -2.771  -0.014  0.00  0.00    +0.034 A 
ATOM     21  C   UNL     1      -0.712  -2.077  -0.948  0.00  0.00    +0.023 A 
ATOM     22  C   UNL     1      -0.726  -0.696  -0.936  0.00  0.00    +0.005 A 
ENDBRANCH  12  20
ENDBRANCH  10  13
ENDBRANCH   9  10
ENDBRANCH   7   9
ENDBRANCH   1   7
BRANCH   6  23
ATOM     23  N   UNL     1       2.790 -10.319   2.951  0.00  0.00    -0.097 NA
BRANCH  23  24
ATOM     24  S   UNL     1       3.684 -11.701   3.127  0.00  0.00    +0.092 S 
ATOM     25  O   UNL     1       4.888 -11.326   3.784  0.00  0.00    -0.148 OA
ATOM     26  O   UNL     1       2.807 -12.688   3.651  0.00  0.00    -0.148 OA
BRANCH  24  27
ATOM     27  C   UNL     1       4.138 -12.238   1.511  0.00  0.00    +0.112 A 
ATOM     28  C   UNL     1       3.252 -13.145   0.793  0.00  0.00    +0.031 A 
ATOM     29  C   UNL     1       3.540 -13.594  -0.448  0.00  0.00    +0.027 A 
ATOM     30  C   UNL     1       4.775 -13.164  -1.102  0.00  0.00    +0.056 A 
ATOM     31  N   UNL     1       5.338 -13.402  -2.260  0.00  0.00    -0.268 N 
ATOM     32  C   UNL     1       6.521 -12.703  -2.318  0.00  0.00    +0.308 C 
ATOM     33  O   UNL     1       7.287 -12.706  -3.259  0.00  0.00    -0.252 OA
ATOM     34  N   UNL     1       6.705 -12.001  -1.151  0.00  0.00    -0.267 N 
ATOM     35  C   UNL     1       5.685 -12.231  -0.364  0.00  0.00    +0.058 A 
ATOM     36  C   UNL     1       5.294 -11.791   0.974  0.00  0.00    +0.054 A 
ATOM     37  H   UNL     1       7.463 -11.431  -0.946  0.00  0.00    +0.156 HD
ATOM     38  H   UNL     1       4.981 -13.973  -2.957  0.00  0.00    +0.156 HD
ENDBRANCH  24  27
ENDBRANCH  23  24
ENDBRANCH   6  23
TORSDOF 8
