REMARK  Name = ZINC57245319
REMARK  7 active torsions:
REMARK  status: ('A' for Active; 'I' for Inactive)
REMARK    1  A    between atoms: C_1  and  C_2
REMARK    2  A    between atoms: C_2  and  C_3
REMARK    3  A    between atoms: C_3  and  C_5
REMARK    4  A    between atoms: C_3  and  N_10
REMARK    5  A    between atoms: N_13  and  N_14
REMARK    6  A    between atoms: C_15  and  C_17
REMARK    7  A    between atoms: C_21  and  N_23
REMARK                            x       y       z     vdW  Elec       q    Type
REMARK                         _______ _______ _______ _____ _____    ______ ____
ROOT
ATOM      1  N   UNL     1      -2.105  -0.148  -1.230  0.00  0.00    -0.291 N 
ATOM      2  C   UNL     1      -2.690   1.062  -1.334  0.00  0.00    +0.316 C 
ATOM      3  O   UNL     1      -2.659   1.834  -0.395  0.00  0.00    -0.251 OA
ATOM      4  N   UNL     1      -3.308   1.416  -2.478  0.00  0.00    -0.218 N 
ATOM      5  H   UNL     1      -2.130  -0.764  -1.980  0.00  0.00    +0.151 HD
ATOM      6  H   UNL     1      -3.729   2.287  -2.552  0.00  0.00    +0.174 HD
ENDROOT
BRANCH   4   7
ATOM      7  N   UNL     1      -3.343   0.527  -3.559  0.00  0.00    -0.229 N 
ATOM      8  C   UNL     1      -3.962   0.881  -4.703  0.00  0.00    +0.260 C 
ATOM      9  O   UNL     1      -4.489   1.973  -4.796  0.00  0.00    -0.269 OA
ATOM     10  H   UNL     1      -2.923  -0.344  -3.485  0.00  0.00    +0.173 HD
BRANCH   8  11
ATOM     11  C   UNL     1      -3.999  -0.057  -5.845  0.00  0.00    +0.040 A 
ATOM     12  C   UNL     1      -3.400  -1.313  -5.740  0.00  0.00    +0.013 A 
ATOM     13  C   UNL     1      -3.438  -2.185  -6.808  0.00  0.00    +0.003 A 
ATOM     14  C   UNL     1      -4.069  -1.815  -7.983  0.00  0.00    +0.033 A 
ATOM     15  C   UNL     1      -4.665  -0.572  -8.095  0.00  0.00    +0.127 A 
ATOM     16  C   UNL     1      -4.638   0.307  -7.031  0.00  0.00    +0.045 A 
BRANCH  15  17
ATOM     17  N   UNL     1      -5.337  -0.185  -9.355  0.00  0.00    +0.056 N 
ATOM     18  O   UNL     1      -5.366  -0.956 -10.286  0.00  0.00    -0.126 OA
ATOM     19  O   UNL     1      -5.858   0.901  -9.454  0.00  0.00    -0.126 OA
ENDBRANCH  15  17
ENDBRANCH   8  11
ENDBRANCH   4   7
BRANCH   1  20
ATOM     20  C   UNL     1      -1.433  -0.534   0.013  0.00  0.00    +0.111 C 
BRANCH  20  21
ATOM     21  C   UNL     1      -1.414  -2.036   0.129  0.00  0.00    +0.010 A 
ATOM     22  C   UNL     1      -1.612  -2.811   1.223  0.00  0.00    +0.013 A 
ATOM     23  C   UNL     1      -1.547  -4.185   1.092  0.00  0.00    +0.008 A 
ATOM     24  C   UNL     1      -1.287  -4.718  -0.127  0.00  0.00    +0.045 A 
ATOM     25  S   UNL     1      -1.131  -3.258  -1.142  0.00  0.00    -0.100 S 
ENDBRANCH  20  21
BRANCH  20  27
ATOM     26  C   UNL     1      -0.019   1.526   0.010  0.00  0.00    +0.006 C 
ATOM     27  C   UNL     1       0.002  -0.004   0.002  0.00  0.00    +0.024 C 
ENDBRANCH  20  27
ENDBRANCH   1  20
TORSDOF 6
