REMARK  Name = ZINC19355321
REMARK  7 active torsions:
REMARK  status: ('A' for Active; 'I' for Inactive)
REMARK    1  A    between atoms: C_1  and  C_2
REMARK    2  A    between atoms: C_5  and  N_8
REMARK    3  A    between atoms: C_12  and  S_13
REMARK    4  A    between atoms: S_13  and  C_14
REMARK    5  A    between atoms: C_14  and  C_16
REMARK    6  A    between atoms: C_14  and  C_17
REMARK    7  A    between atoms: N_19  and  C_20
REMARK                            x       y       z     vdW  Elec       q    Type
REMARK                         _______ _______ _______ _____ _____    ______ ____
ROOT
ATOM      1  N   UNL     1       6.760  -6.386  -0.817  0.00  0.00    -0.259 N 
ATOM      2  C   UNL     1       8.124  -6.441  -0.720  0.00  0.00    +0.225 A 
ATOM      3  N   UNL     1       8.541  -5.306  -0.217  0.00  0.00    -0.112 NA
ATOM      4  N   UNL     1       7.422  -4.495   0.012  0.00  0.00    -0.120 NA
ATOM      5  C   UNL     1       6.355  -5.161  -0.358  0.00  0.00    +0.198 A 
ATOM      6  N   UNL     1       8.925  -7.515  -1.086  0.00  0.00    -0.299 N 
ATOM      7  C   UNL     1       9.522  -8.153   0.094  0.00  0.00    +0.108 C 
ATOM      8  C   UNL     1      10.277  -9.414  -0.333  0.00  0.00    +0.019 C 
ATOM      9  C   UNL     1      11.368  -9.034  -1.337  0.00  0.00    +0.003 C 
ATOM     10  C   UNL     1      10.726  -8.329  -2.534  0.00  0.00    +0.019 C 
ATOM     11  C   UNL     1       9.958  -7.099  -2.044  0.00  0.00    +0.108 C 
ENDROOT
BRANCH   1  16
ATOM     12  C   UNL     1       3.382 -10.501  -2.783  0.00  0.00    +0.044 C 
ATOM     13  C   UNL     1       4.279  -9.408  -2.261  0.00  0.00    -0.050 A 
ATOM     14  C   UNL     1       4.377  -8.211  -2.945  0.00  0.00    +0.005 A 
ATOM     15  C   UNL     1       5.199  -7.208  -2.469  0.00  0.00    +0.026 A 
ATOM     16  C   UNL     1       5.925  -7.402  -1.302  0.00  0.00    +0.052 A 
ATOM     17  C   UNL     1       5.828  -8.608  -0.620  0.00  0.00    +0.026 A 
ATOM     18  C   UNL     1       5.001  -9.605  -1.099  0.00  0.00    +0.005 A 
ENDBRANCH   1  16
BRANCH   5  19
ATOM     19  S   UNL     1       4.693  -4.584  -0.274  0.00  0.00    -0.073 S 
BRANCH  19  20
ATOM     20  C   UNL     1       4.842  -2.916   0.422  0.00  0.00    +0.137 C 
ATOM     21  C   UNL     1       5.379  -3.006   1.852  0.00  0.00    +0.029 C 
BRANCH  20  22
ATOM     22  C   UNL     1       3.488  -2.254   0.435  0.00  0.00    +0.230 C 
ATOM     23  O   UNL     1       2.482  -2.931   0.462  0.00  0.00    -0.274 OA
ATOM     24  N   UNL     1       3.395  -0.909   0.417  0.00  0.00    -0.284 N 
ATOM     25  H   UNL     1       4.302  -0.296   0.314  0.00  0.00    +0.155 HD
BRANCH  24  26
ATOM     26  C   UNL     1       2.142  -0.292   0.531  0.00  0.00    +0.037 A 
ATOM     27  C   UNL     1       2.019   0.908   1.218  0.00  0.00    +0.027 A 
ATOM     28  C   UNL     1       0.784   1.516   1.331  0.00  0.00    +0.051 A 
ATOM     29  C   UNL     1      -0.336   0.931   0.759  0.00  0.00    +0.162 A 
ATOM     30  C   UNL     1      -0.215  -0.269   0.068  0.00  0.00    +0.164 A 
ATOM     31  C   UNL     1       1.024  -0.880  -0.044  0.00  0.00    +0.072 A 
ATOM     32  O   UNL     1      -1.302  -0.854  -0.507  0.00  0.00    -0.485 OA
ATOM     33  C   UNL     1      -2.586  -0.409  -0.058  0.00  0.00    +0.270 C 
ATOM     34  C   UNL     1      -2.576   1.125  -0.018  0.00  0.00    +0.270 C 
ATOM     35  O   UNL     1      -1.547   1.542   0.887  0.00  0.00    -0.485 OA
ENDBRANCH  24  26
ENDBRANCH  20  22
ENDBRANCH  19  20
ENDBRANCH   5  19
TORSDOF 5
