REMARK  Name = ZINC60942691
REMARK  5 active torsions:
REMARK  status: ('A' for Active; 'I' for Inactive)
REMARK    1  A    between atoms: C_1  and  O_2
REMARK    2  A    between atoms: O_2  and  C_3
REMARK    3  A    between atoms: C_6  and  C_8
REMARK    4  A    between atoms: C_8  and  N_9
REMARK    5  A    between atoms: C_18  and  C_19
REMARK                            x       y       z     vdW  Elec       q    Type
REMARK                         _______ _______ _______ _____ _____    ______ ____
ROOT
ATOM      1  N   UNL     1      -3.562  -4.722   0.294  0.00  0.00    -0.278 NA
ATOM      2  C   UNL     1      -4.207  -4.565   1.601  0.00  0.00    +0.121 C 
ATOM      3  C   UNL     1      -5.702  -4.697   1.471  0.00  0.00    -0.030 A 
ATOM      4  C   UNL     1      -6.499  -4.219   2.500  0.00  0.00    +0.005 A 
ATOM      5  C   UNL     1      -7.873  -4.323   2.424  0.00  0.00    +0.000 A 
ATOM      6  C   UNL     1      -8.460  -4.907   1.317  0.00  0.00    +0.000 A 
ATOM      7  C   UNL     1      -7.668  -5.381   0.291  0.00  0.00    +0.004 A 
ATOM      8  C   UNL     1      -6.287  -5.275   0.365  0.00  0.00    -0.041 A 
ATOM      9  C   UNL     1      -5.463  -5.797  -0.784  0.00  0.00    +0.063 C 
ATOM     10  C   UNL     1      -4.008  -5.970  -0.347  0.00  0.00    +0.148 C 
ENDROOT
BRANCH  10  11
ATOM     11  C   UNL     1      -3.148  -6.255  -1.552  0.00  0.00    +0.228 C 
ATOM     12  O   UNL     1      -2.722  -5.340  -2.224  0.00  0.00    -0.274 OA
ATOM     13  N   UNL     1      -2.853  -7.528  -1.882  0.00  0.00    -0.328 N 
ATOM     14  H   UNL     1      -3.194  -8.260  -1.344  0.00  0.00    +0.145 HD
ATOM     15  H   UNL     1      -2.300  -7.712  -2.657  0.00  0.00    +0.145 HD
ENDBRANCH  10  11
BRANCH   1  16
ATOM     16  C   UNL     1      -2.099  -4.691   0.422  0.00  0.00    +0.181 C 
BRANCH  16  20
ATOM     17  C   UNL     1       0.063  -1.747   1.111  0.00  0.00    +0.406 C 
ATOM     18  O   UNL     1      -0.757  -0.854   1.197  0.00  0.00    -0.226 OA
ATOM     19  N   UNL     1      -0.339  -3.009   0.859  0.00  0.00    -0.221 N 
ATOM     20  C   UNL     1      -1.650  -3.280   0.703  0.00  0.00    +0.236 C 
ATOM     21  O   UNL     1      -2.468  -2.389   0.788  0.00  0.00    -0.274 OA
ATOM     22  H   UNL     1       0.316  -3.721   0.791  0.00  0.00    +0.161 HD
BRANCH  17  24
ATOM     23  C   UNL     1       1.726  -0.117   1.532  0.00  0.00    +0.282 C 
ATOM     24  O   UNL     1       1.372  -1.476   1.267  0.00  0.00    -0.453 OA
ENDBRANCH  17  24
ENDBRANCH  16  20
ENDBRANCH   1  16
TORSDOF 4
