REMARK  Name = ZINC33930918
REMARK  2 active torsions:
REMARK  status: ('A' for Active; 'I' for Inactive)
REMARK    1  A    between atoms: C_6  and  C_7
REMARK    2  A    between atoms: C_17  and  C_20
REMARK                            x       y       z     vdW  Elec       q    Type
REMARK                         _______ _______ _______ _____ _____    ______ ____
ROOT
ATOM      1  C   UNL     1      -0.017   1.395   0.010  0.00  0.00    +0.017 A 
ATOM      2  C   UNL     1       1.155   2.093   0.002  0.00  0.00    +0.024 A 
ATOM      3  C   UNL     1       2.378   1.425  -0.017  0.00  0.00    +0.031 A 
ATOM      4  C   UNL     1       2.396   0.021  -0.037  0.00  0.00    -0.019 A 
ATOM      5  C   UNL     1       1.228  -0.679  -0.021  0.00  0.00    +0.021 A 
ATOM      6  C   UNL     1       0.002  -0.004   0.002  0.00  0.00    +0.064 A 
ATOM      7  C   UNL     1       3.717  -0.642  -0.097  0.00  0.00    +0.049 C 
ATOM      8  C   UNL     1       3.936  -2.007   0.448  0.00  0.00    -0.023 C 
ATOM      9  C   UNL     1       5.186  -2.094   0.885  0.00  0.00    -0.030 C 
ATOM     10  C   UNL     1       5.901  -0.755   0.692  0.00  0.00    +0.033 C 
ATOM     11  C   UNL     1       4.718   0.215   0.733  0.00  0.00    +0.029 C 
ATOM     12  C   UNL     1       4.880   1.510  -0.042  0.00  0.00    +0.105 C 
ATOM     13  N   UNL     1       3.556   2.168  -0.003  0.00  0.00    -0.336 N 
ATOM     14  H   UNL     1       3.507   3.136   0.033  0.00  0.00    +0.147 HD
ENDROOT
BRANCH  12  15
ATOM     15  C   UNL     1       5.918   2.384   0.615  0.00  0.00    -0.024 A 
ATOM     16  C   UNL     1       5.602   3.145   1.730  0.00  0.00    +0.023 A 
ATOM     17  C   UNL     1       6.579   3.934   2.306  0.00  0.00    +0.083 A 
ATOM     18  N   UNL     1       7.799   3.969   1.806  0.00  0.00    -0.367 N 
ATOM     19  C   UNL     1       8.135   3.259   0.747  0.00  0.00    +0.083 A 
ATOM     20  C   UNL     1       7.213   2.442   0.122  0.00  0.00    +0.023 A 
ATOM     21  H   UNL     1       8.466   4.532   2.229  0.00  0.00    +0.165 HD
ENDBRANCH  12  15
BRANCH   6  22
ATOM     22  C   UNL     1      -1.260  -0.761   0.018  0.00  0.00    +0.387 C 
ATOM     23  O   UNL     1      -2.329  -0.167   0.037  0.00  0.00    -0.241 OA
ATOM     24  O   UNL     1      -1.239  -1.984   0.011  0.00  0.00    -0.241 OA
ENDBRANCH   6  22
TORSDOF 2
