REMARK  Name = ZINC12864534
REMARK  8 active torsions:
REMARK  status: ('A' for Active; 'I' for Inactive)
REMARK    1  A    between atoms: C_1  and  C_2
REMARK    2  A    between atoms: C_8  and  N_10
REMARK    3  A    between atoms: C_11  and  C_13
REMARK    4  A    between atoms: C_13  and  N_50
REMARK    5  A    between atoms: C_14  and  N_50
REMARK    6  A    between atoms: C_15  and  C_16
REMARK    7  A    between atoms: C_15  and  N_50
REMARK    8  A    between atoms: N_18  and  C_19
REMARK                            x       y       z     vdW  Elec       q    Type
REMARK                         _______ _______ _______ _____ _____    ______ ____
ROOT
ATOM      1  C   UNL     1      -2.772   7.446  -2.263  0.00  0.00    -0.095 C 
ATOM      2  N   UNL     1      -2.502   7.872  -0.874  0.00  0.00    +0.389 N 
ATOM      3  H   UNL     1      -3.208   7.457  -0.254  0.00  0.00    -0.081 HD
ENDROOT
BRANCH   2   4
ATOM      4  C   UNL     1      -2.582   9.345  -0.773  0.00  0.00    +0.019 C 
BRANCH   4   6
ATOM      5  N   UNL     1      -4.342  11.076  -0.929  0.00  0.00    -0.314 N 
ATOM      6  C   UNL     1      -4.011   9.771  -0.991  0.00  0.00    +0.197 C 
ATOM      7  O   UNL     1      -4.863   8.939  -1.222  0.00  0.00    -0.278 OA
ATOM      8  H   UNL     1      -3.661  11.741  -0.744  0.00  0.00    +0.149 HD
BRANCH   5  15
ATOM      9  C   UNL     1      -5.715  12.671   1.060  0.00  0.00    +0.009 C 
ATOM     10  C   UNL     1      -5.978  12.827  -0.439  0.00  0.00    +0.006 C 
ATOM     11  C   UNL     1      -7.429  13.259  -0.661  0.00  0.00    +0.005 C 
ATOM     12  C   UNL     1      -7.691  13.414  -2.160  0.00  0.00    +0.000 C 
ATOM     13  C   UNL     1      -7.444  12.078  -2.862  0.00  0.00    +0.002 C 
ATOM     14  C   UNL     1      -5.994  11.645  -2.641  0.00  0.00    +0.022 C 
ATOM     15  C   UNL     1      -5.731  11.490  -1.141  0.00  0.00    +0.076 C 
ENDBRANCH   5  15
ENDBRANCH   4   6
ENDBRANCH   2   4
BRANCH   2  16
ATOM     16  C   UNL     1      -1.163   7.409  -0.454  0.00  0.00    +0.019 C 
BRANCH  16  17
ATOM     17  C   UNL     1      -1.179   5.905  -0.355  0.00  0.00    +0.201 C 
ATOM     18  O   UNL     1      -2.189   5.290  -0.622  0.00  0.00    -0.278 OA
ATOM     19  N   UNL     1      -0.069   5.244   0.031  0.00  0.00    -0.285 N 
ATOM     20  H   UNL     1       0.716   5.738   0.314  0.00  0.00    +0.155 HD
BRANCH  19  21
ATOM     21  C   UNL     1      -0.050   3.844   0.023  0.00  0.00    +0.070 A 
ATOM     22  C   UNL     1       0.340   3.159  -1.121  0.00  0.00    +0.064 A 
ATOM     23  C   UNL     1       0.357   1.777  -1.125  0.00  0.00    +0.022 A 
ATOM     24  C   UNL     1      -0.012   1.076   0.009  0.00  0.00    +0.003 A 
ATOM     25  C   UNL     1      -0.406   1.754   1.147  0.00  0.00    +0.022 A 
ATOM     26  C   UNL     1      -0.421   3.136   1.160  0.00  0.00    +0.064 A 
ATOM     27 CL   UNL     1      -0.909   3.987   2.592  0.00  0.00    -0.082 Cl
ATOM     28 CL   UNL     1       0.805   4.038  -2.544  0.00  0.00    -0.082 Cl
ENDBRANCH  19  21
ENDBRANCH  16  17
ENDBRANCH   2  16
TORSDOF 6
