REMARK  Name = ZINC10134840
REMARK  12 active torsions:
REMARK  status: ('A' for Active; 'I' for Inactive)
REMARK    1  A    between atoms: C_1  and  C_2
REMARK    2  A    between atoms: C_2  and  C_3
REMARK    3  A    between atoms: N_11  and  C_15
REMARK    4  A    between atoms: C_15  and  C_16
REMARK    5  A    between atoms: C_16  and  O_18
REMARK    6  A    between atoms: O_18  and  C_19
REMARK    7  A    between atoms: C_19  and  C_21
REMARK    8  A    between atoms: C_19  and  C_22
REMARK    9  A    between atoms: N_24  and  C_25
REMARK   10  A    between atoms: C_26  and  C_33
REMARK   11  A    between atoms: C_28  and  C_32
REMARK   12  A    between atoms: C_30  and  C_31
REMARK                            x       y       z     vdW  Elec       q    Type
REMARK                         _______ _______ _______ _____ _____    ______ ____
ROOT
ATOM      1  C   UNL     1      -3.425   1.521  -1.123  0.00  0.00    +0.326 C 
ATOM      2  O   UNL     1      -3.761   2.157  -0.153  0.00  0.00    -0.249 OA
ENDROOT
BRANCH   1   3
ATOM      3  C   UNL     1      -4.461   0.795  -1.943  0.00  0.00    +0.238 C 
BRANCH   3  12
ATOM      4  C   UNL     1      -9.529   4.101  -1.654  0.00  0.00    -0.011 C 
ATOM      5  C   UNL     1      -8.287   4.313  -0.786  0.00  0.00    +0.006 C 
ATOM      6  C   UNL     1      -8.039   3.062   0.062  0.00  0.00    +0.035 C 
ATOM      7  C   UNL     1      -7.843   1.858  -0.851  0.00  0.00    +0.113 C 
ATOM      8  C   UNL     1      -9.065   1.647  -1.737  0.00  0.00    +0.035 C 
ATOM      9  C   UNL     1      -9.309   2.902  -2.579  0.00  0.00    +0.006 C 
ATOM     10  C   UNL     1      -6.603   2.036  -1.698  0.00  0.00    +0.247 C 
ATOM     11  O   UNL     1      -6.388   2.911  -2.509  0.00  0.00    -0.273 OA
ATOM     12  N   UNL     1      -5.787   1.016  -1.361  0.00  0.00    -0.213 N 
ATOM     13  C   UNL     1      -6.342   0.227  -0.432  0.00  0.00    +0.310 C 
ATOM     14  O   UNL     1      -5.801  -0.760   0.027  0.00  0.00    -0.252 OA
ATOM     15  N   UNL     1      -7.565   0.652  -0.061  0.00  0.00    -0.285 N 
ATOM     16  H   UNL     1      -8.148   0.240   0.596  0.00  0.00    +0.151 HD
BRANCH   4  18
ATOM     17  C   UNL     1     -11.094   5.191  -3.268  0.00  0.00    +0.004 C 
ATOM     18  C   UNL     1      -9.784   5.354  -2.494  0.00  0.00    -0.000 C 
ENDBRANCH   4  18
ENDBRANCH   3  12
ENDBRANCH   1   3
BRANCH   1  19
ATOM     19  O   UNL     1      -2.131   1.461  -1.472  0.00  0.00    -0.451 OA
BRANCH  19  20
ATOM     20  C   UNL     1      -1.189   2.184  -0.637  0.00  0.00    +0.259 C 
ATOM     21  C   UNL     1      -1.026   3.609  -1.169  0.00  0.00    +0.062 C 
BRANCH  20  22
ATOM     22  C   UNL     1       0.145   1.483  -0.661  0.00  0.00    +0.258 C 
ATOM     23  O   UNL     1       0.315   0.526  -1.387  0.00  0.00    -0.271 OA
ATOM     24  N   UNL     1       1.152   1.923   0.120  0.00  0.00    -0.282 N 
ATOM     25  H   UNL     1       1.033   2.719   0.662  0.00  0.00    +0.155 HD
BRANCH  24  26
ATOM     26  C   UNL     1       2.367   1.231   0.151  0.00  0.00    +0.039 A 
ATOM     27  C   UNL     1       2.384  -0.135   0.402  0.00  0.00    -0.029 A 
ATOM     28  C   UNL     1       3.586  -0.816   0.425  0.00  0.00    +0.008 A 
ATOM     29  C   UNL     1       4.771  -0.138   0.211  0.00  0.00    -0.050 A 
ATOM     30  C   UNL     1       4.758   1.224  -0.033  0.00  0.00    +0.008 A 
ATOM     31  C   UNL     1       3.560   1.909  -0.064  0.00  0.00    -0.029 A 
ATOM     32  C   UNL     1       3.546   3.393  -0.331  0.00  0.00    +0.045 C 
ATOM     33  C   UNL     1       6.080  -0.883   0.242  0.00  0.00    +0.044 C 
ATOM     34  C   UNL     1       1.093  -0.874   0.642  0.00  0.00    +0.045 C 
ENDBRANCH  24  26
ENDBRANCH  20  22
ENDBRANCH  19  20
ENDBRANCH   1  19
TORSDOF 7
