REMARK  Name = ZINC20207672
REMARK  8 active torsions:
REMARK  status: ('A' for Active; 'I' for Inactive)
REMARK    1  A    between atoms: C_1  and  O_2
REMARK    2  A    between atoms: O_2  and  C_3
REMARK    3  A    between atoms: C_5  and  C_18
REMARK    4  A    between atoms: C_8  and  O_9
REMARK    5  A    between atoms: O_9  and  C_10
REMARK    6  A    between atoms: C_10  and  C_11
REMARK    7  A    between atoms: C_28  and  S_30
REMARK    8  A    between atoms: S_30  and  C_33
REMARK                            x       y       z     vdW  Elec       q    Type
REMARK                         _______ _______ _______ _____ _____    ______ ____
ROOT
ATOM      1  C   UNL     1      -1.241  -0.432   0.281  0.00  0.00    +0.162 A 
ATOM      2  C   UNL     1      -2.429   0.266   0.362  0.00  0.00    +0.057 A 
ATOM      3  C   UNL     1      -3.642  -0.393   0.120  0.00  0.00    -0.021 A 
ATOM      4  C   UNL     1      -3.642  -1.757  -0.205  0.00  0.00    +0.012 A 
ATOM      5  C   UNL     1      -2.451  -2.444  -0.284  0.00  0.00    +0.050 A 
ATOM      6  C   UNL     1      -1.249  -1.788  -0.048  0.00  0.00    +0.162 A 
ENDROOT
BRANCH   3   7
ATOM      7  C   UNL     1      -4.907   0.342   0.205  0.00  0.00    +0.024 C 
ATOM      8  C   UNL     1      -6.046  -0.298   0.640  0.00  0.00    +0.081 C 
ATOM      9  C   UNL     1      -6.005  -1.676   1.206  0.00  0.00    +0.153 C 
ATOM     10  N   UNL     1      -4.998  -2.138   1.898  0.00  0.00    -0.283 NA
ATOM     11  N   UNL     1      -7.163  -2.432   0.922  0.00  0.00    -0.150 N 
ATOM     12  C   UNL     1      -8.321  -1.741   0.640  0.00  0.00    +0.182 C 
ATOM     13  N   UNL     1      -8.466  -0.446   0.507  0.00  0.00    -0.152 NA
ATOM     14  C   UNL     1      -7.379   0.351   0.577  0.00  0.00    +0.273 C 
ATOM     15  O   UNL     1      -7.487   1.567   0.584  0.00  0.00    -0.268 OA
ATOM     16  S   UNL     1      -9.508  -3.050   0.490  0.00  0.00    -0.015 S 
ATOM     17  C   UNL     1      -8.377  -4.417   0.709  0.00  0.00    +0.235 C 
ATOM     18  N   UNL     1      -7.244  -3.808   0.913  0.00  0.00    -0.145 NA
ATOM     19  H   UNL     1      -5.023  -3.044   2.244  0.00  0.00    +0.188 HD
BRANCH  17  20
ATOM     20  S   UNL     1      -8.710  -6.147   0.661  0.00  0.00    +0.019 S 
ATOM     21  O   UNL     1      -9.787  -6.283  -0.256  0.00  0.00    -0.168 OA
ATOM     22  O   UNL     1      -7.452  -6.751   0.397  0.00  0.00    -0.168 OA
ATOM     23  C   UNL     1      -9.263  -6.561   2.339  0.00  0.00    +0.202 C 
ENDBRANCH  17  20
ENDBRANCH   3   7
BRANCH   1  25
ATOM     24  C   UNL     1      -0.128   1.592   0.846  0.00  0.00    +0.277 C 
ATOM     25  O   UNL     1      -0.062   0.203   0.515  0.00  0.00    -0.491 OA
ENDBRANCH   1  25
BRANCH   6  26
ATOM     26  O   UNL     1      -0.078  -2.470  -0.133  0.00  0.00    -0.484 OA
BRANCH  26  27
ATOM     27  C   UNL     1      -0.158  -3.856  -0.474  0.00  0.00    +0.266 C 
BRANCH  27  28
ATOM     28  C   UNL     1       1.229  -4.442  -0.521  0.00  0.00    +0.008 A 
ATOM     29  C   UNL     1       2.326  -3.647  -0.248  0.00  0.00    +0.008 A 
ATOM     30  C   UNL     1       3.598  -4.184  -0.291  0.00  0.00    +0.000 A 
ATOM     31  C   UNL     1       3.775  -5.519  -0.607  0.00  0.00    +0.001 A 
ATOM     32  C   UNL     1       2.679  -6.315  -0.881  0.00  0.00    +0.020 A 
ATOM     33  C   UNL     1       1.405  -5.779  -0.832  0.00  0.00    +0.047 A 
ATOM     34 CL   UNL     1       0.028  -6.780  -1.169  0.00  0.00    -0.083 Cl
ENDBRANCH  27  28
ENDBRANCH  26  27
ENDBRANCH   6  26
TORSDOF 6
