REMARK  Name = ZINC12478798
REMARK  12 active torsions:
REMARK  status: ('A' for Active; 'I' for Inactive)
REMARK    1  A    between atoms: C_1  and  C_2
REMARK    2  A    between atoms: C_5  and  C_7
REMARK    3  A    between atoms: N_10  and  C_12
REMARK    4  A    between atoms: C_12  and  C_13
REMARK    5  A    between atoms: N_15  and  C_16
REMARK    6  A    between atoms: N_15  and  C_23
REMARK    7  A    between atoms: C_23  and  C_25
REMARK    8  A    between atoms: C_23  and  C_30
REMARK    9  A    between atoms: N_32  and  C_33
REMARK   10  A    between atoms: C_33  and  C_34
REMARK   11  A    between atoms: C_33  and  C_35
REMARK   12  A    between atoms: C_33  and  C_36
REMARK                            x       y       z     vdW  Elec       q    Type
REMARK                         _______ _______ _______ _____ _____    ______ ____
ROOT
ATOM      1  C   UNL     1       2.057   6.097   1.959  0.00  0.00    +0.244 C 
ATOM      2  O   UNL     1       1.063   6.755   2.188  0.00  0.00    -0.273 OA
ATOM      3  N   UNL     1       2.086   5.268   0.897  0.00  0.00    -0.251 N 
ENDROOT
BRANCH   3   4
ATOM      4  C   UNL     1       3.233   4.509   0.633  0.00  0.00    +0.073 A 
ATOM      5  C   UNL     1       4.234   5.021  -0.181  0.00  0.00    +0.026 A 
ATOM      6  C   UNL     1       5.364   4.271  -0.440  0.00  0.00    +0.002 A 
ATOM      7  C   UNL     1       5.501   3.010   0.111  0.00  0.00    +0.003 A 
ATOM      8  C   UNL     1       4.507   2.495   0.922  0.00  0.00    +0.040 A 
ATOM      9  C   UNL     1       3.374   3.243   1.190  0.00  0.00    +0.145 A 
ATOM     10  F   UNL     1       2.406   2.742   1.987  0.00  0.00    -0.204 F 
ENDBRANCH   3   4
BRANCH   1  11
ATOM     11  C   UNL     1       3.258   6.208   2.862  0.00  0.00    +0.264 C 
BRANCH  11  15
ATOM     12  C   UNL     1       2.829   8.962   5.028  0.00  0.00    +0.239 A 
ATOM     13  N   UNL     1       2.352   7.955   5.774  0.00  0.00    -0.105 NA
ATOM     14  N   UNL     1       2.458   6.876   5.075  0.00  0.00    -0.045 NA
ATOM     15  N   UNL     1       2.978   7.167   3.933  0.00  0.00    -0.154 N 
ATOM     16  N   UNL     1       3.217   8.432   3.883  0.00  0.00    -0.127 NA
BRANCH  12  21
ATOM     17  C   UNL     1       3.741  13.894   4.815  0.00  0.00    +0.086 C 
ATOM     18  C   UNL     1       3.306  12.545   5.326  0.00  0.00    +0.103 A 
ATOM     19  C   UNL     1       2.767  12.300   6.536  0.00  0.00    +0.045 A 
ATOM     20  C   UNL     1       2.504  10.917   6.598  0.00  0.00    +0.053 A 
ATOM     21  C   UNL     1       2.909  10.388   5.414  0.00  0.00    +0.175 A 
ATOM     22  O   UNL     1       3.390  11.387   4.651  0.00  0.00    -0.457 OA
ENDBRANCH  12  21
ENDBRANCH  11  15
ENDBRANCH   1  11
BRANCH   3  23
ATOM     23  C   UNL     1       0.918   5.160   0.020  0.00  0.00    +0.204 C 
BRANCH  23  24
ATOM     24  C   UNL     1       0.421   3.738   0.017  0.00  0.00    +0.019 A 
ATOM     25  C   UNL     1      -0.855   3.279   0.027  0.00  0.00    +0.013 A 
ATOM     26  C   UNL     1      -1.077   1.915   0.017  0.00  0.00    +0.008 A 
ATOM     27  C   UNL     1      -0.013   1.076   0.008  0.00  0.00    +0.045 A 
ATOM     28  S   UNL     1       1.359   2.219   0.001  0.00  0.00    -0.099 S 
ENDBRANCH  23  24
BRANCH  23  29
ATOM     29  C   UNL     1       1.304   5.560  -1.381  0.00  0.00    +0.239 C 
ATOM     30  O   UNL     1       2.442   5.901  -1.623  0.00  0.00    -0.273 OA
ATOM     31  N   UNL     1       0.384   5.538  -2.366  0.00  0.00    -0.309 N 
ATOM     32  H   UNL     1      -0.527   5.265  -2.173  0.00  0.00    +0.149 HD
BRANCH  31  33
ATOM     33  C   UNL     1       0.758   5.926  -3.728  0.00  0.00    +0.026 C 
ATOM     34  C   UNL     1       1.865   5.000  -4.236  0.00  0.00    +0.031 C 
ATOM     35  C   UNL     1      -0.461   5.814  -4.644  0.00  0.00    +0.031 C 
ATOM     36  C   UNL     1       1.263   7.371  -3.725  0.00  0.00    +0.031 C 
ENDBRANCH  31  33
ENDBRANCH  23  29
ENDBRANCH   3  23
TORSDOF 8
