REMARK  Name = ZINC35867816
REMARK  6 active torsions:
REMARK  status: ('A' for Active; 'I' for Inactive)
REMARK    1  A    between atoms: C_1  and  C_2
REMARK    2  A    between atoms: C_2  and  C_3
REMARK    3  A    between atoms: C_3  and  C_5
REMARK    4  A    between atoms: C_3  and  C_6
REMARK    5  A    between atoms: N_22  and  S_25
REMARK    6  A    between atoms: S_25  and  C_28
REMARK                            x       y       z     vdW  Elec       q    Type
REMARK                         _______ _______ _______ _____ _____    ______ ____
ROOT
ATOM      1  C   UNL     1      -1.406  -2.034  -0.125  0.00  0.00    +0.135 A 
ATOM      2  N   UNL     1      -2.010  -2.599  -1.156  0.00  0.00    -0.216 NA
ATOM      3  C   UNL     1      -2.040  -3.911  -1.322  0.00  0.00    +0.133 A 
ATOM      4  C   UNL     1      -1.403  -4.746  -0.362  0.00  0.00    +0.051 A 
ATOM      5  C   UNL     1      -1.309  -6.207  -0.336  0.00  0.00    -0.025 A 
ATOM      6  C   UNL     1      -0.641  -6.758   0.698  0.00  0.00    -0.004 A 
ATOM      7  S   UNL     1      -0.104  -5.387   1.686  0.00  0.00    -0.073 S 
ATOM      8  C   UNL     1      -0.781  -4.071   0.707  0.00  0.00    +0.114 A 
ATOM      9  N   UNL     1      -0.794  -2.755   0.793  0.00  0.00    -0.224 NA
ATOM     10  C   UNL     1      -0.407  -8.216   0.953  0.00  0.00    +0.043 C 
ATOM     11  C   UNL     1      -1.359  -9.023   0.059  0.00  0.00    +0.005 C 
ATOM     12  C   UNL     1      -1.283  -8.468  -1.366  0.00  0.00    +0.005 C 
ATOM     13  C   UNL     1      -1.931  -7.084  -1.419  0.00  0.00    +0.037 C 
ATOM     14  N   UNL     1      -2.683  -4.465  -2.415  0.00  0.00    -0.312 N 
ATOM     15  C   UNL     1      -4.073  -4.929  -2.309  0.00  0.00    +0.123 C 
ATOM     16  C   UNL     1      -4.907  -4.230  -3.390  0.00  0.00    +0.128 C 
ATOM     17  N   UNL     1      -4.212  -4.364  -4.678  0.00  0.00    -0.174 NA
ATOM     18  C   UNL     1      -2.822  -3.900  -4.785  0.00  0.00    +0.128 C 
ATOM     19  C   UNL     1      -1.990  -4.593  -3.705  0.00  0.00    +0.123 C 
ENDROOT
BRANCH  17  20
ATOM     20  S   UNL     1      -4.982  -5.026  -5.987  0.00  0.00    +0.063 S 
ATOM     21  O   UNL     1      -3.966  -5.525  -6.846  0.00  0.00    -0.153 OA
ATOM     22  O   UNL     1      -6.019  -5.851  -5.473  0.00  0.00    -0.153 OA
BRANCH  20  23
ATOM     23  C   UNL     1      -5.769  -3.707  -6.850  0.00  0.00    +0.131 A 
ATOM     24  C   UNL     1      -5.372  -3.384  -8.111  0.00  0.00    +0.031 A 
ATOM     25  C   UNL     1      -5.981  -2.345  -8.812  0.00  0.00    +0.003 A 
ATOM     26  C   UNL     1      -6.991  -1.623  -8.254  0.00  0.00    +0.010 A 
ATOM     27  C   UNL     1      -7.427  -1.930  -6.955  0.00  0.00    +0.002 A 
ATOM     28  C   UNL     1      -6.813  -2.989  -6.242  0.00  0.00    +0.097 A 
ATOM     29  N   UNL     1      -7.227  -3.288  -5.007  0.00  0.00    -0.253 NA
ATOM     30  C   UNL     1      -8.200  -2.621  -4.435  0.00  0.00    +0.111 A 
ATOM     31  C   UNL     1      -8.850  -1.572  -5.082  0.00  0.00    +0.020 A 
ATOM     32  C   UNL     1      -8.469  -1.208  -6.342  0.00  0.00    +0.011 A 
ENDBRANCH  20  23
ENDBRANCH  17  20
BRANCH   1  33
ATOM     33  C   UNL     1      -1.412  -0.532  -0.000  0.00  0.00    +0.054 C 
ATOM     34  C   UNL     1      -2.091  -0.133   1.311  0.00  0.00    +0.015 C 
BRANCH  33  36
ATOM     35  C   UNL     1       0.019   1.516  -0.007  0.00  0.00    +0.004 C 
ATOM     36  C   UNL     1       0.028  -0.014  -0.008  0.00  0.00    +0.007 C 
ENDBRANCH  33  36
ENDBRANCH   1  33
TORSDOF 4
