REMARK  Name = ZINC12420227
REMARK  3 active torsions:
REMARK  status: ('A' for Active; 'I' for Inactive)
REMARK    1  A    between atoms: C_1  and  O_2
REMARK    2  A    between atoms: O_2  and  C_3
REMARK    3  A    between atoms: C_6  and  C_9
REMARK                            x       y       z     vdW  Elec       q    Type
REMARK                         _______ _______ _______ _____ _____    ______ ____
ROOT
ATOM      1  C   UNL     1       0.123   1.087   0.272  0.00  0.00    +0.028 C 
ATOM      2  C   UNL     1       1.267   1.693  -0.133  0.00  0.00    +0.078 C 
ATOM      3  C   UNL     1       1.497   3.099  -0.513  0.00  0.00    +0.265 C 
ATOM      4  O   UNL     1       0.597   3.918  -0.494  0.00  0.00    -0.269 OA
ATOM      5  N   UNL     1       2.726   3.433  -0.869  0.00  0.00    -0.193 N 
ATOM      6  C   UNL     1       3.732   2.484  -0.890  0.00  0.00    +0.166 C 
ATOM      7  N   UNL     1       4.985   2.637  -1.220  0.00  0.00    -0.279 NA
ATOM      8  S   UNL     1       2.898   0.998  -0.358  0.00  0.00    -0.049 S 
ATOM      9  C   UNL     1       3.009   4.751  -1.234  0.00  0.00    +0.219 A 
ATOM     10  C   UNL     1       3.388   5.832  -0.319  0.00  0.00    +0.203 A 
ATOM     11  N   UNL     1       3.572   6.917  -1.020  0.00  0.00    -0.032 NA
ATOM     12  O   UNL     1       3.329   6.601  -2.380  0.00  0.00    -0.239 OA
ATOM     13  N   UNL     1       2.986   5.229  -2.446  0.00  0.00    -0.031 NA
ATOM     14  N   UNL     1       3.529   5.720   1.060  0.00  0.00    -0.338 N 
ATOM     15  H   UNL     1       5.590   1.880  -1.190  0.00  0.00    +0.189 HD
ATOM     16  H   UNL     1       3.287   4.894   1.506  0.00  0.00    +0.144 HD
ATOM     17  H   UNL     1       3.869   6.468   1.575  0.00  0.00    +0.144 HD
ENDROOT
BRANCH   1  21
ATOM     18  C   UNL     1      -3.332   3.409   1.083  0.00  0.00    +0.120 A 
ATOM     19  C   UNL     1      -3.461   2.162   0.483  0.00  0.00    +0.046 A 
ATOM     20  C   UNL     1      -2.343   1.404   0.217  0.00  0.00    +0.011 A 
ATOM     21  C   UNL     1      -1.074   1.891   0.553  0.00  0.00    -0.024 A 
ATOM     22  C   UNL     1      -0.950   3.146   1.162  0.00  0.00    +0.011 A 
ATOM     23  C   UNL     1      -2.075   3.897   1.419  0.00  0.00    +0.046 A 
BRANCH  18  25
ATOM     24  C   UNL     1      -4.235   5.424   1.962  0.00  0.00    +0.277 C 
ATOM     25  O   UNL     1      -4.438   4.152   1.343  0.00  0.00    -0.495 OA
ENDBRANCH  18  25
ENDBRANCH   1  21
TORSDOF 2
