REMARK  Name = ZINC54391609
REMARK  6 active torsions:
REMARK  status: ('A' for Active; 'I' for Inactive)
REMARK    1  A    between atoms: C_1  and  C_2
REMARK    2  A    between atoms: N_4  and  C_5
REMARK    3  A    between atoms: N_13  and  C_15
REMARK    4  A    between atoms: C_15  and  C_16
REMARK    5  A    between atoms: C_16  and  C_17
REMARK    6  A    between atoms: N_22  and  C_23
REMARK                            x       y       z     vdW  Elec       q    Type
REMARK                         _______ _______ _______ _____ _____    ______ ____
ROOT
ATOM      1  C   UNL     1      -1.563  -1.651   0.263  0.00  0.00    +0.037 A 
ATOM      2  C   UNL     1      -0.364  -2.324   0.075  0.00  0.00    +0.023 A 
ATOM      3  C   UNL     1      -0.374  -3.679  -0.192  0.00  0.00    +0.002 A 
ATOM      4  C   UNL     1      -1.574  -4.357  -0.274  0.00  0.00    +0.002 A 
ATOM      5  C   UNL     1      -2.775  -3.688  -0.088  0.00  0.00    -0.059 A 
ATOM      6  C   UNL     1      -2.771  -2.338   0.188  0.00  0.00    -0.027 A 
ATOM      7  C   UNL     1      -4.052  -1.577   0.411  0.00  0.00    +0.018 C 
ATOM      8  C   UNL     1      -5.237  -2.396  -0.103  0.00  0.00    -0.074 C 
ATOM      9  N   UNL     1      -5.155  -3.748   0.468  0.00  0.00    +0.383 N 
ATOM     10  C   UNL     1      -4.058  -4.471  -0.191  0.00  0.00    -0.043 C 
ATOM     11  H   UNL     1      -4.980  -3.686   1.460  0.00  0.00    -0.081 HD
ENDROOT
BRANCH   1  15
ATOM     12  C   UNL     1      -0.656   2.002   0.204  0.00  0.00    +0.109 C 
ATOM     13  C   UNL     1      -0.604   0.511  -0.002  0.00  0.00    +0.214 C 
ATOM     14  O   UNL     1       0.296   0.019  -0.651  0.00  0.00    -0.276 OA
ATOM     15  N   UNL     1      -1.557  -0.278   0.533  0.00  0.00    -0.285 N 
ATOM     16  H   UNL     1      -2.239   0.107   1.106  0.00  0.00    +0.155 HD
ENDBRANCH   1  15
BRANCH   9  17
ATOM     17  C   UNL     1      -6.419  -4.459   0.234  0.00  0.00    -0.069 C 
BRANCH  17  18
ATOM     18  C   UNL     1      -6.378  -5.818   0.935  0.00  0.00    +0.078 C 
BRANCH  18  19
ATOM     19  C   UNL     1      -7.675  -6.547   0.694  0.00  0.00    +0.219 C 
ATOM     20  O   UNL     1      -8.546  -6.030   0.028  0.00  0.00    -0.275 OA
ATOM     21  N   UNL     1      -7.867  -7.773   1.220  0.00  0.00    -0.240 N 
ATOM     22  C   UNL     1      -9.027  -8.424   1.005  0.00  0.00    +0.310 C 
ATOM     23  O   UNL     1      -9.900  -7.907   0.337  0.00  0.00    -0.252 OA
ATOM     24  N   UNL     1      -9.219  -9.650   1.531  0.00  0.00    -0.269 N 
ATOM     25  H   UNL     1      -7.170  -8.186   1.754  0.00  0.00    +0.159 HD
ATOM     26  H   UNL     1      -8.554 -10.033   2.125  0.00  0.00    +0.156 HD
BRANCH  24  27
ATOM     27  C   UNL     1     -10.377 -10.372   1.220  0.00  0.00    +0.035 A 
ATOM     28  C   UNL     1     -10.953 -11.206   2.169  0.00  0.00    +0.023 A 
ATOM     29  C   UNL     1     -12.095 -11.917   1.859  0.00  0.00    +0.002 A 
ATOM     30  C   UNL     1     -12.666 -11.798   0.605  0.00  0.00    +0.000 A 
ATOM     31  C   UNL     1     -12.095 -10.969  -0.343  0.00  0.00    +0.002 A 
ATOM     32  C   UNL     1     -10.956 -10.251  -0.037  0.00  0.00    +0.023 A 
ENDBRANCH  24  27
ENDBRANCH  18  19
ENDBRANCH  17  18
ENDBRANCH   9  17
TORSDOF 5
