REMARK  Name = ZINC03881133
REMARK  5 active torsions:
REMARK  status: ('A' for Active; 'I' for Inactive)
REMARK    1  A    between atoms: C_1  and  C_2
REMARK    2  A    between atoms: C_4  and  C_19
REMARK    3  A    between atoms: C_5  and  N_9
REMARK    4  A    between atoms: C_6  and  C_8
REMARK    5  A    between atoms: C_10  and  N_18
REMARK                            x       y       z     vdW  Elec       q    Type
REMARK                         _______ _______ _______ _____ _____    ______ ____
ROOT
ATOM      1  N   UNL     1      -0.076   3.938   0.024  0.00  0.00    -0.277 N 
ATOM      2  C   UNL     1       1.144   3.304   0.009  0.00  0.00    +0.108 A 
ATOM      3  C   UNL     1       1.189   1.938   0.001  0.00  0.00    +0.112 A 
ATOM      4  C   UNL     1      -0.015   1.215   0.009  0.00  0.00    +0.254 A 
ATOM      5  O   UNL     1       0.002  -0.004   0.002  0.00  0.00    -0.268 OA
ATOM      6  N   UNL     1      -1.188   1.877   0.018  0.00  0.00    -0.302 N 
ATOM      7  H   UNL     1      -2.046   1.364   0.015  0.00  0.00    +0.171 HD
ATOM      8  C   UNL     1      -1.216   3.222   0.031  0.00  0.00    +0.166 A 
ATOM      9  S   UNL     1      -2.722   4.034   0.049  0.00  0.00    -0.012 S 
ENDROOT
BRANCH   1  14
ATOM     10  C   UNL     1      -0.309   9.608   0.057  0.00  0.00    +0.044 C 
ATOM     11  C   UNL     1      -0.247   8.102   0.048  0.00  0.00    -0.050 A 
ATOM     12  C   UNL     1      -0.230   7.419  -1.154  0.00  0.00    +0.008 A 
ATOM     13  C   UNL     1      -0.174   6.040  -1.165  0.00  0.00    -0.026 A 
ATOM     14  C   UNL     1      -0.134   5.338   0.032  0.00  0.00    +0.056 A 
ATOM     15  C   UNL     1      -0.156   6.026   1.238  0.00  0.00    -0.026 A 
ATOM     16  C   UNL     1      -0.208   7.406   1.242  0.00  0.00    +0.008 A 
ATOM     17  C   UNL     1      -0.120   5.268   2.540  0.00  0.00    +0.046 C 
ATOM     18  C   UNL     1      -0.156   5.296  -2.476  0.00  0.00    +0.046 C 
ENDBRANCH   1  14
BRANCH   2  19
ATOM     19  N   UNL     1       2.304   4.035   0.001  0.00  0.00    -0.344 N 
ATOM     20  H   UNL     1       3.162   3.583  -0.010  0.00  0.00    +0.144 HD
ATOM     21  H   UNL     1       2.267   5.005   0.007  0.00  0.00    +0.144 HD
ENDBRANCH   2  19
TORSDOF 2
