REMARK  Name = ZINC63138045
REMARK  9 active torsions:
REMARK  status: ('A' for Active; 'I' for Inactive)
REMARK    1  A    between atoms: C_1  and  O_2
REMARK    2  A    between atoms: O_2  and  C_3
REMARK    3  A    between atoms: C_7  and  C_9
REMARK    4  A    between atoms: C_9  and  N_10
REMARK    5  A    between atoms: C_30  and  C_32
REMARK    6  A    between atoms: C_36  and  O_40
REMARK    7  A    between atoms: C_37  and  O_38
REMARK    8  A    between atoms: O_38  and  C_39
REMARK    9  A    between atoms: O_40  and  C_41
REMARK                            x       y       z     vdW  Elec       q    Type
REMARK                         _______ _______ _______ _____ _____    ______ ____
ROOT
ATOM      1  N   UNL     1       2.667  -5.117  -1.682  0.00  0.00    -0.287 N 
ATOM      2  C   UNL     1       3.967  -5.274  -2.360  0.00  0.00    +0.204 C 
ATOM      3  C   UNL     1       5.010  -4.495  -1.586  0.00  0.00    +0.234 C 
ATOM      4  O   UNL     1       5.830  -3.800  -2.149  0.00  0.00    -0.274 OA
ATOM      5  N   UNL     1       4.984  -4.611  -0.218  0.00  0.00    -0.279 N 
ATOM      6  C   UNL     1       4.002  -5.536   0.309  0.00  0.00    +0.167 C 
ATOM      7  C   UNL     1       2.662  -5.261  -0.324  0.00  0.00    +0.237 C 
ATOM      8  O   UNL     1       1.644  -5.178   0.330  0.00  0.00    -0.274 OA
ATOM      9  C   UNL     1       3.907  -5.702   1.803  0.00  0.00    +0.065 C 
ATOM     10  C   UNL     1       4.745  -4.659   2.489  0.00  0.00    -0.034 C 
ATOM     11  C   UNL     1       4.536  -3.918   3.569  0.00  0.00    -0.001 A 
ATOM     12  C   UNL     1       3.418  -3.874   4.526  0.00  0.00    +0.010 A 
ATOM     13  C   UNL     1       3.526  -2.968   5.534  0.00  0.00    +0.001 A 
ATOM     14  C   UNL     1       4.622  -2.112   5.684  0.00  0.00    +0.002 A 
ATOM     15  C   UNL     1       5.695  -2.087   4.854  0.00  0.00    +0.026 A 
ATOM     16  C   UNL     1       5.698  -2.998   3.757  0.00  0.00    +0.043 A 
ATOM     17  N   UNL     1       6.586  -3.192   2.830  0.00  0.00    -0.375 N 
ATOM     18  C   UNL     1       6.121  -4.273   1.951  0.00  0.00    +0.131 C 
ATOM     19  C   UNL     1       5.899  -3.765   0.535  0.00  0.00    +0.137 C 
ATOM     20  H   UNL     1       7.419  -2.704   2.733  0.00  0.00    +0.160 HD
ENDROOT
BRANCH  19  21
ATOM     21  C   UNL     1       7.212  -3.687  -0.201  0.00  0.00    +0.021 A 
ATOM     22  C   UNL     1       7.893  -4.846  -0.523  0.00  0.00    +0.009 A 
ATOM     23  C   UNL     1       9.098  -4.778  -1.198  0.00  0.00    +0.004 A 
ATOM     24  C   UNL     1       9.627  -3.551  -1.552  0.00  0.00    +0.049 A 
ATOM     25  C   UNL     1       8.950  -2.386  -1.232  0.00  0.00    +0.162 A 
ATOM     26  C   UNL     1       7.733  -2.455  -0.558  0.00  0.00    +0.166 A 
BRANCH  26  27
ATOM     27  O   UNL     1       7.062  -1.314  -0.246  0.00  0.00    -0.491 OA
ATOM     28  C   UNL     1       7.465  -0.627   0.940  0.00  0.00    +0.277 C 
ENDBRANCH  26  27
BRANCH  25  29
ATOM     29  O   UNL     1       9.469  -1.178  -1.580  0.00  0.00    -0.491 OA
ATOM     30  C   UNL     1      10.717  -1.185  -2.274  0.00  0.00    +0.277 C 
ENDBRANCH  25  29
ENDBRANCH  19  21
BRANCH   1  31
ATOM     31  C   UNL     1       1.443  -4.814  -2.428  0.00  0.00    +0.143 C 
BRANCH  31  36
ATOM     32  C   UNL     1       0.424  -1.257  -1.659  0.00  0.00    +0.120 A 
ATOM     33  C   UNL     1       0.973  -0.576  -2.736  0.00  0.00    +0.045 A 
ATOM     34  C   UNL     1       1.670  -1.268  -3.707  0.00  0.00    +0.004 A 
ATOM     35  C   UNL     1       1.822  -2.639  -3.606  0.00  0.00    +0.005 A 
ATOM     36  C   UNL     1       1.276  -3.320  -2.534  0.00  0.00    -0.027 A 
ATOM     37  C   UNL     1       0.582  -2.632  -1.558  0.00  0.00    +0.050 A 
BRANCH  32  39
ATOM     38  C   UNL     1      -0.386   0.835  -0.872  0.00  0.00    +0.277 C 
ATOM     39  O   UNL     1      -0.262  -0.579  -0.703  0.00  0.00    -0.495 OA
ENDBRANCH  32  39
ENDBRANCH  31  36
ENDBRANCH   1  31
TORSDOF 6
