REMARK  Name = ZINC39982602
REMARK  7 active torsions:
REMARK  status: ('A' for Active; 'I' for Inactive)
REMARK    1  A    between atoms: C_1  and  C_2
REMARK    2  A    between atoms: C_2  and  C_4
REMARK    3  A    between atoms: C_2  and  S_18
REMARK    4  A    between atoms: N_9  and  C_12
REMARK    5  A    between atoms: S_18  and  C_19
REMARK    6  A    between atoms: C_23  and  C_28
REMARK    7  A    between atoms: N_24  and  C_25
REMARK                            x       y       z     vdW  Elec       q    Type
REMARK                         _______ _______ _______ _____ _____    ______ ____
ROOT
ATOM      1  C   UNL     1      -0.263  -0.315   2.830  0.00  0.00    +0.238 C 
ATOM      2  N   UNL     1      -1.621  -0.883   2.807  0.00  0.00    -0.237 N 
ATOM      3  N   UNL     1      -2.499   0.177   3.065  0.00  0.00    -0.169 NA
ATOM      4  C   UNL     1      -1.852   1.298   3.238  0.00  0.00    +0.147 C 
ATOM      5  N   UNL     1      -0.469   1.114   3.117  0.00  0.00    -0.282 N 
ATOM      6  H   UNL     1      -1.861  -1.809   2.645  0.00  0.00    +0.171 HD
ENDROOT
BRANCH   4   7
ATOM      7  C   UNL     1      -2.464   2.531   3.511  0.00  0.00    +0.022 C 
ATOM      8  C   UNL     1      -3.819   2.767   3.745  0.00  0.00    +0.006 A 
ATOM      9  C   UNL     1      -4.942   1.913   3.785  0.00  0.00    +0.010 A 
ATOM     10  C   UNL     1      -6.171   2.429   4.043  0.00  0.00    +0.001 A 
ATOM     11  C   UNL     1      -6.358   3.793   4.273  0.00  0.00    +0.002 A 
ATOM     12  C   UNL     1      -5.325   4.671   4.250  0.00  0.00    +0.026 A 
ATOM     13  C   UNL     1      -4.010   4.206   3.987  0.00  0.00    +0.043 A 
ATOM     14  N   UNL     1      -2.858   4.844   3.912  0.00  0.00    -0.380 N 
ATOM     15  C   UNL     1      -1.791   3.882   3.619  0.00  0.00    +0.152 C 
ATOM     16  H   UNL     1      -2.736   5.798   4.036  0.00  0.00    +0.160 HD
ENDBRANCH   4   7
BRANCH   5  17
ATOM     17  C   UNL     1       0.569   2.139   3.249  0.00  0.00    +0.078 C 
ATOM     18  C   UNL     1       2.019   1.710   3.013  0.00  0.00    +0.024 C 
ATOM     19  C   UNL     1       1.534   2.019   4.431  0.00  0.00    +0.024 C 
ENDBRANCH   5  17
BRANCH   1  20
ATOM     20  S   UNL     1       0.541  -0.529   1.218  0.00  0.00    -0.106 S 
BRANCH  20  22
ATOM     21  C   UNL     1      -0.753   1.593   0.075  0.00  0.00    +0.029 C 
ATOM     22  C   UNL     1      -0.695   0.065   0.029  0.00  0.00    +0.133 C 
BRANCH  22  23
ATOM     23  C   UNL     1      -0.312  -0.382  -1.358  0.00  0.00    +0.228 C 
ATOM     24  O   UNL     1       0.832  -0.706  -1.597  0.00  0.00    -0.274 OA
ATOM     25  N   UNL     1      -1.241  -0.422  -2.334  0.00  0.00    -0.298 N 
ATOM     26  C   UNL     1      -2.630  -0.027  -2.060  0.00  0.00    +0.126 C 
ATOM     27  C   UNL     1      -3.032   1.071  -3.052  0.00  0.00    +0.124 C 
ATOM     28  N   UNL     1      -2.674   0.632  -4.409  0.00  0.00    -0.327 N 
ATOM     29  C   UNL     1      -1.285   0.237  -4.682  0.00  0.00    +0.124 C 
ATOM     30  C   UNL     1      -0.882  -0.856  -3.691  0.00  0.00    +0.126 C 
BRANCH  28  31
ATOM     31  C   UNL     1      -3.637   0.591  -5.419  0.00  0.00    +0.030 A 
ATOM     32  C   UNL     1      -4.915   1.081  -5.184  0.00  0.00    +0.023 A 
ATOM     33  C   UNL     1      -5.865   1.039  -6.185  0.00  0.00    +0.002 A 
ATOM     34  C   UNL     1      -5.545   0.509  -7.422  0.00  0.00    +0.000 A 
ATOM     35  C   UNL     1      -4.273   0.021  -7.660  0.00  0.00    +0.002 A 
ATOM     36  C   UNL     1      -3.317   0.065  -6.665  0.00  0.00    +0.023 A 
ENDBRANCH  28  31
ENDBRANCH  22  23
ENDBRANCH  20  22
ENDBRANCH   1  20
TORSDOF 6
