REMARK  Name = ZINC36266765
REMARK  6 active torsions:
REMARK  status: ('A' for Active; 'I' for Inactive)
REMARK    1  A    between atoms: C_1  and  C_2
REMARK    2  A    between atoms: C_5  and  S_9
REMARK    3  A    between atoms: S_9  and  N_12
REMARK    4  A    between atoms: N_12  and  C_13
REMARK    5  A    between atoms: C_13  and  C_14
REMARK    6  A    between atoms: C_14  and  N_21
REMARK                            x       y       z     vdW  Elec       q    Type
REMARK                         _______ _______ _______ _____ _____    ______ ____
ROOT
ATOM      1  N   UNL     1       0.496  -5.277   2.729  0.00  0.00    -0.191 NA
ATOM      2  H   UNL     1       0.369  -6.173   3.077  0.00  0.00    +0.148 HD
ENDROOT
BRANCH   1   3
ATOM      3  S   UNL     1      -0.742  -4.179   2.798  0.00  0.00    +0.059 S 
ATOM      4  O   UNL     1      -0.208  -3.000   3.385  0.00  0.00    -0.153 OA
ATOM      5  O   UNL     1      -1.861  -4.862   3.345  0.00  0.00    -0.153 OA
BRANCH   3  10
ATOM      6  C   UNL     1      -2.189  -2.766  -2.888  0.00  0.00    +0.044 C 
ATOM      7  C   UNL     1      -1.828  -3.120  -1.468  0.00  0.00    -0.049 A 
ATOM      8  C   UNL     1      -1.309  -2.154  -0.626  0.00  0.00    +0.005 A 
ATOM      9  C   UNL     1      -0.978  -2.477   0.677  0.00  0.00    +0.030 A 
ATOM     10  C   UNL     1      -1.165  -3.766   1.138  0.00  0.00    +0.119 A 
ATOM     11  C   UNL     1      -1.685  -4.733   0.296  0.00  0.00    +0.044 A 
ATOM     12  C   UNL     1      -2.021  -4.408  -1.006  0.00  0.00    +0.020 A 
ATOM     13 BR   UNL     1      -1.941  -6.497   0.927  0.00  0.00    -0.048 Br
ENDBRANCH   3  10
ENDBRANCH   1   3
BRANCH   1  14
ATOM     14  C   UNL     1       1.783  -4.894   2.144  0.00  0.00    +0.093 C 
BRANCH  14  15
ATOM     15  C   UNL     1       2.845  -5.925   2.529  0.00  0.00    -0.057 C 
ATOM     16  C   UNL     1       4.106  -5.685   1.675  0.00  0.00    -0.012 C 
ATOM     17  C   UNL     1       4.964  -4.516   2.194  0.00  0.00    -0.001 C 
ATOM     18  C   UNL     1       4.133  -3.337   2.623  0.00  0.00    -0.000 C 
ATOM     19  C   UNL     1       3.875  -3.445   4.140  0.00  0.00    -0.000 C 
ATOM     20  C   UNL     1       2.801  -4.375   4.455  0.00  0.00    -0.001 C 
ATOM     21  C   UNL     1       3.119  -5.815   4.004  0.00  0.00    -0.012 C 
BRANCH  15  22
ATOM     22  N   UNL     1       2.328  -7.270   2.240  0.00  0.00    +0.383 N 
ATOM     23  H   UNL     1       2.119  -7.346   1.256  0.00  0.00    -0.089 HD
ATOM     24  H   UNL     1       3.022  -7.958   2.491  0.00  0.00    -0.089 HD
ATOM     25  H   UNL     1       1.488  -7.429   2.776  0.00  0.00    -0.089 HD
ENDBRANCH  15  22
ENDBRANCH  14  15
ENDBRANCH   1  14
TORSDOF 5
