REMARK  Name = ZINC67102664
REMARK  8 active torsions:
REMARK  status: ('A' for Active; 'I' for Inactive)
REMARK    1  A    between atoms: C_1  and  C_2
REMARK    2  A    between atoms: C_2  and  N_3
REMARK    3  A    between atoms: N_3  and  C_4
REMARK    4  A    between atoms: C_4  and  C_6
REMARK    5  A    between atoms: C_4  and  C_7
REMARK    6  A    between atoms: N_18  and  N_19
REMARK    7  A    between atoms: C_20  and  C_22
REMARK    8  A    between atoms: C_26  and  C_28
REMARK                            x       y       z     vdW  Elec       q    Type
REMARK                         _______ _______ _______ _____ _____    ______ ____
ROOT
ATOM      1  N   UNL     1       0.687  -0.482  -1.201  0.00  0.00    -0.275 N 
ATOM      2  C   UNL     1      -0.025  -0.802  -2.300  0.00  0.00    +0.319 C 
ATOM      3  O   UNL     1       0.535  -1.276  -3.269  0.00  0.00    -0.251 OA
ATOM      4  N   UNL     1      -1.356  -0.596  -2.324  0.00  0.00    -0.218 N 
ATOM      5  H   UNL     1      -1.791  -0.147  -1.582  0.00  0.00    +0.174 HD
ENDROOT
BRANCH   4   6
ATOM      6  N   UNL     1      -2.112  -1.028  -3.422  0.00  0.00    -0.229 N 
ATOM      7  C   UNL     1      -3.455  -0.914  -3.402  0.00  0.00    +0.260 C 
ATOM      8  O   UNL     1      -4.010  -0.436  -2.432  0.00  0.00    -0.269 OA
ATOM      9  H   UNL     1      -1.669  -1.409  -4.196  0.00  0.00    +0.173 HD
BRANCH   7  10
ATOM     10  C   UNL     1      -4.253  -1.370  -4.560  0.00  0.00    +0.038 A 
ATOM     11  C   UNL     1      -3.619  -1.925  -5.673  0.00  0.00    +0.013 A 
ATOM     12  C   UNL     1      -4.369  -2.349  -6.750  0.00  0.00    +0.001 A 
ATOM     13  C   UNL     1      -5.747  -2.225  -6.729  0.00  0.00    +0.003 A 
ATOM     14  C   UNL     1      -6.382  -1.676  -5.629  0.00  0.00    -0.050 A 
ATOM     15  C   UNL     1      -5.644  -1.254  -4.543  0.00  0.00    +0.016 A 
ATOM     16  C   UNL     1      -7.883  -1.545  -5.615  0.00  0.00    +0.044 C 
ENDBRANCH   7  10
ENDBRANCH   4   6
BRANCH   1  18
ATOM     17  C   UNL     1      -0.288   1.472  -0.100  0.00  0.00    +0.024 C 
ATOM     18  C   UNL     1      -0.001  -0.027   0.010  0.00  0.00    +0.107 C 
ENDBRANCH   1  18
BRANCH   1  19
ATOM     19  C   UNL     1       2.148  -0.591  -1.217  0.00  0.00    +0.140 C 
ATOM     20  C   UNL     1       2.764   0.781  -0.936  0.00  0.00    +0.036 C 
BRANCH  19  21
ATOM     21  C   UNL     1       2.591  -1.567  -0.157  0.00  0.00    +0.126 A 
ATOM     22  C   UNL     1       3.578  -2.461  -0.303  0.00  0.00    +0.055 A 
ATOM     23  C   UNL     1       3.660  -3.190   0.969  0.00  0.00    +0.020 A 
ATOM     24  C   UNL     1       4.463  -4.223   1.450  0.00  0.00    +0.011 A 
ATOM     25  C   UNL     1       4.277  -4.690   2.721  0.00  0.00    +0.001 A 
ATOM     26  C   UNL     1       3.294  -4.143   3.534  0.00  0.00    +0.004 A 
ATOM     27  C   UNL     1       2.491  -3.121   3.075  0.00  0.00    +0.047 A 
ATOM     28  C   UNL     1       2.664  -2.631   1.787  0.00  0.00    +0.135 A 
ATOM     29  O   UNL     1       2.056  -1.663   1.073  0.00  0.00    -0.458 OA
ENDBRANCH  19  21
ENDBRANCH   1  19
TORSDOF 5
