REMARK  Name = ZINC67396100
REMARK  8 active torsions:
REMARK  status: ('A' for Active; 'I' for Inactive)
REMARK    1  A    between atoms: C_1  and  C_2
REMARK    2  A    between atoms: C_5  and  C_30
REMARK    3  A    between atoms: C_14  and  C_16
REMARK    4  A    between atoms: N_18  and  C_19
REMARK    5  A    between atoms: C_19  and  C_21
REMARK    6  A    between atoms: C_19  and  C_22
REMARK    7  A    between atoms: C_22  and  C_23
REMARK    8  A    between atoms: C_26  and  O_29
REMARK                            x       y       z     vdW  Elec       q    Type
REMARK                         _______ _______ _______ _____ _____    ______ ____
ROOT
ATOM      1  C   UNL     1      -1.109  -1.514   2.694  0.00  0.00    +0.028 C 
ATOM      2  C   UNL     1      -0.011  -0.453   2.596  0.00  0.00    +0.080 C 
ATOM      3  C   UNL     1      -0.625   0.945   2.750  0.00  0.00    +0.040 C 
ATOM      4  C   UNL     1      -1.712   1.126   1.691  0.00  0.00    +0.108 C 
ATOM      5  C   UNL     1      -1.180   0.782   0.325  0.00  0.00    -0.014 A 
ATOM      6  C   UNL     1      -1.833   1.275  -0.792  0.00  0.00    +0.006 A 
ATOM      7  C   UNL     1      -1.372   0.975  -2.059  0.00  0.00    +0.000 A 
ATOM      8  C   UNL     1      -0.253   0.178  -2.220  0.00  0.00    +0.002 A 
ATOM      9  C   UNL     1       0.405  -0.317  -1.112  0.00  0.00    +0.024 A 
ATOM     10  C   UNL     1      -0.057  -0.015   0.165  0.00  0.00    +0.041 A 
ATOM     11  N   UNL     1       0.630  -0.520   1.276  0.00  0.00    -0.261 N 
ATOM     12  C   UNL     1       1.858  -1.059   1.137  0.00  0.00    +0.306 C 
ATOM     13  O   UNL     1       2.433  -0.992   0.071  0.00  0.00    -0.265 OA
ENDROOT
BRANCH   4  14
ATOM     14  C   UNL     1      -2.176   2.560   1.694  0.00  0.00    +0.218 C 
ATOM     15  O   UNL     1      -1.436   3.436   2.088  0.00  0.00    -0.275 OA
ATOM     16  N   UNL     1      -3.413   2.869   1.258  0.00  0.00    -0.329 N 
ATOM     17  H   UNL     1      -3.979   2.180   0.876  0.00  0.00    +0.145 HD
ATOM     18  H   UNL     1      -3.738   3.780   1.327  0.00  0.00    +0.145 HD
ENDBRANCH   4  14
BRANCH  12  19
ATOM     19  C   UNL     1       2.510  -1.739   2.296  0.00  0.00    +0.300 C 
ATOM     20  O   UNL     1       1.892  -1.907   3.327  0.00  0.00    -0.265 OA
ATOM     21  N   UNL     1       3.785  -2.165   2.197  0.00  0.00    -0.305 N 
ATOM     22  H   UNL     1       4.278  -2.030   1.373  0.00  0.00    +0.149 HD
BRANCH  21  23
ATOM     23  C   UNL     1       4.425  -2.832   3.334  0.00  0.00    +0.075 C 
ATOM     24  C   UNL     1       4.079  -4.322   3.311  0.00  0.00    +0.028 C 
BRANCH  23  25
ATOM     25  C   UNL     1       5.942  -2.659   3.238  0.00  0.00    +0.057 C 
BRANCH  25  26
ATOM     26  C   UNL     1       6.291  -1.200   3.383  0.00  0.00    -0.045 A 
ATOM     27  C   UNL     1       6.355  -0.391   2.264  0.00  0.00    +0.007 A 
ATOM     28  C   UNL     1       6.676   0.947   2.394  0.00  0.00    +0.045 A 
ATOM     29  C   UNL     1       6.933   1.478   3.650  0.00  0.00    +0.117 A 
ATOM     30  C   UNL     1       6.868   0.664   4.771  0.00  0.00    +0.045 A 
ATOM     31  C   UNL     1       6.542  -0.671   4.636  0.00  0.00    +0.007 A 
BRANCH  29  32
ATOM     32  O   UNL     1       7.249   2.793   3.781  0.00  0.00    -0.507 OA
ATOM     33  H   UNL     1       6.484   3.370   3.911  0.00  0.00    +0.292 HD
ENDBRANCH  29  32
ENDBRANCH  25  26
ENDBRANCH  23  25
ENDBRANCH  21  23
ENDBRANCH  12  19
TORSDOF 6
