REMARK  Name = ZINC21626863
REMARK  9 active torsions:
REMARK  status: ('A' for Active; 'I' for Inactive)
REMARK    1  A    between atoms: C_1  and  C_2
REMARK    2  A    between atoms: C_6  and  N_9
REMARK    3  A    between atoms: C_7  and  C_8
REMARK    4  A    between atoms: C_22  and  S_23
REMARK    5  A    between atoms: S_23  and  C_24
REMARK    6  A    between atoms: C_24  and  C_25
REMARK    7  A    between atoms: N_27  and  C_28
REMARK    8  A    between atoms: C_28  and  C_30
REMARK    9  A    between atoms: C_28  and  C_31
REMARK                            x       y       z     vdW  Elec       q    Type
REMARK                         _______ _______ _______ _____ _____    ______ ____
ROOT
ATOM      1  N   UNL     1       1.925  -9.519   6.082  0.00  0.00    -0.245 N 
ATOM      2  C   UNL     1       3.124 -10.124   6.206  0.00  0.00    +0.268 A 
ATOM      3  O   UNL     1       3.248 -11.113   6.904  0.00  0.00    -0.267 OA
ATOM      4  C   UNL     1       4.284  -9.564   5.490  0.00  0.00    +0.064 A 
ATOM      5  C   UNL     1       5.547 -10.146   5.589  0.00  0.00    +0.015 A 
ATOM      6  C   UNL     1       6.608  -9.594   4.904  0.00  0.00    +0.001 A 
ATOM      7  C   UNL     1       6.425  -8.466   4.119  0.00  0.00    +0.002 A 
ATOM      8  C   UNL     1       5.179  -7.880   4.012  0.00  0.00    +0.027 A 
ATOM      9  C   UNL     1       4.100  -8.421   4.694  0.00  0.00    +0.064 A 
ATOM     10  N   UNL     1       2.835  -7.855   4.607  0.00  0.00    -0.255 N 
ATOM     11  C   UNL     1       1.773  -8.394   5.286  0.00  0.00    +0.245 A 
ATOM     12  N   UNL     1       0.727  -7.655   5.005  0.00  0.00    -0.109 NA
ATOM     13  N   UNL     1       1.060  -6.701   4.211  0.00  0.00    -0.120 NA
ATOM     14  C   UNL     1       2.340  -6.770   3.935  0.00  0.00    +0.198 A 
ENDROOT
BRANCH   1  20
ATOM     15  C   UNL     1      -0.926  -9.640  10.087  0.00  0.00    +0.044 C 
ATOM     16  C   UNL     1      -0.590 -10.118   8.698  0.00  0.00    -0.046 A 
ATOM     17  C   UNL     1      -1.379 -11.076   8.087  0.00  0.00    +0.004 A 
ATOM     18  C   UNL     1      -1.074 -11.518   6.813  0.00  0.00    +0.002 A 
ATOM     19  C   UNL     1       0.018 -11.000   6.144  0.00  0.00    +0.026 A 
ATOM     20  C   UNL     1       0.815 -10.042   6.756  0.00  0.00    +0.056 A 
ATOM     21  C   UNL     1       0.506  -9.600   8.036  0.00  0.00    -0.024 A 
ATOM     22  C   UNL     1       1.365  -8.556   8.702  0.00  0.00    +0.046 C 
ENDBRANCH   1  20
BRANCH  14  23
ATOM     23  S   UNL     1       3.248  -5.679   2.891  0.00  0.00    -0.076 S 
BRANCH  23  24
ATOM     24  C   UNL     1       2.008  -4.484   2.320  0.00  0.00    +0.173 C 
BRANCH  24  25
ATOM     25  C   UNL     1       2.662  -3.480   1.406  0.00  0.00    +0.224 C 
ATOM     26  O   UNL     1       3.847  -3.562   1.163  0.00  0.00    -0.275 OA
ATOM     27  N   UNL     1       1.929  -2.490   0.859  0.00  0.00    -0.308 N 
ATOM     28  H   UNL     1       0.854  -2.415   1.079  0.00  0.00    +0.149 HD
BRANCH  27  29
ATOM     29  C   UNL     1       2.565  -1.514  -0.030  0.00  0.00    +0.107 C 
ATOM     30  C   UNL     1       2.606  -2.072  -1.454  0.00  0.00    +0.033 C 
BRANCH  29  31
ATOM     31  C   UNL     1       1.773  -0.232  -0.016  0.00  0.00    +0.010 A 
ATOM     32  C   UNL     1       2.220   1.048  -0.013  0.00  0.00    +0.013 A 
ATOM     33  C   UNL     1       1.300   2.079   0.001  0.00  0.00    +0.008 A 
ATOM     34  C   UNL     1      -0.022   1.781   0.012  0.00  0.00    +0.045 A 
ATOM     35  S   UNL     1       0.002  -0.004   0.002  0.00  0.00    -0.100 S 
ENDBRANCH  29  31
ENDBRANCH  27  29
ENDBRANCH  24  25
ENDBRANCH  23  24
ENDBRANCH  14  23
TORSDOF 6
