REMARK  Name = ZINC08860798
REMARK  11 active torsions:
REMARK  status: ('A' for Active; 'I' for Inactive)
REMARK    1  A    between atoms: C_1  and  C_2
REMARK    2  A    between atoms: C_2  and  O_3
REMARK    3  A    between atoms: O_3  and  C_4
REMARK    4  A    between atoms: C_4  and  C_6
REMARK    5  A    between atoms: C_6  and  O_7
REMARK    6  A    between atoms: O_7  and  C_8
REMARK    7  A    between atoms: C_11  and  C_16
REMARK    8  A    between atoms: C_13  and  O_14
REMARK    9  A    between atoms: O_14  and  C_15
REMARK   10  A    between atoms: N_20  and  C_32
REMARK   11  A    between atoms: N_23  and  C_26
REMARK                            x       y       z     vdW  Elec       q    Type
REMARK                         _______ _______ _______ _____ _____    ______ ____
ROOT
ATOM      1  C   UNL     1      -2.393   2.173  -0.987  0.00  0.00    +0.026 C 
ATOM      2  C   UNL     1      -1.281   2.362  -0.189  0.00  0.00    +0.101 C 
ATOM      3  C   UNL     1      -0.137   1.431  -0.229  0.00  0.00    +0.262 C 
ATOM      4  O   UNL     1      -0.141   0.466  -0.970  0.00  0.00    -0.269 OA
ATOM      5  N   UNL     1       0.917   1.682   0.575  0.00  0.00    -0.217 N 
ATOM      6  C   UNL     1       0.935   2.741   1.397  0.00  0.00    +0.158 C 
ATOM      7  S   UNL     1       2.316   2.979   2.381  0.00  0.00    -0.017 S 
ATOM      8  N   UNL     1      -0.069   3.624   1.490  0.00  0.00    -0.217 N 
ATOM      9  C   UNL     1      -1.188   3.500   0.746  0.00  0.00    +0.262 C 
ATOM     10  O   UNL     1      -2.093   4.308   0.840  0.00  0.00    -0.269 OA
ENDROOT
BRANCH   1  14
ATOM     11  C   UNL     1      -5.181   5.320  -1.526  0.00  0.00    +0.163 A 
ATOM     12  C   UNL     1      -5.630   4.013  -1.373  0.00  0.00    +0.050 A 
ATOM     13  C   UNL     1      -4.730   2.987  -1.204  0.00  0.00    +0.012 A 
ATOM     14  C   UNL     1      -3.354   3.260  -1.173  0.00  0.00    -0.020 A 
ATOM     15  C   UNL     1      -2.902   4.580  -1.327  0.00  0.00    +0.057 A 
ATOM     16  C   UNL     1      -3.813   5.600  -1.502  0.00  0.00    +0.162 A 
BRANCH  16  17
ATOM     17  O   UNL     1      -3.380   6.881  -1.650  0.00  0.00    -0.491 OA
ATOM     18  C   UNL     1      -1.967   7.095  -1.615  0.00  0.00    +0.277 C 
ENDBRANCH  16  17
BRANCH  11  19
ATOM     19  O   UNL     1      -6.074   6.327  -1.698  0.00  0.00    -0.477 OA
BRANCH  19  20
ATOM     20  C   UNL     1      -7.458   5.970  -1.713  0.00  0.00    +0.349 C 
BRANCH  20  21
ATOM     21  C   UNL     1      -8.294   7.208  -1.913  0.00  0.00    +0.345 C 
ATOM     22  O   UNL     1      -7.759   8.285  -2.032  0.00  0.00    -0.247 OA
BRANCH  21  23
ATOM     23  O   UNL     1      -9.632   7.114  -1.960  0.00  0.00    -0.463 OA
BRANCH  23  25
ATOM     24  C   UNL     1     -11.872   8.043  -2.183  0.00  0.00    +0.048 C 
ATOM     25  C   UNL     1     -10.373   8.348  -2.156  0.00  0.00    +0.229 C 
ENDBRANCH  23  25
ENDBRANCH  21  23
ENDBRANCH  20  21
ENDBRANCH  19  20
ENDBRANCH  11  19
ENDBRANCH   1  14
BRANCH   8  26
ATOM     26  C   UNL     1       0.045   4.699   2.380  0.00  0.00    +0.043 A 
ATOM     27  C   UNL     1       0.766   5.829   2.017  0.00  0.00    +0.024 A 
ATOM     28  C   UNL     1       0.873   6.890   2.896  0.00  0.00    +0.002 A 
ATOM     29  C   UNL     1       0.272   6.822   4.139  0.00  0.00    +0.000 A 
ATOM     30  C   UNL     1      -0.442   5.696   4.506  0.00  0.00    +0.002 A 
ATOM     31  C   UNL     1      -0.557   4.635   3.630  0.00  0.00    +0.024 A 
ENDBRANCH   8  26
BRANCH   5  32
ATOM     32  C   UNL     1       2.018   0.816   0.551  0.00  0.00    +0.043 A 
ATOM     33  C   UNL     1       3.150   1.151  -0.180  0.00  0.00    +0.024 A 
ATOM     34  C   UNL     1       4.236   0.297  -0.198  0.00  0.00    +0.002 A 
ATOM     35  C   UNL     1       4.192  -0.894   0.503  0.00  0.00    +0.000 A 
ATOM     36  C   UNL     1       3.064  -1.232   1.228  0.00  0.00    +0.002 A 
ATOM     37  C   UNL     1       1.977  -0.380   1.254  0.00  0.00    +0.024 A 
ENDBRANCH   5  32
TORSDOF 9
