REMARK  Name = ZINC39711864
REMARK  11 active torsions:
REMARK  status: ('A' for Active; 'I' for Inactive)
REMARK    1  A    between atoms: C_1  and  C_2
REMARK    2  A    between atoms: C_3  and  C_28
REMARK    3  A    between atoms: C_4  and  C_27
REMARK    4  A    between atoms: C_9  and  S_11
REMARK    5  A    between atoms: S_11  and  C_12
REMARK    6  A    between atoms: C_12  and  C_13
REMARK    7  A    between atoms: N_15  and  C_16
REMARK    8  A    between atoms: C_21  and  C_26
REMARK    9  A    between atoms: C_23  and  C_25
REMARK   10  A    between atoms: C_28  and  C_29
REMARK   11  A    between atoms: C_29  and  C_30
REMARK                            x       y       z     vdW  Elec       q    Type
REMARK                         _______ _______ _______ _____ _____    ______ ____
ROOT
ATOM      1  C   UNL     1      -0.018   1.503   0.010  0.00  0.00    +0.066 C 
ATOM      2  C   UNL     1       0.002  -0.004   0.002  0.00  0.00    +0.047 A 
ATOM      3  C   UNL     1      -1.202  -0.717   0.004  0.00  0.00    -0.005 A 
ATOM      4  C   UNL     1      -1.169  -2.075  -0.004  0.00  0.00    +0.048 A 
ATOM      5  N   UNL     1       0.035  -2.706  -0.014  0.00  0.00    -0.200 N 
ATOM      6  C   UNL     1       1.192  -1.980  -0.015  0.00  0.00    +0.254 A 
ATOM      7  N   UNL     1       1.151  -0.643  -0.012  0.00  0.00    -0.216 NA
ATOM      8  N   UNL     1       2.202  -2.844  -0.025  0.00  0.00    -0.183 NA
ATOM      9  C   UNL     1       1.728  -4.088  -0.030  0.00  0.00    +0.211 A 
ATOM     10  N   UNL     1       0.410  -4.055  -0.023  0.00  0.00    -0.137 NA
ATOM     11  C   UNL     1      -2.449  -2.871  -0.002  0.00  0.00    +0.066 C 
ENDROOT
BRANCH   9  12
ATOM     12  S   UNL     1       2.710  -5.551  -0.044  0.00  0.00    -0.075 S 
BRANCH  12  13
ATOM     13  C   UNL     1       4.416  -4.935  -0.049  0.00  0.00    +0.173 C 
BRANCH  13  14
ATOM     14  C   UNL     1       5.371  -6.101  -0.060  0.00  0.00    +0.224 C 
ATOM     15  O   UNL     1       4.943  -7.235  -0.065  0.00  0.00    -0.275 OA
ATOM     16  N   UNL     1       6.701  -5.882  -0.066  0.00  0.00    -0.312 N 
ATOM     17  H   UNL     1       7.043  -4.974  -0.062  0.00  0.00    +0.149 HD
BRANCH  16  18
ATOM     18  C   UNL     1       7.629  -7.015  -0.077  0.00  0.00    +0.076 C 
ATOM     19  C   UNL     1       7.862  -7.498   1.356  0.00  0.00    +0.022 C 
ATOM     20  C   UNL     1       8.457  -6.360   2.187  0.00  0.00    +0.002 C 
ATOM     21  C   UNL     1       9.789  -5.922   1.574  0.00  0.00    +0.003 C 
ATOM     22  C   UNL     1       9.556  -5.439   0.141  0.00  0.00    -0.009 C 
ATOM     23  C   UNL     1       8.961  -6.577  -0.691  0.00  0.00    +0.009 C 
ATOM     24  C   UNL     1       8.728  -6.094  -2.123  0.00  0.00    +0.009 C 
ATOM     25  C   UNL     1      10.887  -5.001  -0.473  0.00  0.00    +0.008 C 
ENDBRANCH  16  18
ENDBRANCH  13  14
ENDBRANCH  12  13
ENDBRANCH   9  12
BRANCH   3  26
ATOM     26  C   UNL     1      -2.520   0.013   0.015  0.00  0.00    +0.050 C 
BRANCH  26  27
ATOM     27  C   UNL     1      -2.898   0.361   1.456  0.00  0.00    +0.130 C 
BRANCH  27  28
ATOM     28  C   UNL     1      -4.216   1.091   1.467  0.00  0.00    +0.356 C 
ATOM     29  O   UNL     1      -4.800   1.313   0.420  0.00  0.00    -0.246 OA
ATOM     30  O   UNL     1      -4.700   1.461   2.524  0.00  0.00    -0.246 OA
ENDBRANCH  27  28
ENDBRANCH  26  27
ENDBRANCH   3  26
TORSDOF 7
