REMARK  Name = ZINC63708282
REMARK  11 active torsions:
REMARK  status: ('A' for Active; 'I' for Inactive)
REMARK    1  A    between atoms: C_1  and  C_2
REMARK    2  A    between atoms: C_4  and  C_9
REMARK    3  A    between atoms: C_5  and  C_8
REMARK    4  A    between atoms: C_9  and  C_10
REMARK    5  A    between atoms: C_10  and  C_11
REMARK    6  A    between atoms: C_21  and  S_25
REMARK    7  A    between atoms: S_25  and  C_26
REMARK    8  A    between atoms: C_26  and  C_27
REMARK    9  A    between atoms: N_29  and  C_30
REMARK   10  A    between atoms: C_35  and  O_36
REMARK   11  A    between atoms: O_36  and  C_37
REMARK                            x       y       z     vdW  Elec       q    Type
REMARK                         _______ _______ _______ _____ _____    ______ ____
ROOT
ATOM      1  C   UNL     1      -0.936  -1.189  -4.612  0.00  0.00    +0.090 C 
ATOM      2  N   UNL     1      -1.895  -0.428  -5.079  0.00  0.00    -0.332 N 
ATOM      3  C   UNL     1      -1.903  -0.464  -6.417  0.00  0.00    +0.128 C 
ATOM      4  C   UNL     1      -2.714   0.163  -7.384  0.00  0.00    +0.038 A 
ATOM      5  C   UNL     1      -3.757   1.021  -6.997  0.00  0.00    +0.013 A 
ATOM      6  C   UNL     1      -4.529   1.617  -7.946  0.00  0.00    +0.001 A 
ATOM      7  C   UNL     1      -4.314   1.401  -9.305  0.00  0.00    +0.002 A 
ATOM      8  C   UNL     1      -3.323   0.583  -9.747  0.00  0.00    +0.026 A 
ATOM      9  C   UNL     1      -2.485  -0.067  -8.814  0.00  0.00    +0.048 A 
ATOM     10  N   UNL     1      -1.512  -0.868  -9.226  0.00  0.00    -0.356 N 
ATOM     11  C   UNL     1      -0.653  -1.533  -8.238  0.00  0.00    +0.248 C 
ATOM     12  N   UNL     1      -0.890  -1.297  -6.814  0.00  0.00    -0.204 N 
ATOM     13  N   UNL     1      -0.271  -1.754  -5.644  0.00  0.00    -0.249 N 
ATOM     14  H   UNL     1       0.485  -2.358  -5.586  0.00  0.00    +0.171 HD
ATOM     15  H   UNL     1      -1.368  -1.014 -10.174  0.00  0.00    +0.162 HD
ATOM     16  H   UNL     1      -2.510   0.087  -4.533  0.00  0.00    +0.168 HD
ENDROOT
BRANCH   1  17
ATOM     17  C   UNL     1      -0.621  -1.398  -3.153  0.00  0.00    +0.075 C 
BRANCH  17  18
ATOM     18  C   UNL     1       0.388  -0.344  -2.693  0.00  0.00    +0.042 C 
BRANCH  18  21
ATOM     19  C   UNL     1      -0.082   1.493  -0.014  0.00  0.00    +0.039 C 
ATOM     20  C   UNL     1      -0.062  -0.037  -0.028  0.00  0.00    +0.153 C 
ATOM     21  C   UNL     1       0.703  -0.553  -1.234  0.00  0.00    -0.021 C 
ATOM     22  C   UNL     1       1.719  -1.235  -0.702  0.00  0.00    +0.061 C 
ATOM     23  N   UNL     1       1.667  -1.198   0.648  0.00  0.00    -0.159 NA
ATOM     24  N   UNL     1       0.714  -0.559   1.109  0.00  0.00    -0.180 NA
ATOM     25  C   UNL     1       2.780  -1.949  -1.498  0.00  0.00    +0.067 C 
ENDBRANCH  18  21
ENDBRANCH  17  18
ENDBRANCH   1  17
BRANCH  11  26
ATOM     26  S   UNL     1       1.059  -1.052  -8.591  0.00  0.00    -0.106 S 
BRANCH  26  27
ATOM     27  C   UNL     1       1.052   0.754  -8.420  0.00  0.00    +0.168 C 
BRANCH  27  28
ATOM     28  C   UNL     1       2.434   1.291  -8.691  0.00  0.00    +0.227 C 
ATOM     29  O   UNL     1       3.335   0.529  -8.973  0.00  0.00    -0.275 OA
ATOM     30  N   UNL     1       2.668   2.616  -8.622  0.00  0.00    -0.282 N 
ATOM     31  H   UNL     1       1.935   3.230  -8.461  0.00  0.00    +0.155 HD
BRANCH  30  32
ATOM     32  C   UNL     1       3.971   3.107  -8.781  0.00  0.00    +0.077 A 
ATOM     33  C   UNL     1       4.846   2.482  -9.657  0.00  0.00    +0.047 A 
ATOM     34  C   UNL     1       6.131   2.968  -9.814  0.00  0.00    +0.043 A 
ATOM     35  C   UNL     1       6.546   4.077  -9.098  0.00  0.00    +0.024 A 
ATOM     36  C   UNL     1       5.679   4.704  -8.223  0.00  0.00    +0.049 A 
ATOM     37  C   UNL     1       4.388   4.226  -8.066  0.00  0.00    +0.141 A 
ATOM     38 CL   UNL     1       7.226   2.185 -10.910  0.00  0.00    -0.083 Cl
BRANCH  37  39
ATOM     39  O   UNL     1       3.531   4.846  -7.210  0.00  0.00    -0.493 OA
ATOM     40  C   UNL     1       4.028   5.988  -6.510  0.00  0.00    +0.277 C 
ENDBRANCH  37  39
ENDBRANCH  30  32
ENDBRANCH  27  28
ENDBRANCH  26  27
ENDBRANCH  11  26
TORSDOF 8
