REMARK  Name = ZINC30942610
REMARK  10 active torsions:
REMARK  status: ('A' for Active; 'I' for Inactive)
REMARK    1  A    between atoms: C_1  and  C_2
REMARK    2  A    between atoms: N_8  and  S_29
REMARK    3  A    between atoms: C_10  and  C_13
REMARK    4  A    between atoms: N_15  and  C_16
REMARK    5  A    between atoms: C_21  and  C_22
REMARK    6  A    between atoms: N_24  and  C_25
REMARK    7  A    between atoms: C_25  and  C_26
REMARK    8  A    between atoms: C_25  and  C_27
REMARK    9  A    between atoms: C_25  and  C_28
REMARK   10  A    between atoms: S_29  and  C_32
REMARK                            x       y       z     vdW  Elec       q    Type
REMARK                         _______ _______ _______ _____ _____    ______ ____
ROOT
ATOM      1  C   UNL     1      -4.816   4.376  -0.331  0.00  0.00    +0.260 C 
ATOM      2  O   UNL     1      -4.761   5.574  -0.510  0.00  0.00    -0.271 OA
ATOM      3  N   UNL     1      -3.682   3.670  -0.146  0.00  0.00    -0.282 N 
ATOM      4  H   UNL     1      -3.724   2.574  -0.070  0.00  0.00    +0.155 HD
ENDROOT
BRANCH   1  14
ATOM      5  C   UNL     1     -12.544   3.022   0.111  0.00  0.00    +0.044 C 
ATOM      6  C   UNL     1     -11.110   3.439  -0.088  0.00  0.00    -0.048 A 
ATOM      7  C   UNL     1     -10.807   4.489  -0.934  0.00  0.00    +0.007 A 
ATOM      8  C   UNL     1      -9.493   4.878  -1.120  0.00  0.00    +0.048 A 
ATOM      9  C   UNL     1      -8.472   4.215  -0.457  0.00  0.00    +0.144 A 
ATOM     10  C   UNL     1      -8.780   3.155   0.393  0.00  0.00    +0.093 A 
ATOM     11  C   UNL     1     -10.098   2.770   0.577  0.00  0.00    +0.031 A 
ATOM     12  N   UNL     1      -7.749   2.478   1.063  0.00  0.00    -0.200 N 
ATOM     13  C   UNL     1      -6.417   3.107   1.084  0.00  0.00    +0.185 C 
ATOM     14  C   UNL     1      -6.150   3.676  -0.317  0.00  0.00    +0.278 C 
ATOM     15  O   UNL     1      -7.184   4.608  -0.642  0.00  0.00    -0.476 OA
BRANCH  12  16
ATOM     16  S   UNL     1      -8.021   1.022   1.804  0.00  0.00    +0.043 S 
ATOM     17  O   UNL     1      -9.118   0.457   1.101  0.00  0.00    -0.155 OA
ATOM     18  O   UNL     1      -6.755   0.377   1.810  0.00  0.00    -0.155 OA
ATOM     19  C   UNL     1      -8.515   1.446   3.497  0.00  0.00    +0.218 C 
ENDBRANCH  12  16
ENDBRANCH   1  14
BRANCH   3  20
ATOM     20  C   UNL     1      -2.459   4.330  -0.050  0.00  0.00    +0.046 A 
ATOM     21  C   UNL     1      -2.383   5.574   0.562  0.00  0.00    +0.024 A 
ATOM     22  C   UNL     1      -1.170   6.225   0.656  0.00  0.00    +0.002 A 
ATOM     23  C   UNL     1      -0.021   5.645   0.144  0.00  0.00    +0.001 A 
ATOM     24  C   UNL     1      -0.076   4.409  -0.462  0.00  0.00    +0.015 A 
ATOM     25  C   UNL     1      -1.298   3.740  -0.570  0.00  0.00    +0.058 A 
BRANCH  25  26
ATOM     26  C   UNL     1      -1.365   2.418  -1.222  0.00  0.00    +0.246 C 
ATOM     27  O   UNL     1      -2.410   1.797  -1.230  0.00  0.00    -0.270 OA
ATOM     28  N   UNL     1      -0.268   1.900  -1.808  0.00  0.00    -0.307 N 
ATOM     29  H   UNL     1       0.678   2.462  -1.801  0.00  0.00    +0.150 HD
BRANCH  28  30
ATOM     30  C   UNL     1      -0.334   0.587  -2.456  0.00  0.00    +0.026 C 
ATOM     31  C   UNL     1      -1.376   0.623  -3.576  0.00  0.00    +0.031 C 
ATOM     32  C   UNL     1       1.034   0.239  -3.044  0.00  0.00    +0.031 C 
ATOM     33  C   UNL     1      -0.731  -0.471  -1.424  0.00  0.00    +0.031 C 
ENDBRANCH  28  30
ENDBRANCH  25  26
ENDBRANCH   3  20
TORSDOF 5
