REMARK  Name = ZINC03505606
REMARK  8 active torsions:
REMARK  status: ('A' for Active; 'I' for Inactive)
REMARK    1  A    between atoms: C_1  and  C_2
REMARK    2  A    between atoms: C_2  and  C_3
REMARK    3  A    between atoms: C_8  and  N_9
REMARK    4  A    between atoms: C_10  and  C_12
REMARK    5  A    between atoms: C_12  and  N_13
REMARK    6  A    between atoms: N_13  and  C_14
REMARK    7  A    between atoms: C_15  and  C_17
REMARK    8  A    between atoms: C_17  and  N_18
REMARK                            x       y       z     vdW  Elec       q    Type
REMARK                         _______ _______ _______ _____ _____    ______ ____
ROOT
ATOM      1  N   UNL     1       1.136   1.883   0.002  0.00  0.00    -0.294 N 
ATOM      2  C   UNL     1       1.114   3.348   0.020  0.00  0.00    +0.132 C 
ATOM      3  C   UNL     1      -0.022   1.192   0.000  0.00  0.00    +0.234 C 
ATOM      4  O   UNL     1      -0.004  -0.020  -0.015  0.00  0.00    -0.274 OA
ENDROOT
BRANCH   1   5
ATOM      5  C   UNL     1       2.415   1.170  -0.014  0.00  0.00    +0.203 C 
BRANCH   5   7
ATOM      6  N   UNL     1       4.001   0.300  -1.702  0.00  0.00    -0.284 N 
ATOM      7  C   UNL     1       2.845   0.943  -1.441  0.00  0.00    +0.235 C 
ATOM      8  O   UNL     1       2.152   1.338  -2.354  0.00  0.00    -0.274 OA
ATOM      9  H   UNL     1       4.594   0.055  -0.975  0.00  0.00    +0.155 HD
BRANCH   6  15
ATOM     10  C   UNL     1       5.677  -0.190  -3.370  0.00  0.00    -0.026 A 
ATOM     11  C   UNL     1       6.013  -0.499  -4.674  0.00  0.00    +0.005 A 
ATOM     12  C   UNL     1       5.024  -0.633  -5.631  0.00  0.00    +0.000 A 
ATOM     13  C   UNL     1       3.696  -0.458  -5.287  0.00  0.00    +0.002 A 
ATOM     14  C   UNL     1       3.353  -0.153  -3.984  0.00  0.00    +0.023 A 
ATOM     15  C   UNL     1       4.345  -0.013  -3.022  0.00  0.00    +0.037 A 
BRANCH  10  17
ATOM     16  C   UNL     1       6.926  -1.372  -1.583  0.00  0.00    +0.009 C 
ATOM     17  C   UNL     1       6.755  -0.046  -2.327  0.00  0.00    +0.033 C 
ENDBRANCH  10  17
ENDBRANCH   6  15
ENDBRANCH   5   7
ENDBRANCH   1   5
BRANCH   3  18
ATOM     18  C   UNL     1      -1.338   1.927   0.011  0.00  0.00    +0.213 C 
BRANCH  18  19
ATOM     19  N   UNL     1      -2.437   0.959  -0.000  0.00  0.00    -0.215 N 
ATOM     20  C   UNL     1      -3.005   0.444   1.110  0.00  0.00    +0.247 C 
ATOM     21  O   UNL     1      -2.715   0.684   2.262  0.00  0.00    -0.273 OA
ATOM     22  C   UNL     1      -4.080  -0.496   0.614  0.00  0.00    +0.113 C 
ATOM     23  C   UNL     1      -5.451  -0.038   1.099  0.00  0.00    +0.035 C 
ATOM     24  C   UNL     1      -6.528  -0.986   0.564  0.00  0.00    +0.003 C 
ATOM     25  C   UNL     1      -6.243  -2.408   1.054  0.00  0.00    +0.000 C 
ATOM     26  C   UNL     1      -4.876  -2.862   0.539  0.00  0.00    +0.003 C 
ATOM     27  C   UNL     1      -3.793  -1.922   1.074  0.00  0.00    +0.035 C 
ATOM     28  N   UNL     1      -3.992  -0.399  -0.848  0.00  0.00    -0.285 N 
ATOM     29  C   UNL     1      -3.007   0.480  -1.113  0.00  0.00    +0.310 C 
ATOM     30  O   UNL     1      -2.670   0.800  -2.236  0.00  0.00    -0.252 OA
ATOM     31  H   UNL     1      -4.538  -0.872  -1.496  0.00  0.00    +0.151 HD
ENDBRANCH  18  19
ENDBRANCH   3  18
TORSDOF 6
