REMARK  Name = ZINC11115305
REMARK  9 active torsions:
REMARK  status: ('A' for Active; 'I' for Inactive)
REMARK    1  A    between atoms: C_1  and  C_2
REMARK    2  A    between atoms: C_2  and  C_3
REMARK    3  A    between atoms: C_2  and  S_4
REMARK    4  A    between atoms: S_4  and  C_7
REMARK    5  A    between atoms: C_11  and  C_13
REMARK    6  A    between atoms: N_15  and  C_16
REMARK    7  A    between atoms: C_16  and  C_17
REMARK    8  A    between atoms: C_28  and  S_32
REMARK    9  A    between atoms: S_32  and  C_35
REMARK                            x       y       z     vdW  Elec       q    Type
REMARK                         _______ _______ _______ _____ _____    ______ ____
ROOT
ATOM      1  C   UNL     1       6.470  -2.216  -5.575  0.00  0.00    +0.252 C 
ATOM      2  O   UNL     1       7.000  -1.635  -4.648  0.00  0.00    -0.270 OA
ATOM      3  N   UNL     1       5.144  -2.088  -5.781  0.00  0.00    -0.244 N 
ATOM      4  C   UNL     1       4.366  -1.399  -4.867  0.00  0.00    +0.168 A 
ATOM      5  N   UNL     1       3.073  -1.170  -4.894  0.00  0.00    -0.224 NA
ATOM      6  C   UNL     1       2.439  -0.475  -3.925  0.00  0.00    +0.080 A 
ATOM      7  C   UNL     1       1.063  -0.161  -3.834  0.00  0.00    +0.031 A 
ATOM      8  C   UNL     1       0.578   0.555  -2.771  0.00  0.00    +0.029 A 
ATOM      9  C   UNL     1       1.412   1.005  -1.758  0.00  0.00    +0.089 A 
ATOM     10  C   UNL     1       2.763   0.716  -1.815  0.00  0.00    +0.044 A 
ATOM     11  C   UNL     1       3.257  -0.005  -2.873  0.00  0.00    +0.043 A 
ATOM     12  S   UNL     1       4.864  -0.593  -3.352  0.00  0.00    -0.052 S 
ENDROOT
BRANCH   1  17
ATOM     13  C   UNL     1       8.931  -4.778  -6.794  0.00  0.00    +0.089 A 
ATOM     14  C   UNL     1       8.796  -4.650  -8.165  0.00  0.00    +0.027 A 
ATOM     15  C   UNL     1       7.907  -3.732  -8.696  0.00  0.00    +0.003 A 
ATOM     16  C   UNL     1       7.149  -2.939  -7.861  0.00  0.00    +0.013 A 
ATOM     17  C   UNL     1       7.279  -3.063  -6.476  0.00  0.00    +0.039 A 
ATOM     18  C   UNL     1       8.182  -3.988  -5.947  0.00  0.00    +0.040 A 
BRANCH  13  19
ATOM     19  S   UNL     1      10.067  -5.949  -6.128  0.00  0.00    -0.001 S 
ATOM     20  O   UNL     1       9.547  -6.269  -4.844  0.00  0.00    -0.169 OA
ATOM     21  O   UNL     1      10.186  -6.949  -7.130  0.00  0.00    -0.169 OA
BRANCH  19  23
ATOM     22  C   UNL     1      11.428  -3.850  -5.023  0.00  0.00    +0.032 C 
ATOM     23  C   UNL     1      11.628  -5.042  -5.962  0.00  0.00    +0.130 C 
ATOM     24  C   UNL     1      12.699  -5.970  -5.386  0.00  0.00    +0.032 C 
ENDBRANCH  19  23
ENDBRANCH  13  19
ENDBRANCH   1  17
BRANCH   9  25
ATOM     25  S   UNL     1       0.755   1.929  -0.409  0.00  0.00    -0.006 S 
ATOM     26  O   UNL     1       1.652   1.688   0.666  0.00  0.00    -0.170 OA
ATOM     27  O   UNL     1      -0.605   1.528  -0.322  0.00  0.00    -0.170 OA
ATOM     28  C   UNL     1       0.863   3.662  -0.935  0.00  0.00    +0.200 C 
ENDBRANCH   9  25
BRANCH   3  29
ATOM     29  C   UNL     1       4.528  -2.678  -6.972  0.00  0.00    +0.147 C 
BRANCH  29  30
ATOM     30  C   UNL     1       4.360  -1.601  -8.046  0.00  0.00    +0.136 C 
ATOM     31  C   UNL     1       3.868  -2.243  -9.358  0.00  0.00    +0.035 C 
ATOM     32  C   UNL     1       2.533  -1.518  -9.657  0.00  0.00    +0.031 C 
ATOM     33  C   UNL     1       2.678  -0.216  -8.828  0.00  0.00    +0.160 C 
ATOM     34  O   UNL     1       3.364  -0.651  -7.635  0.00  0.00    -0.375 OA
ENDBRANCH  29  30
ENDBRANCH   3  29
TORSDOF 6
