REMARK  Name = ZINC05951059
REMARK  6 active torsions:
REMARK  status: ('A' for Active; 'I' for Inactive)
REMARK    1  A    between atoms: C_1  and  C_2
REMARK    2  A    between atoms: C_5  and  N_9
REMARK    3  A    between atoms: C_7  and  C_8
REMARK    4  A    between atoms: C_10  and  C_12
REMARK    5  A    between atoms: N_14  and  N_15
REMARK    6  A    between atoms: N_18  and  C_19
REMARK                            x       y       z     vdW  Elec       q    Type
REMARK                         _______ _______ _______ _____ _____    ______ ____
ROOT
ATOM      1  C   UNL     1       1.944   4.354   0.420  0.00  0.00    +0.315 C 
ATOM      2  O   UNL     1       2.860   3.682  -0.005  0.00  0.00    -0.264 OA
ATOM      3  N   UNL     1       0.753   3.780   0.682  0.00  0.00    -0.225 N 
ATOM      4  H   UNL     1       0.020   4.317   1.022  0.00  0.00    +0.173 HD
ENDROOT
BRANCH   3   5
ATOM      5  N   UNL     1       0.573   2.407   0.465  0.00  0.00    -0.218 N 
ATOM      6  C   UNL     1      -0.618   1.834   0.727  0.00  0.00    +0.320 C 
ATOM      7  O   UNL     1      -0.774   0.643   0.538  0.00  0.00    -0.251 OA
ATOM      8  N   UNL     1      -1.637   2.581   1.194  0.00  0.00    -0.268 N 
ATOM      9  H   UNL     1       1.306   1.870   0.125  0.00  0.00    +0.174 HD
ATOM     10  H   UNL     1      -1.495   3.516   1.408  0.00  0.00    +0.156 HD
BRANCH   8  11
ATOM     11  C   UNL     1      -2.902   2.007   1.371  0.00  0.00    +0.036 A 
ATOM     12  C   UNL     1      -4.046   2.755   1.123  0.00  0.00    +0.025 A 
ATOM     13  C   UNL     1      -5.293   2.185   1.292  0.00  0.00    +0.023 A 
ATOM     14  C   UNL     1      -5.404   0.874   1.719  0.00  0.00    +0.059 A 
ATOM     15  C   UNL     1      -4.265   0.127   1.973  0.00  0.00    +0.061 A 
ATOM     16  C   UNL     1      -3.015   0.691   1.799  0.00  0.00    +0.044 A 
ATOM     17 CL   UNL     1      -4.408  -1.518   2.508  0.00  0.00    -0.082 Cl
ATOM     18 CL   UNL     1      -6.972   0.163   1.938  0.00  0.00    -0.082 Cl
ENDBRANCH   8  11
ENDBRANCH   3   5
BRANCH   1  20
ATOM     19  N   UNL     1       3.326   6.390   0.389  0.00  0.00    -0.278 N 
ATOM     20  C   UNL     1       2.135   5.816   0.652  0.00  0.00    +0.305 C 
ATOM     21  O   UNL     1       1.218   6.488   1.077  0.00  0.00    -0.265 OA
ATOM     22  H   UNL     1       4.038   5.868  -0.012  0.00  0.00    +0.155 HD
BRANCH  19  27
ATOM     23  C   UNL     1       4.174  11.859   1.629  0.00  0.00    +0.044 C 
ATOM     24  C   UNL     1       3.949  10.406   1.299  0.00  0.00    -0.047 A 
ATOM     25  C   UNL     1       2.709   9.983   0.854  0.00  0.00    +0.005 A 
ATOM     26  C   UNL     1       2.501   8.654   0.547  0.00  0.00    +0.023 A 
ATOM     27  C   UNL     1       3.535   7.737   0.695  0.00  0.00    +0.034 A 
ATOM     28  C   UNL     1       4.779   8.165   1.142  0.00  0.00    +0.027 A 
ATOM     29  C   UNL     1       4.982   9.498   1.443  0.00  0.00    -0.046 A 
ATOM     30  C   UNL     1       6.330   9.963   1.929  0.00  0.00    +0.044 C 
ENDBRANCH  19  27
ENDBRANCH   1  20
TORSDOF 4
