REMARK  Name = ZINC33445635
REMARK  8 active torsions:
REMARK  status: ('A' for Active; 'I' for Inactive)
REMARK    1  A    between atoms: C_1  and  C_2
REMARK    2  A    between atoms: C_7  and  N_29
REMARK    3  A    between atoms: C_8  and  C_13
REMARK    4  A    between atoms: N_17  and  C_21
REMARK    5  A    between atoms: C_21  and  C_22
REMARK    6  A    between atoms: C_22  and  C_23
REMARK    7  A    between atoms: C_31  and  C_38
REMARK    8  A    between atoms: C_34  and  C_37
REMARK                            x       y       z     vdW  Elec       q    Type
REMARK                         _______ _______ _______ _____ _____    ______ ____
ROOT
ATOM      1  C   UNL     1      -0.277  -5.199  -0.155  0.00  0.00    +0.045 C 
ATOM      2  C   UNL     1       0.911  -4.273  -0.126  0.00  0.00    -0.034 A 
ATOM      3  C   UNL     1       2.206  -4.792  -0.256  0.00  0.00    +0.008 A 
ATOM      4  C   UNL     1       3.275  -3.946  -0.229  0.00  0.00    +0.047 A 
ATOM      5  C   UNL     1       3.063  -2.564  -0.071  0.00  0.00    +0.142 A 
ATOM      6  N   UNL     1       4.115  -1.745  -0.046  0.00  0.00    -0.214 NA
ATOM      7  C   UNL     1       3.973  -0.436   0.100  0.00  0.00    +0.136 A 
ATOM      8  C   UNL     1       2.676   0.115   0.234  0.00  0.00    +0.081 A 
ATOM      9  C   UNL     1       1.568  -0.765   0.212  0.00  0.00    +0.267 A 
ATOM     10  O   UNL     1       0.433  -0.335   0.329  0.00  0.00    -0.267 OA
ATOM     11  N   UNL     1       1.788  -2.088   0.054  0.00  0.00    -0.267 N 
ATOM     12  C   UNL     1       0.725  -2.942   0.025  0.00  0.00    +0.099 A 
ENDROOT
BRANCH   8  13
ATOM     13  C   UNL     1       2.493   1.508   0.393  0.00  0.00    +0.037 C 
ATOM     14  C   UNL     1       1.871   2.230  -0.585  0.00  0.00    +0.077 C 
ATOM     15  C   UNL     1       1.384   1.805  -1.854  0.00  0.00    +0.258 C 
ATOM     16  O   UNL     1       1.492   0.644  -2.210  0.00  0.00    -0.269 OA
ATOM     17  N   UNL     1       0.816   2.706  -2.637  0.00  0.00    -0.255 N 
ATOM     18  C   UNL     1       0.692   3.992  -2.240  0.00  0.00    +0.121 C 
ATOM     19  S   UNL     1      -0.005   5.312  -3.078  0.00  0.00    -0.027 S 
ATOM     20  S   UNL     1       1.447   3.966  -0.621  0.00  0.00    -0.061 S 
BRANCH  17  21
ATOM     21  C   UNL     1       0.310   2.304  -3.951  0.00  0.00    +0.119 C 
BRANCH  21  22
ATOM     22  C   UNL     1      -1.150   1.864  -3.823  0.00  0.00    +0.054 C 
BRANCH  22  23
ATOM     23  C   UNL     1      -1.671   1.450  -5.175  0.00  0.00    -0.046 A 
ATOM     24  C   UNL     1      -2.271   2.384  -5.999  0.00  0.00    +0.004 A 
ATOM     25  C   UNL     1      -2.745   2.005  -7.242  0.00  0.00    +0.000 A 
ATOM     26  C   UNL     1      -2.627   0.692  -7.655  0.00  0.00    +0.000 A 
ATOM     27  C   UNL     1      -2.031  -0.243  -6.829  0.00  0.00    +0.000 A 
ATOM     28  C   UNL     1      -1.553   0.137  -5.589  0.00  0.00    +0.004 A 
ENDBRANCH  22  23
ENDBRANCH  21  22
ENDBRANCH  17  21
ENDBRANCH   8  13
BRANCH   7  29
ATOM     29  N   UNL     1       5.080   0.384   0.121  0.00  0.00    -0.310 N 
ATOM     30  C   UNL     1       5.097   1.276  -1.048  0.00  0.00    +0.138 C 
ATOM     31  C   UNL     1       6.308   2.207  -0.954  0.00  0.00    +0.133 C 
ATOM     32  O   UNL     1       7.500   1.423  -0.854  0.00  0.00    -0.371 OA
ATOM     33  C   UNL     1       7.517   0.544   0.274  0.00  0.00    +0.133 C 
ATOM     34  C   UNL     1       6.318  -0.405   0.193  0.00  0.00    +0.138 C 
ATOM     35  C   UNL     1       8.813  -0.270   0.268  0.00  0.00    +0.039 C 
ATOM     36  C   UNL     1       6.176   3.096   0.284  0.00  0.00    +0.039 C 
ENDBRANCH   7  29
TORSDOF 5
