REMARK  Name = ZINC21914363
REMARK  8 active torsions:
REMARK  status: ('A' for Active; 'I' for Inactive)
REMARK    1  A    between atoms: C_1  and  C_2
REMARK    2  A    between atoms: C_6  and  C_8
REMARK    3  A    between atoms: C_9  and  C_29
REMARK    4  A    between atoms: C_15  and  C_18
REMARK    5  A    between atoms: C_16  and  C_17
REMARK    6  A    between atoms: N_20  and  C_21
REMARK    7  A    between atoms: C_25  and  C_28
REMARK    8  A    between atoms: C_26  and  C_27
REMARK                            x       y       z     vdW  Elec       q    Type
REMARK                         _______ _______ _______ _____ _____    ______ ____
ROOT
ATOM      1  C   UNL     1       1.440  -6.191  -0.655  0.00  0.00    +0.049 A 
ATOM      2  C   UNL     1       2.834  -6.320  -0.652  0.00  0.00    +0.070 A 
ATOM      3  N   UNL     1       3.369  -5.133  -0.506  0.00  0.00    -0.169 NA
ATOM      4  N   UNL     1       2.351  -4.177  -0.408  0.00  0.00    -0.217 N 
ATOM      5  C   UNL     1       1.148  -4.831  -0.500  0.00  0.00    +0.164 A 
ATOM      6  N   UNL     1      -0.008  -4.160  -0.437  0.00  0.00    -0.235 NA
ATOM      7  C   UNL     1      -0.031  -2.860  -0.280  0.00  0.00    +0.128 A 
ATOM      8  C   UNL     1       1.182  -2.137  -0.185  0.00  0.00    +0.076 A 
ATOM      9  C   UNL     1       2.378  -2.826  -0.250  0.00  0.00    +0.056 A 
ATOM     10  C   UNL     1       3.691  -2.093  -0.147  0.00  0.00    +0.066 C 
ATOM     11  C   UNL     1       3.595  -7.613  -0.792  0.00  0.00    +0.068 C 
ENDROOT
BRANCH   1  17
ATOM     12  C   UNL     1      -0.609  -9.830  -3.390  0.00  0.00    +0.044 C 
ATOM     13  C   UNL     1      -0.532  -9.041  -2.108  0.00  0.00    -0.050 A 
ATOM     14  C   UNL     1      -1.382  -9.343  -1.059  0.00  0.00    +0.003 A 
ATOM     15  C   UNL     1      -1.318  -8.624   0.120  0.00  0.00    +0.001 A 
ATOM     16  C   UNL     1      -0.400  -7.602   0.259  0.00  0.00    +0.009 A 
ATOM     17  C   UNL     1       0.456  -7.290  -0.796  0.00  0.00    -0.012 A 
ATOM     18  C   UNL     1       0.386  -8.019  -1.983  0.00  0.00    +0.012 A 
ENDBRANCH   1  17
BRANCH   8  19
ATOM     19  C   UNL     1       1.170  -0.671  -0.014  0.00  0.00    +0.251 C 
ATOM     20  O   UNL     1       2.216  -0.051  -0.007  0.00  0.00    -0.270 OA
ATOM     21  N   UNL     1      -0.001  -0.020   0.135  0.00  0.00    -0.281 N 
ATOM     22  H   UNL     1      -0.940  -0.587   0.211  0.00  0.00    +0.155 HD
BRANCH  21  23
ATOM     23  C   UNL     1      -0.021   1.377   0.192  0.00  0.00    +0.037 A 
ATOM     24  C   UNL     1       1.031   2.065   0.784  0.00  0.00    +0.023 A 
ATOM     25  C   UNL     1       1.008   3.444   0.839  0.00  0.00    +0.002 A 
ATOM     26  C   UNL     1      -0.061   4.141   0.305  0.00  0.00    +0.004 A 
ATOM     27  C   UNL     1      -1.109   3.460  -0.285  0.00  0.00    -0.046 A 
ATOM     28  C   UNL     1      -1.090   2.080  -0.347  0.00  0.00    -0.026 A 
ATOM     29  C   UNL     1      -2.230   1.338  -0.996  0.00  0.00    +0.046 C 
ATOM     30  C   UNL     1      -2.272   4.223  -0.865  0.00  0.00    +0.044 C 
ENDBRANCH  21  23
ENDBRANCH   8  19
TORSDOF 3
