REMARK  Name = ZINC47535668
REMARK  4 active torsions:
REMARK  status: ('A' for Active; 'I' for Inactive)
REMARK    1  A    between atoms: C_1  and  C_2
REMARK    2  A    between atoms: C_2  and  C_4
REMARK    3  A    between atoms: C_2  and  N_16
REMARK    4  A    between atoms: C_17  and  C_19
REMARK                            x       y       z     vdW  Elec       q    Type
REMARK                         _______ _______ _______ _____ _____    ______ ____
ROOT
ATOM      1  C   UNL     1      -0.019   1.526   0.010  0.00  0.00    +0.033 C 
ATOM      2  C   UNL     1       0.002  -0.004   0.002  0.00  0.00    +0.100 C 
ENDROOT
BRANCH   2   3
ATOM      3  C   UNL     1      -1.412  -0.526   0.013  0.00  0.00    -0.025 A 
ATOM      4  C   UNL     1      -2.121  -0.570   1.201  0.00  0.00    +0.007 A 
ATOM      5  C   UNL     1      -3.417  -1.046   1.221  0.00  0.00    +0.028 A 
ATOM      6  C   UNL     1      -4.011  -1.482   0.046  0.00  0.00    +0.067 A 
ATOM      7  C   UNL     1      -3.295  -1.438  -1.153  0.00  0.00    +0.067 A 
ATOM      8  C   UNL     1      -1.996  -0.953  -1.164  0.00  0.00    +0.033 A 
ATOM      9  N   UNL     1      -4.139  -1.932  -2.144  0.00  0.00    -0.306 N 
ATOM     10  H   UNL     1      -3.918  -2.023  -3.084  0.00  0.00    +0.170 HD
ATOM     11  C   UNL     1      -5.314  -2.262  -1.575  0.00  0.00    +0.325 A 
ATOM     12  O   UNL     1      -6.272  -2.725  -2.165  0.00  0.00    -0.247 OA
ATOM     13  N   UNL     1      -5.267  -2.002  -0.255  0.00  0.00    -0.306 N 
ATOM     14  H   UNL     1      -5.986  -2.151   0.379  0.00  0.00    +0.170 HD
ENDBRANCH   2   3
BRANCH   2  15
ATOM     15  N   UNL     1       0.711  -0.489   1.189  0.00  0.00    -0.305 N 
ATOM     16  C   UNL     1       2.054  -0.600   1.174  0.00  0.00    +0.245 C 
ATOM     17  O   UNL     1       2.677  -0.297   0.175  0.00  0.00    -0.270 OA
ATOM     18  H   UNL     1       0.213  -0.731   1.986  0.00  0.00    +0.150 HD
BRANCH  16  19
ATOM     19  C   UNL     1       2.768  -1.089   2.369  0.00  0.00    +0.042 A 
ATOM     20  C   UNL     1       4.161  -1.198   2.357  0.00  0.00    +0.062 A 
ATOM     21  C   UNL     1       4.826  -1.657   3.478  0.00  0.00    +0.168 A 
ATOM     22  C   UNL     1       4.106  -2.009   4.621  0.00  0.00    +0.184 A 
ATOM     23  C   UNL     1       2.721  -1.899   4.632  0.00  0.00    +0.087 A 
ATOM     24  C   UNL     1       2.053  -1.438   3.518  0.00  0.00    +0.037 A 
ATOM     25 CL   UNL     1       1.830  -2.339   6.056  0.00  0.00    -0.080 Cl
ATOM     26  O   UNL     1       4.985  -2.425   5.577  0.00  0.00    -0.451 OA
ATOM     27  C   UNL     1       6.209  -2.713   4.876  0.00  0.00    +0.466 C 
ATOM     28  O   UNL     1       6.154  -1.853   3.723  0.00  0.00    -0.453 OA
ENDBRANCH  16  19
ENDBRANCH   2  15
TORSDOF 3
