REMARK  Name = ZINC10343862
REMARK  13 active torsions:
REMARK  status: ('A' for Active; 'I' for Inactive)
REMARK    1  A    between atoms: C_1  and  C_2
REMARK    2  A    between atoms: C_2  and  C_36
REMARK    3  A    between atoms: C_6  and  C_25
REMARK    4  A    between atoms: N_8  and  C_16
REMARK    5  A    between atoms: C_16  and  C_17
REMARK    6  A    between atoms: N_19  and  C_20
REMARK    7  A    between atoms: C_20  and  C_21
REMARK    8  A    between atoms: C_21  and  C_22
REMARK    9  A    between atoms: C_22  and  N_74
REMARK   10  A    between atoms: C_23  and  N_74
REMARK   11  A    between atoms: C_24  and  N_74
REMARK   12  A    between atoms: C_30  and  O_31
REMARK   13  A    between atoms: O_31  and  C_32
REMARK                            x       y       z     vdW  Elec       q    Type
REMARK                         _______ _______ _______ _____ _____    ______ ____
ROOT
ATOM      1  C   UNL     1       3.472   7.179   2.759  0.00  0.00    +0.011 C 
ATOM      2  C   UNL     1       3.067   6.050   3.708  0.00  0.00    -0.023 C 
ATOM      3  C   UNL     1       3.981   4.854   3.504  0.00  0.00    +0.058 C 
ATOM      4  C   UNL     1       3.878   4.366   2.071  0.00  0.00    +0.017 C 
ATOM      5  C   UNL     1       2.716   4.433   1.403  0.00  0.00    +0.037 C 
ATOM      6  C   UNL     1       2.454   3.928   0.004  0.00  0.00    +0.143 C 
ATOM      7  N   UNL     1       3.487   3.080  -0.542  0.00  0.00    -0.308 N 
ATOM      8  C   UNL     1       4.686   3.735  -0.797  0.00  0.00    +0.052 A 
ATOM      9  C   UNL     1       5.102   3.969  -2.103  0.00  0.00    +0.025 A 
ATOM     10  C   UNL     1       6.291   4.639  -2.329  0.00  0.00    +0.002 A 
ATOM     11  C   UNL     1       7.063   5.077  -1.268  0.00  0.00    +0.002 A 
ATOM     12  C   UNL     1       6.655   4.838   0.034  0.00  0.00    +0.025 A 
ATOM     13  C   UNL     1       5.469   4.159   0.257  0.00  0.00    +0.052 A 
ATOM     14  N   UNL     1       5.024   3.861   1.543  0.00  0.00    -0.316 N 
ATOM     15  C   UNL     1       1.589   5.031   2.016  0.00  0.00    +0.163 C 
ATOM     16  O   UNL     1       0.545   5.083   1.396  0.00  0.00    -0.292 OA
ATOM     17  C   UNL     1       1.634   5.602   3.401  0.00  0.00    +0.086 C 
ATOM     18  C   UNL     1       3.159   6.534   5.157  0.00  0.00    +0.011 C 
ATOM     19  H   UNL     1       5.559   3.264   2.089  0.00  0.00    +0.152 HD
ENDROOT
BRANCH   6  20
ATOM     20  C   UNL     1       1.161   3.154   0.013  0.00  0.00    +0.019 A 
ATOM     21  C   UNL     1       1.093   1.929   0.649  0.00  0.00    +0.009 A 
ATOM     22  C   UNL     1      -0.092   1.218   0.658  0.00  0.00    +0.001 A 
ATOM     23  C   UNL     1      -1.212   1.728   0.028  0.00  0.00    +0.004 A 
ATOM     24  C   UNL     1      -1.151   2.955  -0.604  0.00  0.00    +0.046 A 
ATOM     25  C   UNL     1       0.037   3.670  -0.615  0.00  0.00    +0.125 A 
BRANCH  25  26
ATOM     26  O   UNL     1       0.101   4.875  -1.240  0.00  0.00    -0.495 OA
ATOM     27  C   UNL     1      -1.094   5.345  -1.867  0.00  0.00    +0.277 C 
ENDBRANCH  25  26
ENDBRANCH   6  20
BRANCH   7  28
ATOM     28  C   UNL     1       3.010   2.372  -1.738  0.00  0.00    +0.201 C 
BRANCH  28  29
ATOM     29  C   UNL     1       3.951   1.239  -2.059  0.00  0.00    +0.230 C 
ATOM     30  O   UNL     1       4.923   1.041  -1.361  0.00  0.00    -0.274 OA
ATOM     31  N   UNL     1       3.712   0.446  -3.122  0.00  0.00    -0.314 N 
ATOM     32  H   UNL     1       2.935   0.604  -3.680  0.00  0.00    +0.149 HD
BRANCH  31  33
ATOM     33  C   UNL     1       4.626  -0.656  -3.434  0.00  0.00    +0.102 C 
BRANCH  33  34
ATOM     34  C   UNL     1       4.129  -1.394  -4.679  0.00  0.00    +0.000 C 
BRANCH  34  35
ATOM     35  C   UNL     1       5.084  -2.544  -5.005  0.00  0.00    -0.078 C 
BRANCH  35  38
ATOM     36  C   UNL     1       4.680  -2.390  -7.388  0.00  0.00    -0.097 C 
ATOM     37  C   UNL     1       5.356  -4.499  -6.408  0.00  0.00    -0.097 C 
ATOM     38  N   UNL     1       4.579  -3.259  -6.196  0.00  0.00    +0.376 N 
ATOM     39  H   UNL     1       3.594  -3.505  -6.045  0.00  0.00    -0.083 HD
ENDBRANCH  35  38
ENDBRANCH  34  35
ENDBRANCH  33  34
ENDBRANCH  31  33
ENDBRANCH  28  29
ENDBRANCH   7  28
TORSDOF 8
