REMARK  Name = ZINC18254795
REMARK  5 active torsions:
REMARK  status: ('A' for Active; 'I' for Inactive)
REMARK    1  A    between atoms: C_1  and  C_2
REMARK    2  A    between atoms: C_6  and  C_18
REMARK    3  A    between atoms: N_8  and  C_9
REMARK    4  A    between atoms: C_14  and  N_15
REMARK    5  A    between atoms: N_20  and  C_21
REMARK                            x       y       z     vdW  Elec       q    Type
REMARK                         _______ _______ _______ _____ _____    ______ ____
ROOT
ATOM      1  C   UNL     1      -6.349   5.768   1.273  0.00  0.00    +0.066 C 
ATOM      2  C   UNL     1      -4.980   5.286   0.866  0.00  0.00    +0.044 A 
ATOM      3  C   UNL     1      -3.935   6.147   0.887  0.00  0.00    +0.076 A 
ATOM      4  C   UNL     1      -2.663   5.654   0.497  0.00  0.00    +0.213 A 
ATOM      5  O   UNL     1      -1.676   6.373   0.492  0.00  0.00    -0.285 OA
ATOM      6  C   UNL     1      -2.583   4.240   0.099  0.00  0.00    +0.193 A 
ATOM      7  N   UNL     1      -3.681   3.513   0.120  0.00  0.00    -0.158 NA
ATOM      8  N   UNL     1      -4.811   3.997   0.483  0.00  0.00    -0.234 N 
ENDROOT
BRANCH   8   9
ATOM      9  C   UNL     1      -5.926   3.153   0.481  0.00  0.00    +0.096 A 
ATOM     10  C   UNL     1      -6.984   3.400  -0.386  0.00  0.00    +0.030 A 
ATOM     11  C   UNL     1      -8.082   2.562  -0.389  0.00  0.00    +0.002 A 
ATOM     12  C   UNL     1      -8.133   1.484   0.476  0.00  0.00    +0.002 A 
ATOM     13  C   UNL     1      -7.085   1.238   1.343  0.00  0.00    +0.035 A 
ATOM     14  C   UNL     1      -5.982   2.069   1.348  0.00  0.00    +0.151 A 
BRANCH  14  15
ATOM     15  N   UNL     1      -4.859   1.805   2.276  0.00  0.00    +0.059 N 
ATOM     16  O   UNL     1      -4.882   0.822   2.995  0.00  0.00    -0.126 OA
ATOM     17  O   UNL     1      -3.913   2.570   2.321  0.00  0.00    -0.126 OA
ENDBRANCH  14  15
ENDBRANCH   8   9
BRANCH   6  18
ATOM     18  C   UNL     1      -1.297   3.648  -0.321  0.00  0.00    +0.272 C 
ATOM     19  O   UNL     1      -0.275   4.302  -0.251  0.00  0.00    -0.268 OA
ATOM     20  N   UNL     1      -1.257   2.382  -0.782  0.00  0.00    -0.280 N 
ATOM     21  H   UNL     1      -2.080   1.883  -0.901  0.00  0.00    +0.155 HD
BRANCH  20  22
ATOM     22  C   UNL     1      -0.028   1.789  -1.089  0.00  0.00    +0.039 A 
ATOM     23  C   UNL     1       0.995   2.551  -1.637  0.00  0.00    +0.061 A 
ATOM     24  C   UNL     1       2.207   1.961  -1.944  0.00  0.00    +0.128 A 
ATOM     25  C   UNL     1       2.401   0.611  -1.706  0.00  0.00    +0.076 A 
ATOM     26  C   UNL     1       1.383  -0.151  -1.161  0.00  0.00    +0.128 A 
ATOM     27  C   UNL     1       0.168   0.435  -0.851  0.00  0.00    +0.061 A 
ATOM     28  F   UNL     1       1.575  -1.469  -0.930  0.00  0.00    -0.205 F 
ATOM     29  F   UNL     1       3.203   2.703  -2.477  0.00  0.00    -0.205 F 
ENDBRANCH  20  22
ENDBRANCH   6  18
TORSDOF 4
