REMARK  Name = ZINC39412661
REMARK  6 active torsions:
REMARK  status: ('A' for Active; 'I' for Inactive)
REMARK    1  A    between atoms: C_4  and  C_7
REMARK    2  A    between atoms: C_7  and  N_8
REMARK    3  A    between atoms: C_14  and  C_16
REMARK    4  A    between atoms: C_16  and  C_17
REMARK    5  A    between atoms: N_19  and  C_20
REMARK    6  A    between atoms: C_20  and  C_21
REMARK                            x       y       z     vdW  Elec       q    Type
REMARK                         _______ _______ _______ _____ _____    ______ ____
ROOT
ATOM      1  N   UNL     1       5.559  -2.746   0.442  0.00  0.00    +0.391 N 
ATOM      2  C   UNL     1       4.468  -3.703   0.686  0.00  0.00    -0.058 C 
ATOM      3  C   UNL     1       3.146  -3.061   0.260  0.00  0.00    +0.085 C 
ATOM      4  N   UNL     1       3.014  -1.741   0.871  0.00  0.00    -0.318 N 
ATOM      5  C   UNL     1       4.056  -1.077   1.385  0.00  0.00    +0.200 C 
ATOM      6  O   UNL     1       3.870   0.025   1.854  0.00  0.00    -0.278 OA
ATOM      7  C   UNL     1       5.448  -1.643   1.405  0.00  0.00    +0.028 C 
ATOM      8  H   UNL     1       2.137  -1.328   0.904  0.00  0.00    +0.149 HD
ATOM      9  H   UNL     1       5.489  -2.384  -0.497  0.00  0.00    -0.080 HD
ENDROOT
BRANCH   1  10
ATOM     10  C   UNL     1       6.852  -3.421   0.614  0.00  0.00    -0.042 C 
BRANCH  10  14
ATOM     11  C   UNL     1       7.351  -6.352  -2.453  0.00  0.00    +0.000 A 
ATOM     12  C   UNL     1       7.790  -5.057  -2.656  0.00  0.00    +0.000 A 
ATOM     13  C   UNL     1       7.629  -4.109  -1.663  0.00  0.00    +0.002 A 
ATOM     14  C   UNL     1       7.027  -4.455  -0.468  0.00  0.00    -0.064 A 
ATOM     15  C   UNL     1       6.587  -5.750  -0.265  0.00  0.00    +0.002 A 
ATOM     16  C   UNL     1       6.750  -6.699  -1.257  0.00  0.00    +0.000 A 
ENDBRANCH  10  14
ENDBRANCH   1  10
BRANCH   7  17
ATOM     17  C   UNL     1       6.447  -0.545   1.035  0.00  0.00    +0.089 C 
BRANCH  17  18
ATOM     18  C   UNL     1       6.120  -0.009  -0.335  0.00  0.00    +0.212 C 
ATOM     19  O   UNL     1       5.120  -0.383  -0.910  0.00  0.00    -0.276 OA
ATOM     20  N   UNL     1       6.941   0.885  -0.922  0.00  0.00    -0.313 N 
ATOM     21  H   UNL     1       7.741   1.183  -0.463  0.00  0.00    +0.149 HD
BRANCH  20  22
ATOM     22  C   UNL     1       6.623   1.406  -2.254  0.00  0.00    +0.137 C 
BRANCH  22  23
ATOM     23  C   UNL     1       7.706   2.396  -2.686  0.00  0.00    +0.173 C 
ATOM     24  C   UNL     1       7.514   2.808  -4.122  0.00  0.00    -0.019 C 
ATOM     25  C   UNL     1       8.601   2.393  -4.755  0.00  0.00    +0.065 C 
ATOM     26  C   UNL     1       8.837   2.580  -6.248  0.00  0.00    +0.057 C 
ATOM     27  C   UNL     1       7.761   1.765  -6.979  0.00  0.00    +0.006 C 
ATOM     28  C   UNL     1       6.447   2.504  -7.023  0.00  0.00    +0.001 C 
ATOM     29  C   UNL     1       5.674   2.587  -5.728  0.00  0.00    +0.004 C 
ATOM     30  C   UNL     1       6.357   3.557  -4.748  0.00  0.00    +0.035 C 
ATOM     31  N   UNL     1       9.444   1.788  -3.885  0.00  0.00    -0.158 NA
ATOM     32  N   UNL     1       9.032   1.745  -2.715  0.00  0.00    -0.178 NA
ENDBRANCH  22  23
ENDBRANCH  20  22
ENDBRANCH  17  18
ENDBRANCH   7  17
TORSDOF 6
