REMARK  Name = ZINC65548086
REMARK  5 active torsions:
REMARK  status: ('A' for Active; 'I' for Inactive)
REMARK    1  A    between atoms: C_5  and  N_7
REMARK    2  A    between atoms: C_8  and  C_10
REMARK    3  A    between atoms: C_10  and  S_11
REMARK    4  A    between atoms: S_11  and  C_12
REMARK    5  A    between atoms: C_18  and  N_22
REMARK                            x       y       z     vdW  Elec       q    Type
REMARK                         _______ _______ _______ _____ _____    ______ ____
ROOT
ATOM      1  C   UNL     1      -1.364  -6.707   0.444  0.00  0.00    +0.236 C 
ATOM      2  N   UNL     1      -0.515  -7.041   1.595  0.00  0.00    -0.355 N 
ATOM      3  C   UNL     1       0.537  -7.657   1.139  0.00  0.00    +0.061 A 
ATOM      4  C   UNL     1       1.723  -8.226   1.793  0.00  0.00    +0.029 A 
ATOM      5  C   UNL     1       2.675  -8.819   1.045  0.00  0.00    +0.035 A 
ATOM      6  C   UNL     1       2.586  -8.920  -0.355  0.00  0.00    +0.128 A 
ATOM      7  C   UNL     1       1.541  -8.432  -1.054  0.00  0.00    +0.060 A 
ATOM      8  C   UNL     1       0.442  -7.764  -0.343  0.00  0.00    +0.063 A 
ATOM      9  N   UNL     1      -0.667  -7.211  -0.746  0.00  0.00    -0.355 N 
ATOM     10  H   UNL     1      -0.975  -7.144  -1.663  0.00  0.00    +0.162 HD
ATOM     11  H   UNL     1      -0.704  -6.839   2.525  0.00  0.00    +0.162 HD
ENDROOT
BRANCH   6  12
ATOM     12  N   UNL     1       3.682  -9.589  -1.090  0.00  0.00    +0.056 N 
ATOM     13  O   UNL     1       4.630 -10.035  -0.487  0.00  0.00    -0.126 OA
ATOM     14  O   UNL     1       3.629  -9.689  -2.294  0.00  0.00    -0.126 OA
ENDBRANCH   6  12
BRANCH   1  15
ATOM     15  S   UNL     1      -1.576  -4.909   0.327  0.00  0.00    -0.106 S 
BRANCH  15  16
ATOM     16  C   UNL     1       0.119  -4.276   0.194  0.00  0.00    +0.169 C 
BRANCH  16  18
ATOM     17  N   UNL     1       1.237  -2.080  -0.021  0.00  0.00    -0.284 N 
ATOM     18  C   UNL     1       0.086  -2.773   0.088  0.00  0.00    +0.227 C 
ATOM     19  O   UNL     1      -0.976  -2.187   0.102  0.00  0.00    -0.275 OA
ATOM     20  H   UNL     1       2.080  -2.551  -0.113  0.00  0.00    +0.155 HD
BRANCH  17  25
ATOM     21  C   UNL     1       0.154   1.372   0.637  0.00  0.00    +0.002 A 
ATOM     22  C   UNL     1       1.174   2.086   0.035  0.00  0.00    +0.001 A 
ATOM     23  C   UNL     1       2.215   1.421  -0.586  0.00  0.00    +0.016 A 
ATOM     24  C   UNL     1       2.239   0.039  -0.607  0.00  0.00    +0.035 A 
ATOM     25  C   UNL     1       1.216  -0.681  -0.002  0.00  0.00    +0.047 A 
ATOM     26  C   UNL     1       0.172  -0.009   0.620  0.00  0.00    +0.024 A 
ATOM     27  I   UNL     1       3.816  -0.969  -1.548  0.00  0.00    -0.042 I 
ENDBRANCH  17  25
ENDBRANCH  16  18
ENDBRANCH  15  16
ENDBRANCH   1  15
TORSDOF 5
