REMARK  Name = ZINC64604329
REMARK  8 active torsions:
REMARK  status: ('A' for Active; 'I' for Inactive)
REMARK    1  A    between atoms: C_5  and  S_12
REMARK    2  A    between atoms: S_12  and  C_13
REMARK    3  A    between atoms: C_13  and  C_14
REMARK    4  A    between atoms: C_16  and  C_19
REMARK    5  A    between atoms: C_19  and  C_20
REMARK    6  A    between atoms: C_20  and  C_21
REMARK    7  A    between atoms: N_23  and  C_24
REMARK    8  A    between atoms: C_26  and  C_37
REMARK                            x       y       z     vdW  Elec       q    Type
REMARK                         _______ _______ _______ _____ _____    ______ ____
ROOT
ATOM      1  C   UNL     1       5.171   0.700   4.121  0.00  0.00    +0.182 A 
ATOM      2  N   UNL     1       5.605  -0.387   4.769  0.00  0.00    -0.195 NA
ATOM      3  C   UNL     1       6.221  -0.039   5.865  0.00  0.00    +0.228 A 
ATOM      4  O   UNL     1       6.200   1.297   5.951  0.00  0.00    -0.338 OA
ATOM      5  N   UNL     1       5.513   1.759   4.798  0.00  0.00    -0.060 NA
ENDROOT
BRANCH   1   6
ATOM      6  C   UNL     1       4.415   0.700   2.817  0.00  0.00    +0.152 C 
BRANCH   6   7
ATOM      7  S   UNL     1       5.590   0.770   1.437  0.00  0.00    -0.107 S 
BRANCH   7  12
ATOM      8  C   UNL     1      -0.017   1.404   0.010  0.00  0.00    +0.022 A 
ATOM      9  C   UNL     1       1.108   2.145   0.003  0.00  0.00    +0.029 A 
ATOM     10  C   UNL     1       2.417   1.477  -0.013  0.00  0.00    +0.061 A 
ATOM     11  N   UNL     1       3.639   1.925  -0.023  0.00  0.00    -0.355 N 
ATOM     12  C   UNL     1       4.535   0.762  -0.038  0.00  0.00    +0.236 C 
ATOM     13  N   UNL     1       3.672  -0.426  -0.036  0.00  0.00    -0.355 N 
ATOM     14  C   UNL     1       2.438  -0.012  -0.021  0.00  0.00    +0.062 A 
ATOM     15  C   UNL     1       1.149  -0.715  -0.012  0.00  0.00    +0.047 A 
ATOM     16  C   UNL     1       0.002  -0.004   0.002  0.00  0.00    +0.043 A 
ATOM     17 CL   UNL     1      -1.509  -0.859   0.012  0.00  0.00    -0.083 Cl
ATOM     18  H   UNL     1       3.908   2.857  -0.021  0.00  0.00    +0.162 HD
ATOM     19  H   UNL     1       3.968  -1.350  -0.044  0.00  0.00    +0.162 HD
ENDBRANCH   7  12
ENDBRANCH   6   7
ENDBRANCH   1   6
BRANCH   3  20
ATOM     20  C   UNL     1       6.849  -0.979   6.861  0.00  0.00    +0.108 C 
BRANCH  20  21
ATOM     21  C   UNL     1       8.308  -1.230   6.476  0.00  0.00    +0.105 C 
BRANCH  21  22
ATOM     22  C   UNL     1       8.936  -2.170   7.473  0.00  0.00    +0.214 C 
ATOM     23  O   UNL     1       8.281  -2.597   8.400  0.00  0.00    -0.276 OA
ATOM     24  N   UNL     1      10.226  -2.537   7.334  0.00  0.00    -0.302 N 
ATOM     25  H   UNL     1      10.750  -2.196   6.592  0.00  0.00    +0.150 HD
BRANCH  24  26
ATOM     26  C   UNL     1      10.836  -3.450   8.303  0.00  0.00    +0.148 C 
ATOM     27  C   UNL     1      11.705  -4.505   7.585  0.00  0.00    +0.126 C 
ATOM     28  C   UNL     1      13.170  -4.080   7.544  0.00  0.00    +0.021 C 
ATOM     29  C   UNL     1      14.077  -5.193   7.095  0.00  0.00    +0.006 C 
ATOM     30  C   UNL     1      14.470  -6.164   8.190  0.00  0.00    +0.000 C 
ATOM     31  C   UNL     1      14.955  -5.432   9.437  0.00  0.00    +0.001 C 
ATOM     32  C   UNL     1      13.850  -4.496   9.930  0.00  0.00    +0.014 C 
ATOM     33  C   UNL     1      13.591  -3.444   8.876  0.00  0.00    +0.053 C 
ATOM     34  S   UNL     1      12.044  -2.559   9.364  0.00  0.00    -0.134 S 
BRANCH  27  35
ATOM     35  C   UNL     1      11.597  -5.787   8.300  0.00  0.00    +0.069 C 
ATOM     36  N   UNL     1      11.513  -6.777   8.852  0.00  0.00    -0.196 NA
ENDBRANCH  27  35
ENDBRANCH  24  26
ENDBRANCH  21  22
ENDBRANCH  20  21
ENDBRANCH   3  20
TORSDOF 8
