REMARK  Name = ZINC66702756
REMARK  8 active torsions:
REMARK  status: ('A' for Active; 'I' for Inactive)
REMARK    1  A    between atoms: C_1  and  C_2
REMARK    2  A    between atoms: C_3  and  C_7
REMARK    3  A    between atoms: C_7  and  N_8
REMARK    4  A    between atoms: N_8  and  C_9
REMARK    5  A    between atoms: N_12  and  C_13
REMARK    6  A    between atoms: C_13  and  C_15
REMARK    7  A    between atoms: C_13  and  C_16
REMARK    8  A    between atoms: C_18  and  C_21
REMARK                            x       y       z     vdW  Elec       q    Type
REMARK                         _______ _______ _______ _____ _____    ______ ____
ROOT
ATOM      1  N   UNL     1       1.368  -0.036  -3.052  0.00  0.00    -0.284 N 
ATOM      2  C   UNL     1       2.071  -1.145  -3.701  0.00  0.00    +0.134 C 
ATOM      3  C   UNL     1       1.988   1.150  -2.885  0.00  0.00    +0.303 C 
ATOM      4  O   UNL     1       1.405   2.070  -2.346  0.00  0.00    -0.253 OA
ATOM      5  N   UNL     1       3.254   1.314  -3.316  0.00  0.00    -0.288 N 
ATOM      6  H   UNL     1       3.720   0.580  -3.746  0.00  0.00    +0.151 HD
ENDROOT
BRANCH   5   7
ATOM      7  C   UNL     1       3.928   2.603  -3.135  0.00  0.00    +0.160 C 
ATOM      8  C   UNL     1       4.551   2.661  -1.739  0.00  0.00    +0.038 C 
BRANCH   7   9
ATOM      9  C   UNL     1       5.009   2.755  -4.175  0.00  0.00    +0.247 A 
ATOM     10  N   UNL     1       5.245   3.825  -4.881  0.00  0.00    -0.195 NA
ATOM     11  C   UNL     1       6.275   3.613  -5.707  0.00  0.00    +0.169 A 
ATOM     12  N   UNL     1       6.710   2.397  -5.535  0.00  0.00    -0.062 NA
ATOM     13  O   UNL     1       5.896   1.816  -4.528  0.00  0.00    -0.336 OA
ATOM     14  C   UNL     1       6.841   4.616  -6.679  0.00  0.00    +0.091 C 
ENDBRANCH   7   9
ENDBRANCH   5   7
BRANCH   1  15
ATOM     15  C   UNL     1      -0.008  -0.215  -2.583  0.00  0.00    +0.153 C 
BRANCH  15  18
ATOM     16  C   UNL     1      -0.018   1.503   0.010  0.00  0.00    +0.066 C 
ATOM     17  C   UNL     1       0.002  -0.004   0.002  0.00  0.00    +0.050 A 
ATOM     18  C   UNL     1       0.006  -0.708  -1.159  0.00  0.00    +0.029 A 
ATOM     19  S   UNL     1       0.032  -2.379  -0.531  0.00  0.00    -0.079 S 
ATOM     20  C   UNL     1       0.036  -2.009   1.111  0.00  0.00    +0.156 A 
ATOM     21  N   UNL     1       0.023  -0.699   1.122  0.00  0.00    -0.252 NA
ENDBRANCH  15  18
ENDBRANCH   1  15
TORSDOF 4
