REMARK  Name = ZINC61380504
REMARK  8 active torsions:
REMARK  status: ('A' for Active; 'I' for Inactive)
REMARK    1  A    between atoms: C_1  and  C_2
REMARK    2  A    between atoms: C_2  and  C_3
REMARK    3  A    between atoms: C_2  and  C_4
REMARK    4  A    between atoms: C_4  and  C_5
REMARK    5  A    between atoms: C_4  and  N_6
REMARK    6  A    between atoms: N_9  and  C_10
REMARK    7  A    between atoms: N_16  and  C_23
REMARK    8  A    between atoms: N_19  and  C_22
REMARK                            x       y       z     vdW  Elec       q    Type
REMARK                         _______ _______ _______ _____ _____    ______ ____
ROOT
ATOM      1  C   UNL     1      -3.529  -4.694  -1.088  0.00  0.00    +0.054 A 
ATOM      2  C   UNL     1      -3.575  -6.085  -1.113  0.00  0.00    +0.041 A 
ATOM      3  C   UNL     1      -4.673  -6.689  -1.721  0.00  0.00    +0.084 A 
ATOM      4  C   UNL     1      -5.685  -5.888  -2.282  0.00  0.00    +0.150 A 
ATOM      5  N   UNL     1      -5.593  -4.570  -2.232  0.00  0.00    -0.235 NA
ATOM      6  C   UNL     1      -4.569  -3.970  -1.658  0.00  0.00    +0.136 A 
ATOM      7  N   UNL     1      -6.766  -6.514  -2.881  0.00  0.00    -0.281 N 
ATOM      8  C   UNL     1      -6.848  -7.854  -2.924  0.00  0.00    +0.333 A 
ATOM      9  O   UNL     1      -7.815  -8.360  -3.459  0.00  0.00    -0.246 OA
ATOM     10  N   UNL     1      -5.908  -8.659  -2.404  0.00  0.00    -0.263 N 
ATOM     11  C   UNL     1      -4.812  -8.153  -1.797  0.00  0.00    +0.266 A 
ATOM     12  O   UNL     1      -3.964  -8.886  -1.327  0.00  0.00    -0.267 OA
ATOM     13  C   UNL     1      -6.074 -10.112  -2.495  0.00  0.00    +0.157 C 
ATOM     14  C   UNL     1      -7.834  -5.704  -3.473  0.00  0.00    +0.155 C 
ENDROOT
BRANCH   1  18
ATOM     15  N   UNL     1      -0.156  -3.871  -0.079  0.00  0.00    -0.296 N 
ATOM     16  C   UNL     1      -1.208  -4.553  -0.572  0.00  0.00    +0.304 C 
ATOM     17  O   UNL     1      -1.039  -5.640  -1.091  0.00  0.00    -0.253 OA
ATOM     18  N   UNL     1      -2.448  -4.032  -0.489  0.00  0.00    -0.268 N 
ATOM     19  H   UNL     1      -0.291  -3.004   0.335  0.00  0.00    +0.151 HD
ATOM     20  H   UNL     1      -2.593  -3.197  -0.016  0.00  0.00    +0.156 HD
BRANCH  15  21
ATOM     21  C   UNL     1       1.192  -4.438  -0.169  0.00  0.00    +0.074 C 
ATOM     22  C   UNL     1       1.798  -4.100  -1.532  0.00  0.00    +0.028 C 
BRANCH  21  24
ATOM     23  C   UNL     1       3.475  -4.442   0.846  0.00  0.00    +0.009 C 
ATOM     24  C   UNL     1       2.067  -3.849   0.939  0.00  0.00    +0.003 C 
ATOM     25  C   UNL     1       2.142  -2.330   0.777  0.00  0.00    +0.009 C 
ENDBRANCH  21  24
ENDBRANCH  15  21
ENDBRANCH   1  18
TORSDOF 3
