REMARK  Name = ZINC51994986
REMARK  5 active torsions:
REMARK  status: ('A' for Active; 'I' for Inactive)
REMARK    1  A    between atoms: C_1  and  C_2
REMARK    2  A    between atoms: C_8  and  C_14
REMARK    3  A    between atoms: C_11  and  C_13
REMARK    4  A    between atoms: N_16  and  C_17
REMARK    5  A    between atoms: C_23  and  O_25
REMARK                            x       y       z     vdW  Elec       q    Type
REMARK                         _______ _______ _______ _____ _____    ______ ____
ROOT
ATOM      1  C   UNL     1       4.289  -1.926  -1.086  0.00  0.00    +0.248 C 
ATOM      2  O   UNL     1       4.562  -1.824   0.094  0.00  0.00    -0.270 OA
ATOM      3  N   UNL     1       5.188  -2.447  -1.944  0.00  0.00    -0.306 N 
ATOM      4  H   UNL     1       4.970  -2.528  -2.885  0.00  0.00    +0.149 HD
ENDROOT
BRANCH   1  11
ATOM      5  C   UNL     1      -0.019   1.526   0.010  0.00  0.00    +0.016 C 
ATOM      6  C   UNL     1       0.002  -0.004   0.002  0.00  0.00    +0.060 C 
ATOM      7  C   UNL     1       0.799  -0.529  -1.177  0.00  0.00    +0.001 A 
ATOM      8  C   UNL     1       0.500  -0.645  -2.516  0.00  0.00    +0.007 A 
ATOM      9  C   UNL     1       1.428  -1.178  -3.397  0.00  0.00    +0.001 A 
ATOM     10  C   UNL     1       2.657  -1.595  -2.933  0.00  0.00    +0.017 A 
ATOM     11  C   UNL     1       2.972  -1.478  -1.579  0.00  0.00    +0.079 A 
ATOM     12  C   UNL     1       2.032  -0.934  -0.685  0.00  0.00    +0.137 A 
ATOM     13  O   UNL     1       2.128  -0.712   0.652  0.00  0.00    -0.487 OA
ATOM     14  C   UNL     1       0.809  -0.553   1.203  0.00  0.00    +0.178 C 
ATOM     15  C   UNL     1       0.819   0.454   2.355  0.00  0.00    +0.052 C 
ENDBRANCH   1  11
BRANCH   3  16
ATOM     16  C   UNL     1       6.495  -2.891  -1.454  0.00  0.00    +0.102 C 
ATOM     17  C   UNL     1       7.453  -1.699  -1.404  0.00  0.00    +0.025 C 
ATOM     18  C   UNL     1       7.608  -1.110  -2.808  0.00  0.00    +0.002 C 
ATOM     19  C   UNL     1       8.170  -2.177  -3.750  0.00  0.00    +0.003 C 
ATOM     20  C   UNL     1       7.212  -3.369  -3.800  0.00  0.00    +0.033 C 
ATOM     21  C   UNL     1       7.057  -3.958  -2.396  0.00  0.00    +0.135 C 
BRANCH  21  22
ATOM     22  O   UNL     1       6.163  -5.071  -2.443  0.00  0.00    -0.390 OA
ATOM     23  H   UNL     1       6.456  -5.788  -3.022  0.00  0.00    +0.210 HD
ENDBRANCH  21  22
ENDBRANCH   3  16
TORSDOF 3
