REMARK  Name = ZINC04587923
REMARK  8 active torsions:
REMARK  status: ('A' for Active; 'I' for Inactive)
REMARK    1  A    between atoms: C_1  and  C_2
REMARK    2  A    between atoms: C_2  and  C_33
REMARK    3  A    between atoms: C_9  and  C_21
REMARK    4  A    between atoms: C_17  and  C_19
REMARK    5  A    between atoms: C_17  and  C_20
REMARK    6  A    between atoms: N_23  and  C_24
REMARK    7  A    between atoms: C_27  and  O_31
REMARK    8  A    between atoms: O_31  and  C_32
REMARK                            x       y       z     vdW  Elec       q    Type
REMARK                         _______ _______ _______ _____ _____    ______ ____
ROOT
ATOM      1  C   UNL     1       1.312   3.192   3.507  0.00  0.00    +0.074 C 
ATOM      2  C   UNL     1       1.051   4.675   3.232  0.00  0.00    +0.166 C 
ATOM      3  O   UNL     1       2.236   5.436   3.525  0.00  0.00    -0.341 OA
ATOM      4  C   UNL     1       2.154   6.576   2.658  0.00  0.00    +0.187 C 
ATOM      5  C   UNL     1       1.417   6.079   1.406  0.00  0.00    +0.191 C 
ATOM      6  O   UNL     1       0.736   4.877   1.850  0.00  0.00    -0.340 OA
ATOM      7  C   UNL     1       2.285   5.681   0.225  0.00  0.00    +0.238 C 
ATOM      8  O   UNL     1       3.614   6.181   0.193  0.00  0.00    -0.333 OA
ATOM      9  C   UNL     1       4.265   6.147   1.445  0.00  0.00    +0.286 C 
ATOM     10  C   UNL     1       3.497   7.163   2.331  0.00  0.00    +0.209 C 
ATOM     11  O   UNL     1       4.413   7.341   3.412  0.00  0.00    -0.338 OA
ATOM     12  C   UNL     1       5.713   7.322   2.776  0.00  0.00    +0.168 C 
ATOM     13  O   UNL     1       5.598   6.643   1.507  0.00  0.00    -0.318 OA
ATOM     14  C   UNL     1       6.202   8.755   2.553  0.00  0.00    +0.074 C 
ATOM     15  C   UNL     1       6.710   6.576   3.668  0.00  0.00    +0.074 C 
ATOM     16  C   UNL     1      -0.104   5.161   4.110  0.00  0.00    +0.074 C 
ENDROOT
BRANCH   7  17
ATOM     17  C   UNL     1       2.312   4.177   0.104  0.00  0.00    +0.249 C 
ATOM     18  O   UNL     1       3.372   3.589   0.091  0.00  0.00    -0.273 OA
ATOM     19  N   UNL     1       1.157   3.488   0.009  0.00  0.00    -0.283 N 
ATOM     20  H   UNL     1       0.313   3.962  -0.050  0.00  0.00    +0.155 HD
BRANCH  19  21
ATOM     21  C   UNL     1       1.177   2.087  -0.003  0.00  0.00    +0.035 A 
ATOM     22  C   UNL     1       0.153   1.373   0.604  0.00  0.00    +0.027 A 
ATOM     23  C   UNL     1       0.172  -0.007   0.591  0.00  0.00    +0.049 A 
ATOM     24  C   UNL     1       1.213  -0.682  -0.028  0.00  0.00    +0.138 A 
ATOM     25  C   UNL     1       2.237   0.031  -0.636  0.00  0.00    +0.084 A 
ATOM     26  C   UNL     1       2.219   1.413  -0.624  0.00  0.00    +0.047 A 
ATOM     27 CL   UNL     1       3.541  -0.813  -1.413  0.00  0.00    -0.080 Cl
BRANCH  24  28
ATOM     28  O   UNL     1       1.232  -2.041  -0.040  0.00  0.00    -0.494 OA
ATOM     29  C   UNL     1       0.146  -2.710   0.605  0.00  0.00    +0.277 C 
ENDBRANCH  24  28
ENDBRANCH  19  21
ENDBRANCH   7  17
TORSDOF 3
