REMARK  Name = ZINC50285934
REMARK  7 active torsions:
REMARK  status: ('A' for Active; 'I' for Inactive)
REMARK    1  A    between atoms: C_1  and  C_2
REMARK    2  A    between atoms: C_2  and  C_3
REMARK    3  A    between atoms: C_3  and  C_5
REMARK    4  A    between atoms: C_3  and  N_19
REMARK    5  A    between atoms: C_5  and  C_7
REMARK    6  A    between atoms: C_5  and  O_18
REMARK    7  A    between atoms: N_16  and  C_17
REMARK                            x       y       z     vdW  Elec       q    Type
REMARK                         _______ _______ _______ _____ _____    ______ ____
ROOT
ATOM      1  C   UNL     1       1.748  -1.986   2.602  0.00  0.00    -0.020 A 
ATOM      2  C   UNL     1       0.910  -2.223   3.677  0.00  0.00    +0.008 A 
ATOM      3  C   UNL     1       1.391  -2.875   4.794  0.00  0.00    +0.024 A 
ATOM      4  C   UNL     1       2.716  -3.295   4.838  0.00  0.00    +0.033 A 
ATOM      5  C   UNL     1       3.555  -3.060   3.759  0.00  0.00    -0.026 A 
ATOM      6  C   UNL     1       3.063  -2.407   2.641  0.00  0.00    +0.011 A 
ATOM      7  C   UNL     1       4.992  -3.509   3.767  0.00  0.00    +0.038 C 
ATOM      8  C   UNL     1       5.473  -3.737   5.200  0.00  0.00    +0.024 C 
ATOM      9  C   UNL     1       4.474  -4.653   5.919  0.00  0.00    +0.105 C 
ATOM     10  N   UNL     1       3.186  -3.950   5.982  0.00  0.00    -0.333 N 
ATOM     11  C   UNL     1       2.405  -3.936   7.221  0.00  0.00    +0.129 C 
ENDROOT
BRANCH   1  12
ATOM     12  C   UNL     1       1.223  -1.272   1.383  0.00  0.00    +0.130 C 
BRANCH  12  13
ATOM     13  O   UNL     1      -0.142  -1.637   1.168  0.00  0.00    -0.389 OA
ATOM     14  H   UNL     1      -0.729  -1.415   1.904  0.00  0.00    +0.210 HD
ENDBRANCH  12  13
BRANCH  12  15
ATOM     15  C   UNL     1       1.319   0.240   1.596  0.00  0.00    -0.042 C 
BRANCH  15  16
ATOM     16  N   UNL     1       0.620   0.605   2.835  0.00  0.00    +0.382 N 
ATOM     17  H   UNL     1       0.683   1.602   2.976  0.00  0.00    -0.090 HD
ATOM     18  H   UNL     1      -0.350   0.336   2.766  0.00  0.00    -0.090 HD
ATOM     19  H   UNL     1       1.046   0.127   3.615  0.00  0.00    -0.090 HD
ENDBRANCH  15  16
BRANCH  15  21
ATOM     20  C   UNL     1       0.879   2.472   0.565  0.00  0.00    +0.002 C 
ATOM     21  C   UNL     1       0.673   0.964   0.413  0.00  0.00    -0.017 C 
ENDBRANCH  15  21
ENDBRANCH  12  15
ENDBRANCH   1  12
TORSDOF 5
