REMARK  Name = ZINC63372695
REMARK  12 active torsions:
REMARK  status: ('A' for Active; 'I' for Inactive)
REMARK    1  A    between atoms: C_1  and  C_2
REMARK    2  A    between atoms: C_2  and  C_3
REMARK    3  A    between atoms: C_3  and  O_4
REMARK    4  A    between atoms: O_4  and  C_5
REMARK    5  A    between atoms: C_8  and  C_13
REMARK    6  A    between atoms: C_10  and  O_11
REMARK    7  A    between atoms: O_11  and  C_12
REMARK    8  A    between atoms: N_20  and  C_35
REMARK    9  A    between atoms: C_23  and  C_34
REMARK   10  A    between atoms: C_35  and  C_37
REMARK   11  A    between atoms: C_35  and  C_38
REMARK   12  A    between atoms: C_38  and  C_39
REMARK                            x       y       z     vdW  Elec       q    Type
REMARK                         _______ _______ _______ _____ _____    ______ ____
ROOT
ATOM      1  C   UNL     1      -6.407  -4.576  -0.018  0.00  0.00    +0.065 C 
ATOM      2  C   UNL     1      -7.256  -4.142  -1.216  0.00  0.00    +0.121 C 
ATOM      3  N   UNL     1      -8.679  -4.358  -1.026  0.00  0.00    -0.283 N 
ATOM      4  C   UNL     1      -9.475  -4.291  -2.146  0.00  0.00    +0.234 C 
ATOM      5  O   UNL     1      -9.001  -4.199  -3.258  0.00  0.00    -0.274 OA
ATOM      6  C   UNL     1     -10.972  -4.339  -1.923  0.00  0.00    +0.204 C 
ATOM      7  N   UNL     1     -11.305  -3.464  -0.783  0.00  0.00    -0.288 N 
ATOM      8  C   UNL     1     -10.525  -3.592   0.332  0.00  0.00    +0.242 C 
ATOM      9  O   UNL     1     -10.728  -2.953   1.342  0.00  0.00    -0.273 OA
ATOM     10  C   UNL     1      -9.395  -4.582   0.217  0.00  0.00    +0.135 C 
ATOM     11  C   UNL     1      -8.577  -4.720   1.463  0.00  0.00    +0.139 C 
ATOM     12  C   UNL     1      -7.180  -4.174   1.212  0.00  0.00    -0.027 C 
ATOM     13  C   UNL     1      -6.909  -3.358   2.219  0.00  0.00    -0.000 A 
ATOM     14  C   UNL     1      -5.691  -2.617   2.585  0.00  0.00    +0.010 A 
ATOM     15  C   UNL     1      -5.773  -1.838   3.696  0.00  0.00    +0.001 A 
ATOM     16  C   UNL     1      -6.930  -1.724   4.471  0.00  0.00    +0.002 A 
ATOM     17  C   UNL     1      -8.092  -2.376   4.215  0.00  0.00    +0.026 A 
ATOM     18  C   UNL     1      -8.127  -3.232   3.077  0.00  0.00    +0.043 A 
ATOM     19  N   UNL     1      -9.079  -3.966   2.611  0.00  0.00    -0.375 N 
ATOM     20  C   UNL     1     -10.075  -5.942   0.049  0.00  0.00    +0.044 C 
ATOM     21  H   UNL     1      -9.978  -4.014   2.973  0.00  0.00    +0.160 HD
ENDROOT
BRANCH   1  25
ATOM     22  C   UNL     1      -2.627  -2.578  -0.096  0.00  0.00    +0.162 A 
ATOM     23  C   UNL     1      -3.801  -1.844  -0.058  0.00  0.00    +0.050 A 
ATOM     24  C   UNL     1      -5.021  -2.493  -0.033  0.00  0.00    +0.008 A 
ATOM     25  C   UNL     1      -5.074  -3.874  -0.046  0.00  0.00    -0.035 A 
ATOM     26  C   UNL     1      -3.906  -4.613  -0.084  0.00  0.00    +0.053 A 
ATOM     27  C   UNL     1      -2.679  -3.969  -0.115  0.00  0.00    +0.162 A 
BRANCH  27  28
ATOM     28  O   UNL     1      -1.530  -4.694  -0.159  0.00  0.00    -0.491 OA
ATOM     29  C   UNL     1      -1.660  -6.116  -0.176  0.00  0.00    +0.277 C 
ENDBRANCH  27  28
BRANCH  22  30
ATOM     30  O   UNL     1      -1.425  -1.941  -0.121  0.00  0.00    -0.488 OA
BRANCH  30  31
ATOM     31  C   UNL     1      -1.448  -0.513  -0.099  0.00  0.00    +0.229 C 
BRANCH  31  33
ATOM     32  C   UNL     1      -0.038   1.550  -0.109  0.00  0.00    +0.007 C 
ATOM     33  C   UNL     1      -0.014   0.021  -0.132  0.00  0.00    +0.038 C 
ENDBRANCH  31  33
ENDBRANCH  30  31
ENDBRANCH  22  30
ENDBRANCH   1  25
BRANCH   7  34
ATOM     34  C   UNL     1     -12.414  -2.509  -0.843  0.00  0.00    +0.073 C 
ATOM     35  C   UNL     1     -12.171  -1.515  -1.981  0.00  0.00    +0.028 C 
BRANCH  34  36
ATOM     36  C   UNL     1     -13.723  -3.261  -1.095  0.00  0.00    +0.019 C 
ATOM     37  C   UNL     1     -14.030  -4.164   0.102  0.00  0.00    +0.005 C 
ENDBRANCH  34  36
ENDBRANCH   7  34
TORSDOF 7
