REMARK  Name = ZINC36704380
REMARK  10 active torsions:
REMARK  status: ('A' for Active; 'I' for Inactive)
REMARK    1  A    between atoms: C_1  and  C_2
REMARK    2  A    between atoms: C_2  and  N_3
REMARK    3  A    between atoms: N_3  and  C_4
REMARK    4  A    between atoms: N_3  and  C_6
REMARK    5  A    between atoms: C_4  and  C_5
REMARK    6  A    between atoms: C_6  and  C_7
REMARK    7  A    between atoms: C_7  and  N_8
REMARK    8  A    between atoms: C_19  and  C_21
REMARK    9  A    between atoms: N_26  and  S_27
REMARK   10  A    between atoms: S_27  and  C_30
REMARK                            x       y       z     vdW  Elec       q    Type
REMARK                         _______ _______ _______ _____ _____    ______ ____
ROOT
ATOM      1  N   UNL     1      -2.160  -4.327   0.622  0.00  0.00    -0.251 N 
ATOM      2  C   UNL     1      -2.144  -4.953   1.858  0.00  0.00    +0.168 A 
ATOM      3  N   UNL     1      -1.583  -4.554   2.975  0.00  0.00    -0.223 NA
ATOM      4  C   UNL     1      -1.648  -5.273   4.117  0.00  0.00    +0.099 A 
ATOM      5  C   UNL     1      -2.363  -6.490   4.035  0.00  0.00    +0.042 A 
ATOM      6  S   UNL     1      -2.889  -6.505   2.338  0.00  0.00    -0.052 S 
ATOM      7  C   UNL     1      -2.519  -7.332   5.107  0.00  0.00    +0.017 A 
ATOM      8  C   UNL     1      -1.962  -6.994   6.327  0.00  0.00    +0.003 A 
ATOM      9  C   UNL     1      -1.253  -5.808   6.446  0.00  0.00    +0.022 A 
ATOM     10  C   UNL     1      -1.092  -4.960   5.380  0.00  0.00    +0.067 A 
ATOM     11 CL   UNL     1      -0.196  -3.487   5.582  0.00  0.00    -0.081 Cl
ATOM     12  C   UNL     1      -2.803  -4.899  -0.415  0.00  0.00    +0.240 C 
ATOM     13  O   UNL     1      -3.440  -5.916  -0.247  0.00  0.00    -0.273 OA
ENDROOT
BRANCH  12  14
ATOM     14  C   UNL     1      -2.730  -4.273  -1.784  0.00  0.00    +0.166 C 
ATOM     15  C   UNL     1      -3.923  -3.316  -1.988  0.00  0.00    +0.031 C 
ATOM     16  C   UNL     1      -4.308  -3.551  -3.473  0.00  0.00    +0.019 C 
ATOM     17  C   UNL     1      -4.030  -5.067  -3.630  0.00  0.00    +0.110 C 
ATOM     18  N   UNL     1      -2.822  -5.317  -2.816  0.00  0.00    -0.164 NA
BRANCH  18  19
ATOM     19  S   UNL     1      -1.751  -6.562  -3.028  0.00  0.00    +0.068 S 
ATOM     20  O   UNL     1      -1.867  -6.970  -4.385  0.00  0.00    -0.152 OA
ATOM     21  O   UNL     1      -0.519  -6.138  -2.463  0.00  0.00    -0.152 OA
BRANCH  19  22
ATOM     22  C   UNL     1      -2.319  -7.910  -2.046  0.00  0.00    +0.143 A 
ATOM     23  C   UNL     1      -3.159  -8.918  -2.385  0.00  0.00    +0.036 A 
ATOM     24  C   UNL     1      -3.468  -9.879  -1.440  0.00  0.00    +0.010 A 
ATOM     25  C   UNL     1      -2.921  -9.785  -0.204  0.00  0.00    +0.047 A 
ATOM     26  S   UNL     1      -1.930  -8.308  -0.350  0.00  0.00    -0.077 S 
ENDBRANCH  19  22
ENDBRANCH  18  19
ENDBRANCH  12  14
BRANCH   1  27
ATOM     27  C   UNL     1      -1.477  -3.043   0.442  0.00  0.00    +0.097 C 
BRANCH  27  28
ATOM     28  C   UNL     1      -0.018  -3.291   0.055  0.00  0.00    -0.059 C 
BRANCH  28  29
ATOM     29  N   UNL     1       0.631  -2.009  -0.252  0.00  0.00    +0.380 N 
ATOM     30  H   UNL     1       0.099  -1.523  -0.958  0.00  0.00    -0.082 HD
BRANCH  29  32
ATOM     31  C   UNL     1       1.258   0.192   0.619  0.00  0.00    -0.017 C 
ATOM     32  C   UNL     1       0.696  -1.189   0.964  0.00  0.00    -0.082 C 
ENDBRANCH  29  32
BRANCH  29  33
ATOM     33  C   UNL     1       1.992  -2.256  -0.749  0.00  0.00    -0.082 C 
ATOM     34  C   UNL     1       1.919  -2.979  -2.096  0.00  0.00    -0.017 C 
ENDBRANCH  29  33
ENDBRANCH  28  29
ENDBRANCH  27  28
ENDBRANCH   1  27
TORSDOF 8
