REMARK  Name = ZINC21718332
REMARK  4 active torsions:
REMARK  status: ('A' for Active; 'I' for Inactive)
REMARK    1  A    between atoms: C_1  and  C_2
REMARK    2  A    between atoms: C_7  and  N_8
REMARK    3  A    between atoms: C_9  and  C_11
REMARK    4  A    between atoms: C_11  and  N_12
REMARK                            x       y       z     vdW  Elec       q    Type
REMARK                         _______ _______ _______ _____ _____    ______ ____
ROOT
ATOM      1  N   UNL     1      -2.192  -4.261  -0.313  0.00  0.00    -0.217 N 
ATOM      2  C   UNL     1      -2.099  -5.020   0.803  0.00  0.00    +0.294 A 
ATOM      3  O   UNL     1      -2.249  -4.531   1.908  0.00  0.00    -0.264 OA
ATOM      4  C   UNL     1      -1.812  -6.450   0.642  0.00  0.00    +0.138 A 
ATOM      5  C   UNL     1      -1.652  -7.497   1.513  0.00  0.00    +0.006 A 
ATOM      6  C   UNL     1      -1.388  -8.642   0.758  0.00  0.00    +0.067 A 
ATOM      7  N   UNL     1      -1.387  -8.321  -0.510  0.00  0.00    -0.169 NA
ATOM      8  N   UNL     1      -1.650  -6.950  -0.628  0.00  0.00    -0.214 N 
ATOM      9  C   UNL     1      -1.762  -6.106  -1.710  0.00  0.00    +0.245 A 
ATOM     10  N   UNL     1      -2.021  -4.850  -1.570  0.00  0.00    -0.156 NA
ATOM     11  C   UNL     1      -1.149 -10.003   1.367  0.00  0.00    +0.057 C 
ATOM     12  C   UNL     1      -0.834  -9.816   2.856  0.00  0.00    +0.007 C 
ATOM     13  C   UNL     1      -1.903  -8.931   3.502  0.00  0.00    +0.005 C 
ATOM     14  C   UNL     1      -1.736  -7.485   3.019  0.00  0.00    +0.039 C 
ENDROOT
BRANCH   1  15
ATOM     15  C   UNL     1      -2.477  -2.828  -0.206  0.00  0.00    +0.243 C 
BRANCH  15  17
ATOM     16  N   UNL     1      -1.199  -0.722   0.009  0.00  0.00    -0.284 N 
ATOM     17  C   UNL     1      -1.183  -2.065  -0.100  0.00  0.00    +0.239 C 
ATOM     18  O   UNL     1      -0.125  -2.659  -0.113  0.00  0.00    -0.273 OA
ATOM     19  H   UNL     1      -2.158  -0.189   0.096  0.00  0.00    +0.155 HD
BRANCH  16  26
ATOM     20  C   UNL     1      -1.159   1.842  -1.226  0.00  0.00    +0.045 C 
ATOM     21  C   UNL     1       0.066   1.251  -0.576  0.00  0.00    -0.029 A 
ATOM     22  C   UNL     1       1.254   1.956  -0.572  0.00  0.00    +0.005 A 
ATOM     23  C   UNL     1       2.379   1.412   0.018  0.00  0.00    +0.000 A 
ATOM     24  C   UNL     1       2.320   0.161   0.606  0.00  0.00    +0.002 A 
ATOM     25  C   UNL     1       1.135  -0.548   0.605  0.00  0.00    +0.023 A 
ATOM     26  C   UNL     1       0.003  -0.005   0.013  0.00  0.00    +0.036 A 
ENDBRANCH  16  26
ENDBRANCH  15  17
ENDBRANCH   1  15
TORSDOF 3
