REMARK  Name = ZINC32932483
REMARK  4 active torsions:
REMARK  status: ('A' for Active; 'I' for Inactive)
REMARK    1  A    between atoms: C_8  and  C_13
REMARK    2  A    between atoms: N_15  and  C_16
REMARK    3  A    between atoms: C_20  and  N_22
REMARK    4  A    between atoms: C_25  and  C_27
REMARK                            x       y       z     vdW  Elec       q    Type
REMARK                         _______ _______ _______ _____ _____    ______ ____
ROOT
ATOM      1  C   UNL     1      -2.463  -0.215   0.505  0.00  0.00    +0.254 C 
ATOM      2  O   UNL     1      -1.469  -0.703   1.007  0.00  0.00    -0.270 OA
ATOM      3  N   UNL     1      -2.432   1.049   0.039  0.00  0.00    -0.281 N 
ATOM      4  H   UNL     1      -3.353   1.521  -0.333  0.00  0.00    +0.155 HD
ENDROOT
BRANCH   1  12
ATOM      5  C   UNL     1      -6.260  -4.965   1.354  0.00  0.00    +0.001 A 
ATOM      6  C   UNL     1      -7.342  -4.432   0.664  0.00  0.00    +0.002 A 
ATOM      7  C   UNL     1      -7.259  -3.187   0.080  0.00  0.00    +0.026 A 
ATOM      8  C   UNL     1      -6.081  -2.450   0.180  0.00  0.00    +0.049 A 
ATOM      9  C   UNL     1      -4.986  -2.992   0.881  0.00  0.00    -0.001 A 
ATOM     10  C   UNL     1      -5.096  -4.263   1.466  0.00  0.00    +0.010 A 
ATOM     11  C   UNL     1      -3.782  -2.256   0.992  0.00  0.00    +0.028 A 
ATOM     12  C   UNL     1      -3.701  -1.006   0.406  0.00  0.00    +0.102 A 
ATOM     13  C   UNL     1      -4.866  -0.474  -0.310  0.00  0.00    +0.261 A 
ATOM     14  O   UNL     1      -4.811   0.627  -0.827  0.00  0.00    -0.267 OA
ATOM     15  N   UNL     1      -5.994  -1.204  -0.402  0.00  0.00    -0.321 N 
ATOM     16  H   UNL     1      -6.854  -0.792  -0.951  0.00  0.00    +0.169 HD
ENDBRANCH   1  12
BRANCH   3  17
ATOM     17  C   UNL     1      -1.228   1.761   0.028  0.00  0.00    +0.036 A 
ATOM     18  C   UNL     1      -1.230   3.135   0.236  0.00  0.00    +0.023 A 
ATOM     19  C   UNL     1      -0.042   3.839   0.219  0.00  0.00    +0.004 A 
ATOM     20  C   UNL     1       1.152   3.179   0.001  0.00  0.00    +0.028 A 
ATOM     21  C   UNL     1       1.162   1.806  -0.203  0.00  0.00    +0.067 A 
ATOM     22  C   UNL     1      -0.030   1.095  -0.186  0.00  0.00    +0.051 A 
BRANCH  21  23
ATOM     23  N   UNL     1       2.374   1.138  -0.423  0.00  0.00    -0.239 N 
ATOM     24  C   UNL     1       3.595   1.732  -0.460  0.00  0.00    +0.115 A 
ATOM     25  C   UNL     1       4.505   0.758  -0.694  0.00  0.00    +0.054 A 
ATOM     26  C   UNL     1       3.761  -0.441  -0.795  0.00  0.00    +0.147 A 
ATOM     27  N   UNL     1       2.493  -0.127  -0.615  0.00  0.00    -0.162 NA
BRANCH  26  28
ATOM     28  C   UNL     1       4.303  -1.792  -1.047  0.00  0.00    +0.262 C 
ATOM     29  O   UNL     1       5.500  -1.949  -1.191  0.00  0.00    -0.269 OA
ATOM     30  N   UNL     1       3.471  -2.849  -1.118  0.00  0.00    -0.324 N 
ATOM     31  H   UNL     1       3.874  -3.855  -1.306  0.00  0.00    +0.145 HD
ATOM     32  H   UNL     1       2.388  -2.707  -0.988  0.00  0.00    +0.145 HD
ENDBRANCH  26  28
ENDBRANCH  21  23
ENDBRANCH   3  17
TORSDOF 4
