REMARK  Name = ZINC39533566
REMARK  13 active torsions:
REMARK  status: ('A' for Active; 'I' for Inactive)
REMARK    1  A    between atoms: C_1  and  C_2
REMARK    2  A    between atoms: C_2  and  C_3
REMARK    3  A    between atoms: C_2  and  C_4
REMARK    4  A    between atoms: C_4  and  C_5
REMARK    5  A    between atoms: C_8  and  C_11
REMARK    6  A    between atoms: C_11  and  C_13
REMARK    7  A    between atoms: C_11  and  N_17
REMARK    8  A    between atoms: C_13  and  N_14
REMARK    9  A    between atoms: N_14  and  O_15
REMARK   10  A    between atoms: O_15  and  C_16
REMARK   11  A    between atoms: C_21  and  S_24
REMARK   12  A    between atoms: S_24  and  O_27
REMARK   13  A    between atoms: O_27  and  C_28
REMARK                            x       y       z     vdW  Elec       q    Type
REMARK                         _______ _______ _______ _____ _____    ______ ____
ROOT
ATOM      1  N   UNL     1       6.767   0.639   0.230  0.00  0.00    -0.296 NA
ATOM      2  C   UNL     1       7.784   1.557   0.763  0.00  0.00    +0.066 C 
ATOM      3  C   UNL     1       8.235   1.069   2.141  0.00  0.00    -0.064 C 
ATOM      4  N   UNL     1       8.788  -0.287   2.024  0.00  0.00    +0.398 N 
ATOM      5  C   UNL     1       7.754  -1.197   1.514  0.00  0.00    +0.130 C 
ATOM      6  C   UNL     1       7.299  -0.728   0.130  0.00  0.00    +0.095 C 
ATOM      7  H   UNL     1       9.571  -0.277   1.388  0.00  0.00    -0.083 HD
ATOM      8  H   UNL     1       9.097  -0.604   2.931  0.00  0.00    -0.083 HD
ENDROOT
BRANCH   5   9
ATOM      9  S   UNL     1       8.432  -2.875   1.391  0.00  0.00    +0.109 S 
ATOM     10  O   UNL     1       7.400  -3.797   1.071  0.00  0.00    -0.138 OA
ATOM     11  O   UNL     1       9.645  -2.859   0.651  0.00  0.00    -0.138 OA
BRANCH   9  12
ATOM     12  O   UNL     1       8.847  -3.234   2.810  0.00  0.00    -0.347 OA
BRANCH  12  13
ATOM     13  C   UNL     1       7.807  -3.533   3.632  0.00  0.00    +0.156 A 
ATOM     14  C   UNL     1       7.189  -2.529   4.364  0.00  0.00    +0.048 A 
ATOM     15  C   UNL     1       6.132  -2.835   5.198  0.00  0.00    +0.004 A 
ATOM     16  C   UNL     1       5.689  -4.141   5.304  0.00  0.00    +0.000 A 
ATOM     17  C   UNL     1       6.303  -5.143   4.576  0.00  0.00    +0.004 A 
ATOM     18  C   UNL     1       7.357  -4.841   3.736  0.00  0.00    +0.048 A 
ENDBRANCH  12  13
ENDBRANCH   9  12
ENDBRANCH   5   9
BRANCH   1  19
ATOM     19  C   UNL     1       6.267   1.105  -1.070  0.00  0.00    +0.103 C 
BRANCH  19  23
ATOM     20  C   UNL     1       2.121   0.142  -1.430  0.00  0.00    -0.047 A 
ATOM     21  C   UNL     1       2.575   1.394  -1.802  0.00  0.00    +0.004 A 
ATOM     22  C   UNL     1       3.916   1.706  -1.685  0.00  0.00    +0.005 A 
ATOM     23  C   UNL     1       4.804   0.766  -1.196  0.00  0.00    -0.029 A 
ATOM     24  C   UNL     1       4.351  -0.486  -0.824  0.00  0.00    +0.005 A 
ATOM     25  C   UNL     1       3.008  -0.796  -0.937  0.00  0.00    +0.004 A 
BRANCH  20  26
ATOM     26  C   UNL     1       0.658  -0.197  -1.558  0.00  0.00    +0.038 C 
BRANCH  26  28
ATOM     27  C   UNL     1      -0.018   1.691  -0.069  0.00  0.00    +0.007 C 
ATOM     28  C   UNL     1      -0.066   0.174  -0.262  0.00  0.00    -0.013 C 
ATOM     29  C   UNL     1      -1.524  -0.284  -0.344  0.00  0.00    +0.007 C 
ENDBRANCH  26  28
ENDBRANCH  20  26
ENDBRANCH  19  23
BRANCH  19  30
ATOM     30  C   UNL     1       7.048   0.420  -2.193  0.00  0.00    +0.134 C 
BRANCH  30  31
ATOM     31  N   UNL     1       8.482   0.701  -2.034  0.00  0.00    -0.200 NA
ATOM     32  H   UNL     1       8.655   1.695  -2.009  0.00  0.00    +0.154 HD
BRANCH  31  33
ATOM     33  O   UNL     1       9.262   0.060  -3.093  0.00  0.00    -0.303 OA
ATOM     34  C   UNL     1      10.669   0.292  -3.000  0.00  0.00    +0.221 C 
ENDBRANCH  31  33
ENDBRANCH  30  31
ENDBRANCH  19  30
ENDBRANCH   1  19
TORSDOF 10
