REMARK  Name = ZINC45767375
REMARK  6 active torsions:
REMARK  status: ('A' for Active; 'I' for Inactive)
REMARK    1  A    between atoms: C_4  and  O_24
REMARK    2  A    between atoms: C_5  and  N_7
REMARK    3  A    between atoms: C_8  and  C_10
REMARK    4  A    between atoms: N_13  and  C_15
REMARK    5  A    between atoms: C_18  and  N_21
REMARK    6  A    between atoms: O_24  and  C_25
REMARK                            x       y       z     vdW  Elec       q    Type
REMARK                         _______ _______ _______ _____ _____    ______ ____
ROOT
ATOM      1  N   UNL     1       1.235  -2.082  -0.022  0.00  0.00    -0.278 N 
ATOM      2  C   UNL     1       0.083  -2.774   0.087  0.00  0.00    +0.251 C 
ATOM      3  O   UNL     1      -0.981  -2.186   0.101  0.00  0.00    -0.270 OA
ATOM      4  H   UNL     1       2.077  -2.553  -0.115  0.00  0.00    +0.155 HD
ENDROOT
BRANCH   1   9
ATOM      5  C   UNL     1       0.153   1.372   0.637  0.00  0.00    +0.002 A 
ATOM      6  C   UNL     1       1.172   2.088   0.036  0.00  0.00    +0.004 A 
ATOM      7  C   UNL     1       2.215   1.426  -0.585  0.00  0.00    +0.048 A 
ATOM      8  C   UNL     1       2.240   0.041  -0.607  0.00  0.00    +0.151 A 
ATOM      9  C   UNL     1       1.214  -0.681  -0.003  0.00  0.00    +0.076 A 
ATOM     10  C   UNL     1       0.171  -0.009   0.619  0.00  0.00    +0.027 A 
BRANCH   8  11
ATOM     11  O   UNL     1       3.265  -0.612  -1.218  0.00  0.00    -0.404 OA
BRANCH  11  12
ATOM     12  C   UNL     1       4.282   0.194  -1.818  0.00  0.00    +0.575 C 
ATOM     13  F   UNL     1       4.878   0.996  -0.839  0.00  0.00    -0.133 F 
ATOM     14  F   UNL     1       5.250  -0.633  -2.397  0.00  0.00    -0.133 F 
ATOM     15  F   UNL     1       3.712   1.006  -2.804  0.00  0.00    -0.133 F 
ENDBRANCH  11  12
ENDBRANCH   8  11
ENDBRANCH   1   9
BRANCH   2  16
ATOM     16  C   UNL     1       0.115  -4.244   0.189  0.00  0.00    +0.075 A 
ATOM     17  C   UNL     1       1.268  -5.061   0.192  0.00  0.00    +0.147 A 
ATOM     18  N   UNL     1       0.884  -6.303   0.298  0.00  0.00    -0.174 NA
ATOM     19  N   UNL     1      -0.513  -6.342   0.367  0.00  0.00    -0.239 N 
ATOM     20  C   UNL     1      -0.978  -5.081   0.305  0.00  0.00    +0.127 A 
BRANCH  19  21
ATOM     21  C   UNL     1      -1.295  -7.498   0.485  0.00  0.00    +0.065 A 
ATOM     22  C   UNL     1      -2.679  -7.400   0.538  0.00  0.00    +0.030 A 
ATOM     23  C   UNL     1      -3.448  -8.541   0.654  0.00  0.00    +0.035 A 
ATOM     24  C   UNL     1      -2.840  -9.782   0.719  0.00  0.00    +0.126 A 
ATOM     25  C   UNL     1      -1.462  -9.883   0.668  0.00  0.00    +0.035 A 
ATOM     26  C   UNL     1      -0.689  -8.746   0.546  0.00  0.00    +0.030 A 
BRANCH  24  27
ATOM     27  N   UNL     1      -3.667 -11.004   0.845  0.00  0.00    +0.056 N 
ATOM     28  O   UNL     1      -4.872 -10.916   0.890  0.00  0.00    -0.126 OA
ATOM     29  O   UNL     1      -3.137 -12.089   0.902  0.00  0.00    -0.126 OA
ENDBRANCH  24  27
ENDBRANCH  19  21
ENDBRANCH   2  16
TORSDOF 6
