REMARK  Name = ZINC09629644
REMARK  5 active torsions:
REMARK  status: ('A' for Active; 'I' for Inactive)
REMARK    1  A    between atoms: C_1  and  O_2
REMARK    2  A    between atoms: O_2  and  C_3
REMARK    3  A    between atoms: N_12  and  N_26
REMARK    4  A    between atoms: C_13  and  C_15
REMARK    5  A    between atoms: C_27  and  C_28
REMARK                            x       y       z     vdW  Elec       q    Type
REMARK                         _______ _______ _______ _____ _____    ______ ____
ROOT
ATOM      1  C   UNL     1       7.043  11.945   0.253  0.00  0.00    +0.121 A 
ATOM      2  C   UNL     1       8.322  11.414   0.392  0.00  0.00    +0.048 A 
ATOM      3  C   UNL     1       8.540  10.072   0.392  0.00  0.00    +0.032 A 
ATOM      4  C   UNL     1       7.468   9.161   0.250  0.00  0.00    +0.081 A 
ATOM      5  C   UNL     1       6.180   9.728   0.111  0.00  0.00    +0.044 A 
ATOM      6  C   UNL     1       5.965  11.084   0.111  0.00  0.00    +0.063 A 
ATOM      7  S   UNL     1       5.147   8.290  -0.036  0.00  0.00    -0.050 S 
ATOM      8  C   UNL     1       6.444   7.067   0.092  0.00  0.00    +0.189 A 
ATOM      9  N   UNL     1       7.516   7.811   0.236  0.00  0.00    -0.223 NA
ATOM     10  N   UNL     1       6.343   5.685   0.056  0.00  0.00    -0.133 N 
ATOM     11  C   UNL     1       7.457   4.926   0.083  0.00  0.00    +0.285 C 
ATOM     12  O   UNL     1       7.379   3.727  -0.083  0.00  0.00    -0.269 OA
ENDROOT
BRANCH  11  13
ATOM     13  C   UNL     1       8.800   5.568   0.319  0.00  0.00    +0.298 C 
ATOM     14  C   UNL     1       8.904   6.029   1.779  0.00  0.00    +0.283 C 
ATOM     15  O   UNL     1      10.194   6.620   1.972  0.00  0.00    -0.484 OA
ATOM     16  C   UNL     1      11.260   5.938   1.473  0.00  0.00    +0.162 A 
ATOM     17  C   UNL     1      12.536   6.246   1.921  0.00  0.00    +0.049 A 
ATOM     18  C   UNL     1      13.629   5.564   1.423  0.00  0.00    +0.004 A 
ATOM     19  C   UNL     1      13.454   4.572   0.475  0.00  0.00    +0.004 A 
ATOM     20  C   UNL     1      12.186   4.260   0.024  0.00  0.00    +0.049 A 
ATOM     21  C   UNL     1      11.084   4.939   0.522  0.00  0.00    +0.163 A 
ATOM     22  O   UNL     1       9.841   4.616   0.074  0.00  0.00    -0.472 OA
ENDBRANCH  11  13
BRANCH   1  24
ATOM     23  C   UNL     1       8.014  14.110   0.406  0.00  0.00    +0.277 C 
ATOM     24  O   UNL     1       6.853  13.291   0.255  0.00  0.00    -0.495 OA
ENDBRANCH   1  24
BRANCH  10  25
ATOM     25  N   UNL     1       5.083   5.076  -0.010  0.00  0.00    -0.178 NA
ATOM     26  C   UNL     1       4.977   3.788   0.113  0.00  0.00    +0.145 C 
BRANCH  26  27
ATOM     27  C   UNL     1       3.647   3.155   0.120  0.00  0.00    +0.077 A 
ATOM     28  C   UNL     1       3.519   1.804   0.249  0.00  0.00    +0.209 A 
ATOM     29  O   UNL     1       2.333   1.194   0.259  0.00  0.00    -0.462 OA
ATOM     30  C   UNL     1       1.161   1.849   0.145  0.00  0.00    +0.138 A 
ATOM     31  C   UNL     1      -0.043   1.152   0.163  0.00  0.00    +0.047 A 
ATOM     32  C   UNL     1      -1.235   1.832   0.040  0.00  0.00    +0.004 A 
ATOM     33  C   UNL     1      -1.254   3.213  -0.093  0.00  0.00    +0.001 A 
ATOM     34  C   UNL     1      -0.074   3.924  -0.114  0.00  0.00    +0.015 A 
ATOM     35  C   UNL     1       1.139   3.246   0.005  0.00  0.00    +0.065 A 
ATOM     36  C   UNL     1       2.425   3.970  -0.013  0.00  0.00    +0.201 A 
ATOM     37  O   UNL     1       2.475   5.182  -0.132  0.00  0.00    -0.286 OA
ENDBRANCH  26  27
ENDBRANCH  10  25
TORSDOF 4
