REMARK  Name = ZINC39636054
REMARK  7 active torsions:
REMARK  status: ('A' for Active; 'I' for Inactive)
REMARK    1  A    between atoms: C_1  and  C_2
REMARK    2  A    between atoms: C_2  and  N_3
REMARK    3  A    between atoms: C_4  and  C_10
REMARK    4  A    between atoms: C_6  and  C_8
REMARK    5  A    between atoms: C_14  and  C_23
REMARK    6  A    between atoms: N_25  and  C_26
REMARK    7  A    between atoms: C_32  and  C_34
REMARK                            x       y       z     vdW  Elec       q    Type
REMARK                         _______ _______ _______ _____ _____    ______ ____
ROOT
ATOM      1  C   UNL     1      -1.786  -0.489   2.704  0.00  0.00    +0.266 C 
ATOM      2  O   UNL     1      -2.576  -0.822   3.567  0.00  0.00    -0.268 OA
ATOM      3  N   UNL     1      -0.619   0.090   3.046  0.00  0.00    -0.295 N 
ATOM      4  C   UNL     1       0.502   0.471   2.154  0.00  0.00    +0.121 C 
ATOM      5  C   UNL     1       0.999   1.825   2.708  0.00  0.00    +0.100 C 
ATOM      6  C   UNL     1       0.560   1.831   4.182  0.00  0.00    -0.004 C 
ATOM      7  C   UNL     1      -0.167   0.496   4.398  0.00  0.00    +0.115 C 
ATOM      8  C   UNL     1      -0.393   2.992   4.446  0.00  0.00    -0.010 C 
ATOM      9  C   UNL     1      -0.770   3.010   5.930  0.00  0.00    -0.082 C 
ATOM     10  N   UNL     1       0.444   3.153   6.743  0.00  0.00    +0.379 N 
ATOM     11  C   UNL     1       1.313   1.986   6.554  0.00  0.00    -0.082 C 
ATOM     12  C   UNL     1       1.778   1.924   5.096  0.00  0.00    -0.010 C 
ATOM     13  H   UNL     1       0.938   3.987   6.464  0.00  0.00    -0.086 HD
ATOM     14  H   UNL     1       0.188   3.226   7.716  0.00  0.00    -0.086 HD
ENDROOT
BRANCH   1  16
ATOM     15  N   UNL     1      -2.590   0.197   0.395  0.00  0.00    -0.258 N 
ATOM     16  C   UNL     1      -2.106  -0.720   1.287  0.00  0.00    +0.138 A 
ATOM     17  C   UNL     1      -1.976  -1.908   0.588  0.00  0.00    +0.071 A 
ATOM     18  C   UNL     1      -2.402  -1.621  -0.712  0.00  0.00    +0.075 A 
ATOM     19  N   UNL     1      -2.754  -0.361  -0.750  0.00  0.00    -0.175 NA
ATOM     20  C   UNL     1      -2.453  -2.591  -1.865  0.00  0.00    +0.069 C 
ATOM     21 BR   UNL     1      -1.355  -3.567   1.250  0.00  0.00    -0.046 Br
BRANCH  15  23
ATOM     22  C   UNL     1      -4.291   1.709   1.290  0.00  0.00    +0.029 C 
ATOM     23  C   UNL     1      -2.883   1.599   0.701  0.00  0.00    +0.141 C 
ENDBRANCH  15  23
ENDBRANCH   1  16
BRANCH   5  24
ATOM     24  C   UNL     1       2.499   1.916   2.604  0.00  0.00    +0.218 C 
ATOM     25  O   UNL     1       3.169   0.904   2.595  0.00  0.00    -0.275 OA
ATOM     26  N   UNL     1       3.098   3.121   2.523  0.00  0.00    -0.312 N 
ATOM     27  H   UNL     1       2.571   3.931   2.609  0.00  0.00    +0.149 HD
BRANCH  26  28
ATOM     28  C   UNL     1       4.544   3.207   2.303  0.00  0.00    +0.076 C 
ATOM     29  C   UNL     1       5.271   3.101   3.645  0.00  0.00    +0.022 C 
ATOM     30  C   UNL     1       4.824   4.244   4.559  0.00  0.00    +0.002 C 
ATOM     31  C   UNL     1       5.161   5.583   3.901  0.00  0.00    +0.000 C 
ATOM     32  C   UNL     1       4.434   5.690   2.559  0.00  0.00    +0.005 C 
ATOM     33  C   UNL     1       4.880   4.547   1.645  0.00  0.00    +0.006 C 
ATOM     34  C   UNL     1       4.153   4.653   0.303  0.00  0.00    +0.009 C 
ENDBRANCH  26  28
ENDBRANCH   5  24
TORSDOF 4
