REMARK  Name = ZINC64058397
REMARK  10 active torsions:
REMARK  status: ('A' for Active; 'I' for Inactive)
REMARK    1  A    between atoms: C_1  and  N_2
REMARK    2  A    between atoms: N_2  and  C_3
REMARK    3  A    between atoms: C_3  and  C_4
REMARK    4  A    between atoms: C_15  and  C_17
REMARK    5  A    between atoms: C_17  and  N_18
REMARK    6  A    between atoms: C_20  and  N_23
REMARK    7  A    between atoms: C_24  and  C_26
REMARK    8  A    between atoms: C_26  and  C_27
REMARK    9  A    between atoms: C_27  and  C_28
REMARK   10  A    between atoms: C_28  and  C_30
REMARK                            x       y       z     vdW  Elec       q    Type
REMARK                         _______ _______ _______ _____ _____    ______ ____
ROOT
ATOM      1  N   UNL     1      -0.020  -0.857  -3.588  0.00  0.00    -0.261 N 
ATOM      2  C   UNL     1      -0.926  -0.901  -4.600  0.00  0.00    +0.132 A 
ATOM      3  C   UNL     1      -0.568  -1.917  -5.426  0.00  0.00    +0.071 A 
ATOM      4  C   UNL     1       0.591  -2.509  -4.902  0.00  0.00    +0.157 A 
ATOM      5  N   UNL     1       0.919  -1.872  -3.808  0.00  0.00    -0.177 NA
ENDROOT
BRANCH   3   6
ATOM      6  N   UNL     1      -1.240  -2.307  -6.600  0.00  0.00    -0.283 N 
ATOM      7  C   UNL     1      -0.775  -3.339  -7.332  0.00  0.00    +0.218 C 
ATOM      8  O   UNL     1       0.223  -3.931  -6.979  0.00  0.00    -0.275 OA
ATOM      9  H   UNL     1      -2.038  -1.833  -6.882  0.00  0.00    +0.155 HD
BRANCH   7  10
ATOM     10  C   UNL     1      -1.494  -3.756  -8.588  0.00  0.00    +0.104 C 
BRANCH  10  11
ATOM     11  C   UNL     1      -0.765  -4.942  -9.223  0.00  0.00    +0.089 C 
BRANCH  11  12
ATOM     12  C   UNL     1      -1.485  -5.359 -10.480  0.00  0.00    +0.164 C 
ATOM     13  O   UNL     1      -2.482  -4.767 -10.833  0.00  0.00    -0.292 OA
BRANCH  12  14
ATOM     14  C   UNL     1      -0.977  -6.486 -11.279  0.00  0.00    +0.017 A 
ATOM     15  C   UNL     1       0.170  -7.175 -10.873  0.00  0.00    +0.011 A 
ATOM     16  C   UNL     1       0.639  -8.230 -11.626  0.00  0.00    +0.001 A 
ATOM     17  C   UNL     1      -0.021  -8.607 -12.783  0.00  0.00    +0.000 A 
ATOM     18  C   UNL     1      -1.157  -7.929 -13.192  0.00  0.00    +0.001 A 
ATOM     19  C   UNL     1      -1.642  -6.876 -12.446  0.00  0.00    +0.011 A 
ENDBRANCH  12  14
ENDBRANCH  11  12
ENDBRANCH  10  11
ENDBRANCH   7  10
ENDBRANCH   3   6
BRANCH   1  20
ATOM     20  C   UNL     1      -0.023   0.089  -2.470  0.00  0.00    +0.239 C 
BRANCH  20  23
ATOM     21  C   UNL     1      -0.018   1.461   0.010  0.00  0.00    +0.132 C 
ATOM     22  N   UNL     1       0.002  -0.004   0.002  0.00  0.00    -0.299 N 
ATOM     23  C   UNL     1       0.000  -0.672  -1.169  0.00  0.00    +0.237 C 
ATOM     24  O   UNL     1       0.017  -1.884  -1.175  0.00  0.00    -0.274 OA
BRANCH  22  25
ATOM     25  C   UNL     1       0.024  -0.743   1.267  0.00  0.00    +0.154 C 
BRANCH  25  26
ATOM     26  C   UNL     1      -1.411  -1.020   1.720  0.00  0.00    +0.192 C 
ATOM     27  N   UNL     1      -2.130  -1.773   0.685  0.00  0.00    -0.362 N 
ATOM     28  C   UNL     1      -3.141  -1.047   0.305  0.00  0.00    +0.060 A 
ATOM     29  C   UNL     1      -4.207  -1.259  -0.685  0.00  0.00    +0.030 A 
ATOM     30  C   UNL     1      -5.143  -0.308  -0.869  0.00  0.00    +0.040 A 
ATOM     31  C   UNL     1      -5.148   0.901  -0.145  0.00  0.00    +0.125 A 
ATOM     32  C   UNL     1      -4.215   1.195   0.787  0.00  0.00    +0.065 A 
ATOM     33  C   UNL     1      -3.146   0.231   1.070  0.00  0.00    +0.063 A 
ATOM     34  N   UNL     1      -2.137   0.244   1.896  0.00  0.00    -0.362 N 
ATOM     35  F   UNL     1      -6.124   1.802  -0.392  0.00  0.00    -0.205 F 
ATOM     36  H   UNL     1      -1.895  -2.651   0.346  0.00  0.00    +0.162 HD
ATOM     37  H   UNL     1      -1.907   0.957   2.512  0.00  0.00    +0.162 HD
ENDBRANCH  25  26
ENDBRANCH  22  25
ENDBRANCH  20  23
ENDBRANCH   1  20
TORSDOF 9
