REMARK  Name = ZINC23398153
REMARK  5 active torsions:
REMARK  status: ('A' for Active; 'I' for Inactive)
REMARK    1  A    between atoms: C_1  and  C_2
REMARK    2  A    between atoms: C_2  and  C_3
REMARK    3  A    between atoms: C_2  and  N_4
REMARK    4  A    between atoms: C_6  and  C_11
REMARK    5  A    between atoms: C_14  and  C_17
REMARK                            x       y       z     vdW  Elec       q    Type
REMARK                         _______ _______ _______ _____ _____    ______ ____
ROOT
ATOM      1  C   UNL     1      -4.132  -2.608  -1.128  0.00  0.00    +0.090 A 
ATOM      2  N   UNL     1      -5.344  -2.776  -1.700  0.00  0.00    -0.341 N 
ATOM      3  H   UNL     1      -5.944  -2.073  -1.996  0.00  0.00    +0.167 HD
ATOM      4  C   UNL     1      -5.567  -4.133  -1.786  0.00  0.00    +0.099 A 
ATOM      5  C   UNL     1      -4.466  -4.738  -1.254  0.00  0.00    +0.113 A 
ATOM      6  N   UNL     1      -3.616  -3.780  -0.872  0.00  0.00    -0.349 N 
ATOM      7  H   UNL     1      -2.749  -3.932  -0.464  0.00  0.00    +0.166 HD
ENDROOT
BRANCH   4   8
ATOM      8  C   UNL     1      -6.757  -4.798  -2.340  0.00  0.00    +0.154 A 
ATOM      9  C   UNL     1      -6.943  -6.142  -2.402  0.00  0.00    +0.060 A 
ATOM     10  C   UNL     1      -8.254  -6.341  -3.022  0.00  0.00    +0.021 A 
ATOM     11  C   UNL     1      -9.010  -7.465  -3.360  0.00  0.00    +0.011 A 
ATOM     12  C   UNL     1     -10.235  -7.307  -3.947  0.00  0.00    +0.001 A 
ATOM     13  C   UNL     1     -10.729  -6.037  -4.208  0.00  0.00    +0.004 A 
ATOM     14  C   UNL     1      -9.998  -4.915  -3.882  0.00  0.00    +0.047 A 
ATOM     15  C   UNL     1      -8.751  -5.052  -3.285  0.00  0.00    +0.136 A 
ATOM     16  O   UNL     1      -7.829  -4.165  -2.857  0.00  0.00    -0.453 OA
ENDBRANCH   4   8
BRANCH   1  19
ATOM     17  N   UNL     1      -1.372  -0.511   0.012  0.00  0.00    -0.298 N 
ATOM     18  C   UNL     1      -1.948  -1.365  -1.033  0.00  0.00    +0.119 C 
ATOM     19  C   UNL     1      -3.478  -1.282  -0.838  0.00  0.00    +0.079 C 
ATOM     20  C   UNL     1      -3.585  -0.927   0.663  0.00  0.00    +0.108 C 
ATOM     21  C   UNL     1      -2.267  -0.259   0.984  0.00  0.00    +0.217 C 
ATOM     22  O   UNL     1      -2.049   0.410   1.972  0.00  0.00    -0.276 OA
BRANCH  17  24
ATOM     23  C   UNL     1      -0.019   1.526   0.010  0.00  0.00    +0.028 C 
ATOM     24  C   UNL     1       0.002  -0.004   0.002  0.00  0.00    +0.070 C 
ATOM     25  C   UNL     1       0.742  -0.511   1.242  0.00  0.00    +0.028 C 
ENDBRANCH  17  24
ENDBRANCH   1  19
TORSDOF 3
