REMARK  Name = ZINC07640837
REMARK  6 active torsions:
REMARK  status: ('A' for Active; 'I' for Inactive)
REMARK    1  A    between atoms: C_1  and  N_58
REMARK    2  A    between atoms: C_2  and  C_3
REMARK    3  A    between atoms: C_2  and  N_58
REMARK    4  A    between atoms: C_12  and  C_13
REMARK    5  A    between atoms: C_12  and  N_58
REMARK    6  A    between atoms: N_18  and  C_19
REMARK                            x       y       z     vdW  Elec       q    Type
REMARK                         _______ _______ _______ _____ _____    ______ ____
ROOT
ATOM      1  C   UNL     1      -4.771   0.153   2.883  0.00  0.00    +0.204 C 
ATOM      2  O   UNL     1      -4.047   0.548   3.772  0.00  0.00    -0.277 OA
ATOM      3  N   UNL     1      -6.005  -0.307   3.172  0.00  0.00    -0.242 N 
ATOM      4  C   UNL     1      -6.434  -0.327   4.450  0.00  0.00    +0.306 C 
ATOM      5  O   UNL     1      -5.708   0.069   5.341  0.00  0.00    -0.252 OA
ATOM      6  N   UNL     1      -7.667  -0.786   4.739  0.00  0.00    -0.294 N 
ATOM      7  H   UNL     1      -6.584  -0.623   2.461  0.00  0.00    +0.159 HD
ATOM      8  H   UNL     1      -8.246  -1.102   4.028  0.00  0.00    +0.151 HD
ENDROOT
BRANCH   6   9
ATOM      9  C   UNL     1      -8.134  -0.808   6.128  0.00  0.00    +0.037 C 
ATOM     10  C   UNL     1      -7.205  -1.691   6.964  0.00  0.00    +0.029 C 
ATOM     11  C   UNL     1      -7.692  -1.714   8.414  0.00  0.00    -0.008 C 
ATOM     12  C   UNL     1      -9.114  -2.277   8.466  0.00  0.00    +0.007 C 
ATOM     13  C   UNL     1     -10.042  -1.394   7.630  0.00  0.00    -0.008 C 
ATOM     14  C   UNL     1      -9.555  -1.371   6.179  0.00  0.00    +0.029 C 
ATOM     15  C   UNL     1     -10.037   0.029   8.192  0.00  0.00    +0.007 C 
ATOM     16  C   UNL     1      -8.615   0.592   8.140  0.00  0.00    -0.008 C 
ATOM     17  C   UNL     1      -7.686  -0.291   8.977  0.00  0.00    +0.007 C 
ATOM     18  C   UNL     1      -8.128   0.615   6.690  0.00  0.00    +0.029 C 
ENDBRANCH   6   9
BRANCH   1  19
ATOM     19  C   UNL     1      -4.291   0.175   1.454  0.00  0.00    +0.019 C 
BRANCH  19  21
ATOM     20  C   UNL     1      -1.979  -0.184   2.077  0.00  0.00    -0.095 C 
ATOM     21  N   UNL     1      -2.926   0.741   1.419  0.00  0.00    +0.386 N 
ATOM     22  H   UNL     1      -2.923   1.636   1.922  0.00  0.00    -0.081 HD
BRANCH  21  23
ATOM     23  C   UNL     1      -2.513   0.975   0.019  0.00  0.00    -0.043 C 
BRANCH  23  24
ATOM     24  C   UNL     1      -1.220   1.749   0.017  0.00  0.00    -0.060 A 
ATOM     25  C   UNL     1      -0.013   1.076   0.008  0.00  0.00    +0.005 A 
ATOM     26  C   UNL     1       1.176   1.782   0.000  0.00  0.00    +0.050 A 
ATOM     27  C   UNL     1       1.160   3.167   0.008  0.00  0.00    +0.166 A 
ATOM     28  C   UNL     1      -0.057   3.845   0.022  0.00  0.00    +0.166 A 
ATOM     29  C   UNL     1      -1.244   3.131   0.031  0.00  0.00    +0.051 A 
ATOM     30  O   UNL     1       0.192   5.188   0.026  0.00  0.00    -0.453 OA
ATOM     31  C   UNL     1       1.561   5.326  -0.398  0.00  0.00    +0.466 C 
ATOM     32  O   UNL     1       2.171   4.084   0.002  0.00  0.00    -0.453 OA
ENDBRANCH  23  24
ENDBRANCH  21  23
ENDBRANCH  19  21
ENDBRANCH   1  19
TORSDOF 5
