REMARK  Name = ZINC12901747
REMARK  8 active torsions:
REMARK  status: ('A' for Active; 'I' for Inactive)
REMARK    1  A    between atoms: C_1  and  C_2
REMARK    2  A    between atoms: C_2  and  C_4
REMARK    3  A    between atoms: C_2  and  S_14
REMARK    4  A    between atoms: N_10  and  C_11
REMARK    5  A    between atoms: N_10  and  C_12
REMARK    6  A    between atoms: S_14  and  C_15
REMARK    7  A    between atoms: C_19  and  C_21
REMARK    8  A    between atoms: C_22  and  C_23
REMARK                            x       y       z     vdW  Elec       q    Type
REMARK                         _______ _______ _______ _____ _____    ______ ____
ROOT
ATOM      1  C   UNL     1      -0.019   1.526   0.010  0.00  0.00    +0.028 C 
ATOM      2  C   UNL     1       0.002  -0.004   0.002  0.00  0.00    +0.119 C 
ENDROOT
BRANCH   2   3
ATOM      3  C   UNL     1      -1.412  -0.526   0.013  0.00  0.00    +0.149 A 
ATOM      4  N   UNL     1      -2.124  -0.477   1.125  0.00  0.00    -0.198 NA
ATOM      5  C   UNL     1      -3.373  -0.936   1.138  0.00  0.00    +0.217 A 
ATOM      6  N   UNL     1      -3.904  -1.444   0.031  0.00  0.00    -0.181 NA
ATOM      7  C   UNL     1      -3.185  -1.492  -1.085  0.00  0.00    +0.222 A 
ATOM      8  N   UNL     1      -1.938  -1.026  -1.091  0.00  0.00    -0.198 NA
ATOM      9  N   UNL     1      -3.732  -2.019  -2.237  0.00  0.00    -0.306 N 
ATOM     10  C   UNL     1      -5.106  -2.527  -2.229  0.00  0.00    +0.132 C 
ATOM     11  C   UNL     1      -2.938  -2.071  -3.467  0.00  0.00    +0.132 C 
ATOM     12  N   UNL     1      -4.116  -0.885   2.300  0.00  0.00    -0.327 N 
ATOM     13  H   UNL     1      -3.728  -0.514   3.108  0.00  0.00    +0.145 HD
ATOM     14  H   UNL     1      -5.026  -1.220   2.309  0.00  0.00    +0.145 HD
ENDBRANCH   2   3
BRANCH   2  15
ATOM     15  S   UNL     1       0.879  -0.605   1.472  0.00  0.00    -0.076 S 
BRANCH  15  16
ATOM     16  C   UNL     1       2.533  -0.042   1.241  0.00  0.00    +0.185 A 
ATOM     17  N   UNL     1       3.568  -0.254   2.084  0.00  0.00    -0.253 N 
ATOM     18  H   UNL     1       3.543  -0.741   2.923  0.00  0.00    +0.191 HD
ATOM     19  N   UNL     1       4.688   0.367   1.508  0.00  0.00    -0.152 NA
ATOM     20  C   UNL     1       4.285   0.908   0.376  0.00  0.00    +0.175 A 
ATOM     21  N   UNL     1       2.976   0.652   0.216  0.00  0.00    -0.202 NA
BRANCH  20  22
ATOM     22  C   UNL     1       5.131   1.665  -0.562  0.00  0.00    +0.051 C 
ATOM     23  C   UNL     1       6.438   1.850  -0.291  0.00  0.00    +0.019 C 
BRANCH  23  24
ATOM     24  C   UNL     1       7.280   2.603  -1.224  0.00  0.00    +0.012 A 
ATOM     25  C   UNL     1       8.630   2.898  -1.138  0.00  0.00    +0.015 A 
ATOM     26  C   UNL     1       9.205   3.629  -2.152  0.00  0.00    +0.008 A 
ATOM     27  C   UNL     1       8.438   4.035  -3.197  0.00  0.00    +0.046 A 
ATOM     28  S   UNL     1       6.835   3.372  -2.773  0.00  0.00    -0.097 S 
ENDBRANCH  23  24
ENDBRANCH  20  22
ENDBRANCH  15  16
ENDBRANCH   2  15
TORSDOF 5
