REMARK  Name = ZINC63796332
REMARK  4 active torsions:
REMARK  status: ('A' for Active; 'I' for Inactive)
REMARK    1  A    between atoms: C_4  and  N_7
REMARK    2  A    between atoms: N_12  and  C_13
REMARK    3  A    between atoms: C_13  and  C_14
REMARK    4  A    between atoms: C_14  and  C_15
REMARK                            x       y       z     vdW  Elec       q    Type
REMARK                         _______ _______ _______ _____ _____    ______ ____
ROOT
ATOM      1  N   UNL     1       3.624  -0.652  -0.037  0.00  0.00    -0.181 N 
ATOM      2  C   UNL     1       3.918  -1.830   0.567  0.00  0.00    +0.240 A 
ATOM      3  N   UNL     1       5.175  -2.102   0.291  0.00  0.00    -0.092 NA
ATOM      4  N   UNL     1       5.685  -1.178  -0.440  0.00  0.00    -0.021 NA
ATOM      5  N   UNL     1       4.809  -0.266  -0.689  0.00  0.00    -0.038 NA
ATOM      6  N   UNL     1       3.058  -2.601   1.329  0.00  0.00    -0.312 N 
ATOM      7  H   UNL     1       2.144  -2.309   1.473  0.00  0.00    +0.149 HD
ENDROOT
BRANCH   1  11
ATOM      8  C   UNL     1      -0.017   1.379   0.010  0.00  0.00    +0.000 A 
ATOM      9  C   UNL     1       1.170   2.089   0.002  0.00  0.00    +0.002 A 
ATOM     10  C   UNL     1       2.377   1.419  -0.013  0.00  0.00    +0.028 A 
ATOM     11  C   UNL     1       2.399   0.031  -0.021  0.00  0.00    +0.071 A 
ATOM     12  C   UNL     1       1.207  -0.680  -0.013  0.00  0.00    +0.028 A 
ATOM     13  C   UNL     1       0.002  -0.004   0.002  0.00  0.00    +0.002 A 
ENDBRANCH   1  11
BRANCH   6  14
ATOM     14  C   UNL     1       3.528  -3.857   1.918  0.00  0.00    +0.109 C 
BRANCH  14  15
ATOM     15  C   UNL     1       2.389  -4.508   2.706  0.00  0.00    +0.052 C 
BRANCH  15  16
ATOM     16  C   UNL     1       2.873  -5.800   3.313  0.00  0.00    -0.040 C 
ATOM     17  C   UNL     1       3.352  -5.982   4.564  0.00  0.00    -0.001 A 
ATOM     18  C   UNL     1       3.560  -5.066   5.692  0.00  0.00    +0.010 A 
ATOM     19  C   UNL     1       4.069  -5.552   6.847  0.00  0.00    +0.001 A 
ATOM     20  C   UNL     1       4.402  -6.905   6.993  0.00  0.00    +0.002 A 
ATOM     21  C   UNL     1       4.240  -7.807   6.003  0.00  0.00    +0.026 A 
ATOM     22  C   UNL     1       3.712  -7.406   4.745  0.00  0.00    +0.043 A 
ATOM     23  N   UNL     1       3.465  -8.079   3.647  0.00  0.00    -0.380 N 
ATOM     24  C   UNL     1       2.914  -7.158   2.647  0.00  0.00    +0.144 C 
ATOM     25  H   UNL     1       3.617  -9.029   3.519  0.00  0.00    +0.160 HD
ENDBRANCH  15  16
ENDBRANCH  14  15
ENDBRANCH   6  14
TORSDOF 4
