REMARK  Name = ZINC52857628
REMARK  4 active torsions:
REMARK  status: ('A' for Active; 'I' for Inactive)
REMARK    1  A    between atoms: C_3  and  N_11
REMARK    2  A    between atoms: C_4  and  C_8
REMARK    3  A    between atoms: C_8  and  N_10
REMARK    4  A    between atoms: N_11  and  C_12
REMARK                            x       y       z     vdW  Elec       q    Type
REMARK                         _______ _______ _______ _____ _____    ______ ____
ROOT
ATOM      1  C   UNL     1      -0.028   1.331  -0.205  0.00  0.00    +0.022 A 
ATOM      2  C   UNL     1       1.128   2.085  -0.181  0.00  0.00    +0.025 A 
ATOM      3  C   UNL     1       2.357   1.470   0.019  0.00  0.00    +0.037 A 
ATOM      4  C   UNL     1       2.416   0.078   0.196  0.00  0.00    +0.025 A 
ATOM      5  C   UNL     1       1.238  -0.672   0.170  0.00  0.00    +0.032 A 
ATOM      6  C   UNL     1       0.027  -0.043  -0.030  0.00  0.00    +0.042 A 
ATOM      7 CL   UNL     1      -1.437  -0.977  -0.062  0.00  0.00    -0.084 Cl
ENDROOT
BRANCH   4   8
ATOM      8  C   UNL     1       3.713  -0.587   0.409  0.00  0.00    +0.079 C 
ATOM      9  S   UNL     1       4.286  -0.858   1.999  0.00  0.00    -0.035 S 
BRANCH   8  10
ATOM     10  N   UNL     1       4.449  -0.982  -0.649  0.00  0.00    -0.352 N 
ATOM     11  H   UNL     1       4.124  -0.829  -1.550  0.00  0.00    +0.143 HD
ATOM     12  H   UNL     1       5.303  -1.420  -0.509  0.00  0.00    +0.143 HD
ENDBRANCH   8  10
ENDBRANCH   4   8
BRANCH   3  13
ATOM     13  N   UNL     1       3.522   2.227   0.043  0.00  0.00    -0.339 N 
ATOM     14  H   UNL     1       4.385   1.788   0.103  0.00  0.00    +0.146 HD
BRANCH  13  15
ATOM     15  C   UNL     1       3.447   3.689  -0.021  0.00  0.00    +0.093 C 
ATOM     16  C   UNL     1       3.397   4.142  -1.490  0.00  0.00    +0.046 C 
ATOM     17  C   UNL     1       3.640   5.668  -1.580  0.00  0.00    +0.168 C 
ATOM     18  S   UNL     1       4.679   6.000  -0.099  0.00  0.00    -0.029 S 
ATOM     19  O   UNL     1       5.990   6.347  -0.522  0.00  0.00    -0.174 OA
ATOM     20  O   UNL     1       3.973   6.869   0.776  0.00  0.00    -0.174 OA
ATOM     21  C   UNL     1       4.714   4.309   0.634  0.00  0.00    +0.188 C 
ENDBRANCH  13  15
ENDBRANCH   3  13
TORSDOF 4
