REMARK  Name = ZINC35277497
REMARK  6 active torsions:
REMARK  status: ('A' for Active; 'I' for Inactive)
REMARK    1  A    between atoms: C_8  and  N_13
REMARK    2  A    between atoms: C_14  and  C_16
REMARK    3  A    between atoms: C_16  and  C_17
REMARK    4  A    between atoms: C_17  and  C_18
REMARK    5  A    between atoms: C_18  and  C_19
REMARK    6  A    between atoms: C_19  and  C_20
REMARK                            x       y       z     vdW  Elec       q    Type
REMARK                         _______ _______ _______ _____ _____    ______ ____
ROOT
ATOM      1  C   UNL     1       2.640  -4.364   0.907  0.00  0.00    +0.096 C 
ENDROOT
BRANCH   1   3
ATOM      2  N   UNL     1       3.453  -2.040   0.669  0.00  0.00    -0.308 N 
ATOM      3  C   UNL     1       2.854  -3.107   0.104  0.00  0.00    +0.213 C 
ATOM      4  O   UNL     1       2.487  -3.055  -1.051  0.00  0.00    -0.276 OA
ATOM      5  H   UNL     1       3.746  -2.081   1.593  0.00  0.00    +0.149 HD
BRANCH   2  13
ATOM      6  C   UNL     1      -0.017   1.380   0.010  0.00  0.00    +0.021 A 
ATOM      7  C   UNL     1       1.173   2.075   0.002  0.00  0.00    +0.016 A 
ATOM      8  C   UNL     1       2.391   1.395  -0.020  0.00  0.00    +0.013 A 
ATOM      9  C   UNL     1       2.414   0.013  -0.043  0.00  0.00    -0.012 A 
ATOM     10  C   UNL     1       1.205  -0.678  -0.022  0.00  0.00    +0.026 A 
ATOM     11  C   UNL     1       0.002  -0.004   0.002  0.00  0.00    +0.041 A 
ATOM     12 CL   UNL     1      -1.490  -0.892   0.023  0.00  0.00    -0.084 Cl
ATOM     13  C   UNL     1       3.661  -0.818  -0.112  0.00  0.00    +0.105 C 
ATOM     14  C   UNL     1       4.896  -0.111   0.419  0.00  0.00    +0.038 C 
ATOM     15  C   UNL     1       5.160   1.142  -0.429  0.00  0.00    +0.076 C 
ATOM     16  S   UNL     1       3.873   2.354  -0.009  0.00  0.00    -0.125 S 
ENDBRANCH   2  13
ENDBRANCH   1   3
BRANCH   1  17
ATOM     17  C   UNL     1       1.946  -5.413   0.037  0.00  0.00    +0.009 C 
BRANCH  17  18
ATOM     18  C   UNL     1       1.728  -6.690   0.852  0.00  0.00    +0.002 C 
BRANCH  18  19
ATOM     19  C   UNL     1       1.034  -7.739  -0.018  0.00  0.00    +0.028 C 
BRANCH  19  20
ATOM     20  C   UNL     1       0.816  -9.015   0.797  0.00  0.00    +0.152 C 
ATOM     21  C   UNL     1       0.163 -10.088  -0.035  0.00  0.00    +0.120 C 
ATOM     22  C   UNL     1      -0.625 -11.043   0.915  0.00  0.00    +0.117 C 
ATOM     23  C   UNL     1      -1.635 -10.154   1.637  0.00  0.00    +0.190 C 
ATOM     24  S   UNL     1      -0.472  -8.763   2.105  0.00  0.00    -0.025 S 
ATOM     25  O   UNL     1       0.101  -9.030   3.378  0.00  0.00    -0.174 OA
ATOM     26  O   UNL     1      -1.129  -7.524   1.877  0.00  0.00    -0.174 OA
ATOM     27  N   UNL     1      -1.045 -12.036  -0.048  0.00  0.00    -0.293 N 
ATOM     28  C   UNL     1      -0.042 -12.093  -0.974  0.00  0.00    +0.300 C 
ATOM     29  O   UNL     1       0.070 -12.986  -1.792  0.00  0.00    -0.253 OA
ATOM     30  N   UNL     1       0.825 -11.050  -0.866  0.00  0.00    -0.293 N 
ATOM     31  H   UNL     1      -1.867 -12.552  -0.040  0.00  0.00    +0.151 HD
ATOM     32  H   UNL     1       1.702 -10.973  -1.273  0.00  0.00    +0.151 HD
ENDBRANCH  19  20
ENDBRANCH  18  19
ENDBRANCH  17  18
ENDBRANCH   1  17
TORSDOF 6
