REMARK  Name = ZINC19846067
REMARK  6 active torsions:
REMARK  status: ('A' for Active; 'I' for Inactive)
REMARK    1  A    between atoms: C_1  and  N_2
REMARK    2  A    between atoms: C_3  and  S_7
REMARK    3  A    between atoms: S_7  and  C_8
REMARK    4  A    between atoms: C_8  and  C_9
REMARK    5  A    between atoms: N_11  and  C_12
REMARK    6  A    between atoms: C_17  and  N_18
REMARK                            x       y       z     vdW  Elec       q    Type
REMARK                         _______ _______ _______ _____ _____    ______ ____
ROOT
ATOM      1  C   UNL     1       2.057  -1.778  -0.033  0.00  0.00    +0.228 C 
ATOM      2  O   UNL     1       1.131  -2.562  -0.025  0.00  0.00    -0.275 OA
ATOM      3  N   UNL     1       3.325  -2.232  -0.040  0.00  0.00    -0.283 N 
ATOM      4  H   UNL     1       4.163  -1.524  -0.122  0.00  0.00    +0.155 HD
ENDROOT
BRANCH   3   5
ATOM      5  C   UNL     1       3.577  -3.608   0.056  0.00  0.00    +0.054 A 
ATOM      6  C   UNL     1       2.709  -4.516  -0.531  0.00  0.00    +0.025 A 
ATOM      7  C   UNL     1       2.963  -5.872  -0.440  0.00  0.00    +0.002 A 
ATOM      8  C   UNL     1       4.074  -6.327   0.245  0.00  0.00    +0.002 A 
ATOM      9  C   UNL     1       4.941  -5.429   0.839  0.00  0.00    +0.024 A 
ATOM     10  C   UNL     1       4.698  -4.067   0.747  0.00  0.00    +0.046 A 
BRANCH  10  11
ATOM     11  N   UNL     1       5.574  -3.156   1.347  0.00  0.00    -0.357 N 
ATOM     12  H   UNL     1       6.457  -3.520   1.892  0.00  0.00    +0.142 HD
ATOM     13  H   UNL     1       5.379  -2.076   1.274  0.00  0.00    +0.142 HD
ENDBRANCH  10  11
ENDBRANCH   3   5
BRANCH   1  14
ATOM     14  C   UNL     1       1.788  -0.295  -0.034  0.00  0.00    +0.173 C 
BRANCH  14  15
ATOM     15  S   UNL     1       0.001  -0.005  -0.023  0.00  0.00    -0.075 S 
BRANCH  15  18
ATOM     16  C   UNL     1      -2.525   2.118  -0.023  0.00  0.00    +0.177 C 
ATOM     17  N   UNL     1      -1.124   2.546  -0.026  0.00  0.00    -0.223 N 
ATOM     18  C   UNL     1      -0.024   1.756  -0.026  0.00  0.00    +0.210 A 
ATOM     19  N   UNL     1       1.023   2.553  -0.035  0.00  0.00    -0.102 NA
ATOM     20  N   UNL     1       0.653   3.783  -0.035  0.00  0.00    -0.022 NA
ATOM     21  N   UNL     1      -0.633   3.863  -0.026  0.00  0.00    -0.043 NA
ENDBRANCH  15  18
ENDBRANCH  14  15
ENDBRANCH   1  14
TORSDOF 5
