REMARK  Name = ZINC05698326
REMARK  7 active torsions:
REMARK  status: ('A' for Active; 'I' for Inactive)
REMARK    1  A    between atoms: C_1  and  C_2
REMARK    2  A    between atoms: C_5  and  N_11
REMARK    3  A    between atoms: C_6  and  N_8
REMARK    4  A    between atoms: C_12  and  C_14
REMARK    5  A    between atoms: C_14  and  C_28
REMARK    6  A    between atoms: C_15  and  C_16
REMARK    7  A    between atoms: C_19  and  C_21
REMARK                            x       y       z     vdW  Elec       q    Type
REMARK                         _______ _______ _______ _____ _____    ______ ____
ROOT
ATOM      1  C   UNL     1       1.246   1.965  -0.011  0.00  0.00    +0.117 C 
ATOM      2  C   UNL     1       2.457   1.288  -0.022  0.00  0.00    +0.070 C 
ENDROOT
BRANCH   2   3
ATOM      3  C   UNL     1       3.663   2.006  -0.043  0.00  0.00    +0.130 A 
ATOM      4  C   UNL     1       4.938   1.458  -0.050  0.00  0.00    +0.050 A 
ATOM      5  C   UNL     1       5.835   2.524  -0.073  0.00  0.00    +0.050 A 
ATOM      6  C   UNL     1       5.087   3.682  -0.072  0.00  0.00    +0.136 A 
ATOM      7  O   UNL     1       3.784   3.351  -0.053  0.00  0.00    -0.455 OA
BRANCH   6   8
ATOM      8  C   UNL     1       5.626   5.055  -0.087  0.00  0.00    +0.017 A 
ATOM      9  C   UNL     1       7.007   5.267  -0.100  0.00  0.00    +0.013 A 
ATOM     10  C   UNL     1       7.504   6.553  -0.119  0.00  0.00    +0.021 A 
ATOM     11  C   UNL     1       6.638   7.634  -0.116  0.00  0.00    +0.041 A 
ATOM     12  C   UNL     1       5.268   7.431  -0.098  0.00  0.00    +0.021 A 
ATOM     13  C   UNL     1       4.757   6.150  -0.084  0.00  0.00    +0.013 A 
ATOM     14 CL   UNL     1       7.272   9.250  -0.133  0.00  0.00    -0.084 Cl
ENDBRANCH   6   8
ENDBRANCH   2   3
BRANCH   1  16
ATOM     15  N   UNL     1      -1.191   1.872   0.015  0.00  0.00    -0.279 N 
ATOM     16  C   UNL     1      -0.015   1.214   0.011  0.00  0.00    +0.259 C 
ATOM     17  O   UNL     1       0.002  -0.003   0.019  0.00  0.00    -0.269 OA
ATOM     18  H   UNL     1      -1.206   2.839   0.090  0.00  0.00    +0.155 HD
BRANCH  15  23
ATOM     19  C   UNL     1      -6.056  -1.014  -0.400  0.00  0.00    +0.044 C 
ATOM     20  C   UNL     1      -4.764  -0.247  -0.290  0.00  0.00    -0.048 A 
ATOM     21  C   UNL     1      -3.596  -0.786  -0.799  0.00  0.00    +0.005 A 
ATOM     22  C   UNL     1      -2.410  -0.086  -0.700  0.00  0.00    +0.026 A 
ATOM     23  C   UNL     1      -2.391   1.161  -0.087  0.00  0.00    +0.064 A 
ATOM     24  C   UNL     1      -3.564   1.696   0.429  0.00  0.00    +0.148 A 
ATOM     25  C   UNL     1      -4.748   0.993   0.321  0.00  0.00    +0.038 A 
BRANCH  24  26
ATOM     26  N   UNL     1      -3.546   3.021   1.088  0.00  0.00    +0.058 N 
ATOM     27  O   UNL     1      -4.555   3.450   1.619  0.00  0.00    -0.126 OA
ATOM     28  O   UNL     1      -2.523   3.682   1.099  0.00  0.00    -0.126 OA
ENDBRANCH  24  26
ENDBRANCH  15  23
ENDBRANCH   1  16
BRANCH   1  29
ATOM     29  C   UNL     1       1.226   3.397  -0.021  0.00  0.00    +0.104 C 
ATOM     30  N   UNL     1       1.210   4.533  -0.029  0.00  0.00    -0.191 NA
ENDBRANCH   1  29
TORSDOF 6
