REMARK  Name = ZINC64103485
REMARK  11 active torsions:
REMARK  status: ('A' for Active; 'I' for Inactive)
REMARK    1  A    between atoms: C_1  and  C_2
REMARK    2  A    between atoms: C_8  and  C_12
REMARK    3  A    between atoms: C_12  and  C_13
REMARK    4  A    between atoms: C_13  and  N_14
REMARK    5  A    between atoms: C_15  and  C_17
REMARK    6  A    between atoms: N_19  and  C_31
REMARK    7  A    between atoms: C_21  and  C_24
REMARK    8  A    between atoms: N_26  and  C_27
REMARK    9  A    between atoms: C_27  and  C_28
REMARK   10  A    between atoms: C_27  and  C_29
REMARK   11  A    between atoms: C_27  and  C_30
REMARK                            x       y       z     vdW  Elec       q    Type
REMARK                         _______ _______ _______ _____ _____    ______ ____
ROOT
ATOM      1  C   UNL     1       4.000  -4.008   7.535  0.00  0.00    +0.184 C 
ATOM      2  C   UNL     1       4.003  -5.260   8.361  0.00  0.00    +0.074 C 
ATOM      3  N   UNL     1       4.686  -6.284   8.074  0.00  0.00    -0.371 N 
ATOM      4  C   UNL     1       5.554  -6.394   6.912  0.00  0.00    +0.160 C 
ATOM      5  C   UNL     1       5.924  -5.046   6.370  0.00  0.00    +0.077 C 
ATOM      6  C   UNL     1       5.213  -3.950   6.653  0.00  0.00    +0.183 C 
ATOM      7  O   UNL     1       5.594  -2.765   6.134  0.00  0.00    -0.291 OA
ENDROOT
BRANCH   3   8
ATOM      8  C   UNL     1       4.596  -7.438   8.972  0.00  0.00    +0.082 C 
ATOM      9  C   UNL     1       5.982  -7.754   9.537  0.00  0.00    +0.025 C 
ATOM     10  C   UNL     1       5.888  -8.959  10.475  0.00  0.00    +0.002 C 
ATOM     11  C   UNL     1       5.367 -10.170   9.698  0.00  0.00    +0.000 C 
ATOM     12  C   UNL     1       3.981  -9.855   9.133  0.00  0.00    +0.002 C 
ATOM     13  C   UNL     1       4.074  -8.649   8.195  0.00  0.00    +0.025 C 
ENDBRANCH   3   8
BRANCH   1  15
ATOM     14  N   UNL     1       2.526  -2.934   5.864  0.00  0.00    -0.314 N 
ATOM     15  C   UNL     1       2.761  -3.983   6.678  0.00  0.00    +0.229 C 
ATOM     16  O   UNL     1       1.975  -4.906   6.720  0.00  0.00    -0.275 OA
ATOM     17  H   UNL     1       3.154  -2.196   5.831  0.00  0.00    +0.149 HD
BRANCH  14  18
ATOM     18  C   UNL     1       1.321  -2.910   5.030  0.00  0.00    +0.108 C 
BRANCH  18  19
ATOM     19  C   UNL     1       1.296  -1.619   4.209  0.00  0.00    +0.065 C 
BRANCH  19  27
ATOM     20  C   UNL     1      -0.018   1.503   0.010  0.00  0.00    +0.046 C 
ATOM     21  C   UNL     1       0.002  -0.004   0.002  0.00  0.00    -0.025 A 
ATOM     22  C   UNL     1       0.006  -0.676  -1.167  0.00  0.00    +0.005 A 
ATOM     23  C   UNL     1       0.025  -2.081  -1.233  0.00  0.00    +0.002 A 
ATOM     24  C   UNL     1       0.040  -2.860  -0.134  0.00  0.00    +0.027 A 
ATOM     25  C   UNL     1       0.037  -2.237   1.197  0.00  0.00    +0.060 A 
ATOM     26  N   UNL     1       0.049  -2.726   2.403  0.00  0.00    -0.363 N 
ATOM     27  C   UNL     1       0.039  -1.594   3.338  0.00  0.00    +0.175 C 
ATOM     28  N   UNL     1       0.019  -0.378   2.515  0.00  0.00    -0.363 N 
ATOM     29  C   UNL     1       0.024  -0.750   1.268  0.00  0.00    +0.063 A 
ATOM     30  H   UNL     1       0.008   0.536   2.841  0.00  0.00    +0.162 HD
ATOM     31  H   UNL     1       0.063  -3.666   2.641  0.00  0.00    +0.162 HD
ENDBRANCH  19  27
ENDBRANCH  18  19
ENDBRANCH  14  18
ENDBRANCH   1  15
BRANCH   5  32
ATOM     32  C   UNL     1       7.062  -4.931   5.532  0.00  0.00    +0.246 C 
ATOM     33  O   UNL     1       7.379  -3.845   5.082  0.00  0.00    -0.270 OA
ATOM     34  N   UNL     1       7.793  -6.023   5.234  0.00  0.00    -0.307 N 
ATOM     35  H   UNL     1       7.541  -6.888   5.593  0.00  0.00    +0.150 HD
BRANCH  34  36
ATOM     36  C   UNL     1       8.969  -5.904   4.369  0.00  0.00    +0.026 C 
ATOM     37  C   UNL     1       9.978  -4.947   5.007  0.00  0.00    +0.031 C 
ATOM     38  C   UNL     1       9.614  -7.280   4.191  0.00  0.00    +0.031 C 
ATOM     39  C   UNL     1       8.544  -5.360   3.003  0.00  0.00    +0.031 C 
ENDBRANCH  34  36
ENDBRANCH   5  32
TORSDOF 7
