REMARK  Name = ZINC40329974
REMARK  7 active torsions:
REMARK  status: ('A' for Active; 'I' for Inactive)
REMARK    1  A    between atoms: C_1  and  C_2
REMARK    2  A    between atoms: C_2  and  N_3
REMARK    3  A    between atoms: C_5  and  N_22
REMARK    4  A    between atoms: C_7  and  C_8
REMARK    5  A    between atoms: C_12  and  C_21
REMARK    6  A    between atoms: C_17  and  C_19
REMARK    7  A    between atoms: C_17  and  C_20
REMARK                            x       y       z     vdW  Elec       q    Type
REMARK                         _______ _______ _______ _____ _____    ______ ____
ROOT
ATOM      1  C   UNL     1      -1.770  -0.285  -2.225  0.00  0.00    +0.263 C 
ATOM      2  O   UNL     1      -2.534  -0.355  -3.170  0.00  0.00    -0.268 OA
ATOM      3  N   UNL     1      -0.506   0.148  -2.410  0.00  0.00    -0.293 N 
ATOM      4  C   UNL     1       0.486   0.386  -1.351  0.00  0.00    +0.115 C 
ATOM      5  C   UNL     1       1.788   0.822  -2.063  0.00  0.00    -0.014 C 
ATOM      6  C   UNL     1       1.247   1.478  -3.362  0.00  0.00    +0.030 C 
ATOM      7  C   UNL     1       0.117   0.476  -3.708  0.00  0.00    +0.077 C 
ATOM      8  C   UNL     1       0.779  -0.775  -4.278  0.00  0.00    +0.029 C 
ATOM      9  C   UNL     1       1.830  -1.386  -3.369  0.00  0.00    -0.033 C 
ATOM     10  C   UNL     1       2.575  -0.422  -2.467  0.00  0.00    +0.014 C 
ATOM     11  C   UNL     1       1.197  -2.507  -2.530  0.00  0.00    +0.011 C 
ATOM     12  C   UNL     1       2.882  -2.066  -4.281  0.00  0.00    +0.011 C 
ATOM     13  C   UNL     1       2.616   1.800  -1.215  0.00  0.00    +0.013 C 
ENDROOT
BRANCH   1  18
ATOM     14  N   UNL     1      -3.439  -1.232  -0.570  0.00  0.00    -0.342 N 
ATOM     15  C   UNL     1      -3.483  -1.450   0.772  0.00  0.00    +0.109 A 
ATOM     16  C   UNL     1      -2.314  -1.030   1.322  0.00  0.00    +0.043 A 
ATOM     17  C   UNL     1      -1.510  -0.531   0.288  0.00  0.00    +0.055 A 
ATOM     18  C   UNL     1      -2.224  -0.670  -0.885  0.00  0.00    +0.106 A 
BRANCH  16  19
ATOM     19  N   UNL     1      -1.972  -1.085   2.686  0.00  0.00    -0.357 N 
ATOM     20  H   UNL     1      -2.599  -1.450   3.329  0.00  0.00    +0.142 HD
ATOM     21  H   UNL     1      -1.108  -0.758   2.983  0.00  0.00    +0.142 HD
ENDBRANCH  16  19
BRANCH  14  23
ATOM     22  C   UNL     1      -4.247  -2.924  -2.139  0.00  0.00    +0.027 C 
ATOM     23  C   UNL     1      -4.506  -1.548  -1.522  0.00  0.00    +0.118 C 
ENDBRANCH  14  23
ENDBRANCH   1  18
TORSDOF 3
