REMARK  Name = ZINC00910983
REMARK  10 active torsions:
REMARK  status: ('A' for Active; 'I' for Inactive)
REMARK    1  A    between atoms: C_1  and  C_2
REMARK    2  A    between atoms: C_2  and  C_3
REMARK    3  A    between atoms: C_3  and  C_4
REMARK    4  A    between atoms: C_3  and  C_5
REMARK    5  A    between atoms: C_3  and  N_6
REMARK    6  A    between atoms: C_7  and  C_11
REMARK    7  A    between atoms: C_11  and  C_13
REMARK    8  A    between atoms: C_11  and  N_27
REMARK    9  A    between atoms: C_17  and  O_25
REMARK   10  A    between atoms: O_25  and  C_26
REMARK                            x       y       z     vdW  Elec       q    Type
REMARK                         _______ _______ _______ _____ _____    ______ ____
ROOT
ATOM      1  C   UNL     1       3.028  -0.838  -1.690  0.00  0.00    +0.179 C 
ENDROOT
BRANCH   1   2
ATOM      2  C   UNL     1       3.398  -2.194  -1.145  0.00  0.00    +0.045 A 
ATOM      3  C   UNL     1       4.704  -2.533  -1.008  0.00  0.00    +0.021 A 
ATOM      4  C   UNL     1       5.030  -3.858  -0.475  0.00  0.00    +0.002 A 
ATOM      5  C   UNL     1       6.359  -4.262  -0.311  0.00  0.00    +0.055 A 
ATOM      6  C   UNL     1       6.632  -5.518   0.194  0.00  0.00    +0.121 A 
ATOM      7  C   UNL     1       5.592  -6.378   0.539  0.00  0.00    +0.047 A 
ATOM      8  C   UNL     1       4.279  -5.991   0.381  0.00  0.00    +0.030 A 
ATOM      9  C   UNL     1       3.983  -4.730  -0.126  0.00  0.00    +0.049 A 
ATOM     10  N   UNL     1       2.674  -4.323  -0.290  0.00  0.00    -0.322 N 
ATOM     11  H   UNL     1       1.930  -4.946  -0.046  0.00  0.00    +0.169 HD
ATOM     12  C   UNL     1       2.385  -3.103  -0.774  0.00  0.00    +0.255 A 
ATOM     13  O   UNL     1       1.217  -2.776  -0.901  0.00  0.00    -0.268 OA
BRANCH   6  14
ATOM     14  O   UNL     1       7.921  -5.917   0.355  0.00  0.00    -0.495 OA
ATOM     15  C   UNL     1       8.134  -7.228   0.883  0.00  0.00    +0.277 C 
ENDBRANCH   6  14
ENDBRANCH   1   2
BRANCH   1  16
ATOM     16  N   UNL     1       2.288  -0.085  -0.669  0.00  0.00    -0.316 N 
ATOM     17  C   UNL     1       2.797  -0.380   0.672  0.00  0.00    +0.106 C 
ATOM     18  C   UNL     1       2.008   0.452   1.690  0.00  0.00    +0.024 C 
ATOM     19  C   UNL     1       2.374   1.924   1.482  0.00  0.00    +0.038 C 
ATOM     20  C   UNL     1       2.311   2.259   0.013  0.00  0.00    -0.026 A 
ATOM     21  C   UNL     1       2.277   1.277  -0.963  0.00  0.00    +0.034 A 
ATOM     22  C   UNL     1       2.226   1.649  -2.307  0.00  0.00    +0.023 A 
ATOM     23  C   UNL     1       2.204   2.981  -2.663  0.00  0.00    +0.002 A 
ATOM     24  C   UNL     1       2.233   3.957  -1.684  0.00  0.00    +0.000 A 
ATOM     25  C   UNL     1       2.287   3.595  -0.352  0.00  0.00    +0.005 A 
ENDBRANCH   1  16
BRANCH   1  27
ATOM     26  N   UNL     1       2.573  -0.972  -4.196  0.00  0.00    -0.222 N 
ATOM     27  C   UNL     1       2.165  -1.007  -2.914  0.00  0.00    +0.177 A 
ATOM     28  N   UNL     1       0.872  -1.223  -2.936  0.00  0.00    -0.111 NA
ATOM     29  N   UNL     1       0.504  -1.307  -4.167  0.00  0.00    -0.023 NA
ATOM     30  N   UNL     1       1.529  -1.159  -4.931  0.00  0.00    -0.043 NA
BRANCH  26  31
ATOM     31  C   UNL     1       3.943  -0.761  -4.668  0.00  0.00    +0.062 C 
ATOM     32  C   UNL     1       4.408   0.642  -4.274  0.00  0.00    +0.036 C 
ATOM     33  C   UNL     1       4.867  -1.802  -4.032  0.00  0.00    +0.036 C 
BRANCH  31  35
ATOM     34  C   UNL     1       5.418  -0.683  -6.683  0.00  0.00    +0.006 C 
ATOM     35  C   UNL     1       3.986  -0.903  -6.191  0.00  0.00    +0.026 C 
ENDBRANCH  31  35
ENDBRANCH  26  31
ENDBRANCH   1  27
TORSDOF 6
