REMARK  Name = ZINC00081158
REMARK  3 active torsions:
REMARK  status: ('A' for Active; 'I' for Inactive)
REMARK    1  A    between atoms: C_3  and  N_24
REMARK    2  A    between atoms: C_6  and  C_7
REMARK    3  A    between atoms: C_18  and  N_23
REMARK                            x       y       z     vdW  Elec       q    Type
REMARK                         _______ _______ _______ _____ _____    ______ ____
ROOT
ATOM      1  C   UNL     1      -1.293  -0.775   0.010  0.00  0.00    +0.105 C 
ATOM      2  C   UNL     1      -1.618  -1.171  -1.399  0.00  0.00    +0.029 C 
ATOM      3  C   UNL     1      -3.116  -1.486  -1.588  0.00  0.00    +0.033 C 
ATOM      4  C   UNL     1      -3.136  -2.476  -2.734  0.00  0.00    -0.030 C 
ATOM      5  C   UNL     1      -1.953  -3.003  -2.916  0.00  0.00    -0.023 C 
ATOM      6  C   UNL     1      -0.979  -2.465  -1.897  0.00  0.00    +0.049 C 
ATOM      7  C   UNL     1      -0.817  -3.498  -0.818  0.00  0.00    -0.018 A 
ATOM      8  C   UNL     1      -0.539  -4.804  -1.196  0.00  0.00    +0.028 A 
ATOM      9  C   UNL     1      -0.392  -5.795  -0.239  0.00  0.00    +0.025 A 
ATOM     10  C   UNL     1      -0.523  -5.484   1.108  0.00  0.00    +0.024 A 
ATOM     11  C   UNL     1      -0.796  -4.186   1.487  0.00  0.00    +0.025 A 
ATOM     12  C   UNL     1      -0.938  -3.190   0.524  0.00  0.00    +0.031 A 
ATOM     13  N   UNL     1      -1.159  -1.885   0.930  0.00  0.00    -0.336 N 
ATOM     14  H   UNL     1      -1.258  -1.717   1.880  0.00  0.00    +0.147 HD
ENDROOT
BRANCH   1  20
ATOM     15  C   UNL     1      -0.017   1.378   0.010  0.00  0.00    +0.008 A 
ATOM     16  C   UNL     1       1.171   2.086   0.002  0.00  0.00    +0.033 A 
ATOM     17  C   UNL     1       2.377   1.411  -0.013  0.00  0.00    +0.126 A 
ATOM     18  C   UNL     1       2.396   0.029  -0.020  0.00  0.00    +0.033 A 
ATOM     19  C   UNL     1       1.208  -0.679  -0.012  0.00  0.00    +0.008 A 
ATOM     20  C   UNL     1       0.002  -0.004   0.002  0.00  0.00    -0.027 A 
BRANCH  17  21
ATOM     21  N   UNL     1       3.649   2.168  -0.022  0.00  0.00    +0.056 N 
ATOM     22  O   UNL     1       3.633   3.377  -0.016  0.00  0.00    -0.126 OA
ATOM     23  O   UNL     1       4.704   1.578  -0.035  0.00  0.00    -0.126 OA
ENDBRANCH  17  21
ENDBRANCH   1  20
BRANCH   9  24
ATOM     24  N   UNL     1      -0.110  -7.110  -0.630  0.00  0.00    -0.358 N 
ATOM     25  H   UNL     1      -0.018  -7.327  -1.571  0.00  0.00    +0.142 HD
ATOM     26  H   UNL     1      -0.006  -7.803   0.040  0.00  0.00    +0.142 HD
ENDBRANCH   9  24
TORSDOF 3
