REMARK  Name = ZINC36492579
REMARK  11 active torsions:
REMARK  status: ('A' for Active; 'I' for Inactive)
REMARK    1  A    between atoms: C_1  and  C_2
REMARK    2  A    between atoms: C_2  and  C_3
REMARK    3  A    between atoms: C_2  and  C_4
REMARK    4  A    between atoms: C_2  and  N_5
REMARK    5  A    between atoms: C_6  and  C_8
REMARK    6  A    between atoms: C_8  and  C_10
REMARK    7  A    between atoms: C_8  and  N_17
REMARK    8  A    between atoms: C_14  and  O_16
REMARK    9  A    between atoms: N_17  and  C_18
REMARK   10  A    between atoms: C_24  and  C_26
REMARK   11  A    between atoms: C_29  and  N_32
REMARK                            x       y       z     vdW  Elec       q    Type
REMARK                         _______ _______ _______ _____ _____    ______ ____
ROOT
ATOM      1  N   UNL     1       3.596  -0.831  -3.501  0.00  0.00    -0.279 N 
ATOM      2  C   UNL     1       3.928   0.183  -4.326  0.00  0.00    +0.248 C 
ATOM      3  O   UNL     1       3.199   1.151  -4.422  0.00  0.00    -0.270 OA
ENDROOT
BRANCH   1   4
ATOM      4  C   UNL     1       4.589  -1.853  -3.162  0.00  0.00    +0.077 C 
ATOM      5  C   UNL     1       3.874  -3.153  -2.787  0.00  0.00    +0.022 C 
ATOM      6  C   UNL     1       4.911  -4.221  -2.432  0.00  0.00    +0.002 C 
ATOM      7  C   UNL     1       5.753  -3.742  -1.248  0.00  0.00    +0.000 C 
ATOM      8  C   UNL     1       6.467  -2.442  -1.623  0.00  0.00    +0.002 C 
ATOM      9  C   UNL     1       5.431  -1.374  -1.977  0.00  0.00    +0.022 C 
ENDBRANCH   1   4
BRANCH   2  10
ATOM     10  C   UNL     1       5.177   0.117  -5.113  0.00  0.00    +0.037 A 
ATOM     11  C   UNL     1       6.363  -0.310  -4.512  0.00  0.00    +0.015 A 
ATOM     12  C   UNL     1       7.525  -0.369  -5.253  0.00  0.00    +0.033 A 
ATOM     13  C   UNL     1       7.518  -0.008  -6.588  0.00  0.00    +0.126 A 
ATOM     14  C   UNL     1       6.346   0.416  -7.190  0.00  0.00    +0.033 A 
ATOM     15  C   UNL     1       5.175   0.474  -6.462  0.00  0.00    +0.015 A 
BRANCH  13  16
ATOM     16  N   UNL     1       8.769  -0.074  -7.377  0.00  0.00    +0.056 N 
ATOM     17  O   UNL     1       9.794  -0.444  -6.854  0.00  0.00    -0.126 OA
ATOM     18  O   UNL     1       8.765   0.241  -8.544  0.00  0.00    -0.126 OA
ENDBRANCH  13  16
ENDBRANCH   2  10
BRANCH   1  19
ATOM     19  C   UNL     1       2.244  -0.910  -2.945  0.00  0.00    +0.193 C 
BRANCH  19  20
ATOM     20  C   UNL     1       1.583  -2.183  -3.408  0.00  0.00    -0.015 A 
ATOM     21  C   UNL     1       0.897  -2.974  -2.505  0.00  0.00    +0.006 A 
ATOM     22  C   UNL     1       0.290  -4.142  -2.927  0.00  0.00    +0.004 A 
ATOM     23  C   UNL     1       0.368  -4.522  -4.253  0.00  0.00    +0.045 A 
ATOM     24  C   UNL     1       1.056  -3.731  -5.161  0.00  0.00    +0.117 A 
ATOM     25  C   UNL     1       1.659  -2.555  -4.736  0.00  0.00    +0.051 A 
BRANCH  24  26
ATOM     26  O   UNL     1       1.134  -4.102  -6.466  0.00  0.00    -0.507 OA
ATOM     27  H   UNL     1       0.414  -3.763  -7.015  0.00  0.00    +0.292 HD
ENDBRANCH  24  26
ENDBRANCH  19  20
BRANCH  19  29
ATOM     28  N   UNL     1       1.205  -1.104  -0.708  0.00  0.00    -0.309 N 
ATOM     29  C   UNL     1       2.318  -0.902  -1.440  0.00  0.00    +0.239 C 
ATOM     30  O   UNL     1       3.381  -0.713  -0.886  0.00  0.00    -0.273 OA
ATOM     31  H   UNL     1       0.355  -1.255  -1.151  0.00  0.00    +0.149 HD
BRANCH  28  33
ATOM     32  C   UNL     1       1.791   0.263   1.233  0.00  0.00    +0.031 C 
ATOM     33  C   UNL     1       1.277  -1.097   0.755  0.00  0.00    +0.026 C 
ATOM     34  C   UNL     1       2.232  -2.196   1.224  0.00  0.00    +0.031 C 
ATOM     35  C   UNL     1      -0.115  -1.349   1.336  0.00  0.00    +0.031 C 
ENDBRANCH  28  33
ENDBRANCH  19  29
ENDBRANCH   1  19
TORSDOF 8
