REMARK  Name = ZINC09300496
REMARK  6 active torsions:
REMARK  status: ('A' for Active; 'I' for Inactive)
REMARK    1  A    between atoms: C_1  and  O_2
REMARK    2  A    between atoms: O_2  and  C_3
REMARK    3  A    between atoms: C_3  and  C_5
REMARK    4  A    between atoms: C_5  and  N_6
REMARK    5  A    between atoms: N_15  and  C_16
REMARK    6  A    between atoms: C_16  and  C_18
REMARK                            x       y       z     vdW  Elec       q    Type
REMARK                         _______ _______ _______ _____ _____    ______ ____
ROOT
ATOM      1  N   UNL     1      -2.102   5.872  -3.658  0.00  0.00    -0.310 N 
ATOM      2  C   UNL     1      -1.340   5.519  -2.559  0.00  0.00    +0.062 A 
ATOM      3  C   UNL     1      -0.586   4.351  -2.364  0.00  0.00    +0.076 A 
ATOM      4  C   UNL     1       0.125   4.150  -1.197  0.00  0.00    +0.164 A 
ATOM      5  C   UNL     1       0.111   5.105  -0.184  0.00  0.00    +0.163 A 
ATOM      6  C   UNL     1      -0.628   6.266  -0.354  0.00  0.00    +0.066 A 
ATOM      7  C   UNL     1      -1.334   6.458  -1.518  0.00  0.00    +0.043 A 
ATOM      8  S   UNL     1      -2.378   7.755  -2.134  0.00  0.00    -0.052 S 
ATOM      9  C   UNL     1      -2.773   7.055  -3.670  0.00  0.00    +0.167 A 
ATOM     10  N   UNL     1      -3.546   7.554  -4.629  0.00  0.00    -0.152 NA
ATOM     11  O   UNL     1       0.813   4.920   0.967  0.00  0.00    -0.485 OA
ATOM     12  C   UNL     1       1.243   3.584   1.251  0.00  0.00    +0.270 C 
ATOM     13  C   UNL     1       1.849   2.994  -0.030  0.00  0.00    +0.270 C 
ATOM     14  O   UNL     1       0.843   3.000  -1.048  0.00  0.00    -0.485 OA
ENDROOT
BRANCH  10  15
ATOM     15  C   UNL     1      -4.131   8.745  -4.464  0.00  0.00    +0.270 C 
ATOM     16  O   UNL     1      -3.956   9.373  -3.434  0.00  0.00    -0.268 OA
BRANCH  15  17
ATOM     17  C   UNL     1      -4.992   9.301  -5.532  0.00  0.00    +0.052 A 
ATOM     18  C   UNL     1      -5.195   8.586  -6.713  0.00  0.00    +0.014 A 
ATOM     19  C   UNL     1      -5.999   9.109  -7.704  0.00  0.00    +0.001 A 
ATOM     20  C   UNL     1      -6.604  10.341  -7.530  0.00  0.00    +0.001 A 
ATOM     21  C   UNL     1      -6.407  11.056  -6.363  0.00  0.00    +0.015 A 
ATOM     22  C   UNL     1      -5.609  10.541  -5.361  0.00  0.00    +0.026 A 
ATOM     23  I   UNL     1      -5.319  11.622  -3.590  0.00  0.00    -0.043 I 
ENDBRANCH  15  17
ENDBRANCH  10  15
BRANCH   1  24
ATOM     24  C   UNL     1      -2.187   4.972  -4.811  0.00  0.00    +0.244 C 
BRANCH  24  25
ATOM     25  C   UNL     1      -3.603   4.943  -5.324  0.00  0.00    +0.327 C 
ATOM     26  O   UNL     1      -4.486   5.471  -4.690  0.00  0.00    -0.249 OA
BRANCH  25  28
ATOM     27  C   UNL     1      -5.271   4.343  -6.917  0.00  0.00    +0.280 C 
ATOM     28  O   UNL     1      -3.885   4.331  -6.484  0.00  0.00    -0.467 OA
ENDBRANCH  25  28
ENDBRANCH  24  25
ENDBRANCH   1  24
TORSDOF 5
