REMARK  Name = ZINC63270659
REMARK  9 active torsions:
REMARK  status: ('A' for Active; 'I' for Inactive)
REMARK    1  A    between atoms: C_1  and  C_2
REMARK    2  A    between atoms: C_2  and  C_3
REMARK    3  A    between atoms: C_2  and  N_4
REMARK    4  A    between atoms: N_7  and  N_8
REMARK    5  A    between atoms: C_9  and  C_11
REMARK    6  A    between atoms: C_11  and  S_12
REMARK    7  A    between atoms: S_12  and  C_13
REMARK    8  A    between atoms: C_16  and  C_22
REMARK    9  A    between atoms: C_18  and  N_19
REMARK                            x       y       z     vdW  Elec       q    Type
REMARK                         _______ _______ _______ _____ _____    ______ ____
ROOT
ATOM      1  C   UNL     1      -6.316  -1.035   0.628  0.00  0.00    +0.171 C 
ENDROOT
BRANCH   1   3
ATOM      2  N   UNL     1      -3.940  -1.414   0.052  0.00  0.00    -0.233 N 
ATOM      3  C   UNL     1      -5.205  -1.881   0.061  0.00  0.00    +0.239 C 
ATOM      4  O   UNL     1      -5.449  -2.981  -0.386  0.00  0.00    -0.273 OA
ATOM      5  H   UNL     1      -3.745  -0.534   0.409  0.00  0.00    +0.173 HD
BRANCH   2   9
ATOM      6  N   UNL     1      -1.372  -0.511   0.012  0.00  0.00    -0.296 N 
ATOM      7  C   UNL     1      -1.643  -1.734  -0.485  0.00  0.00    +0.316 C 
ATOM      8  O   UNL     1      -0.747  -2.417  -0.942  0.00  0.00    -0.251 OA
ATOM      9  N   UNL     1      -2.908  -2.201  -0.475  0.00  0.00    -0.218 N 
ATOM     10  H   UNL     1      -2.087   0.033   0.377  0.00  0.00    +0.151 HD
ATOM     11  H   UNL     1      -3.103  -3.081  -0.833  0.00  0.00    +0.174 HD
BRANCH   6  13
ATOM     12  C   UNL     1      -0.019   1.526   0.010  0.00  0.00    +0.027 C 
ATOM     13  C   UNL     1       0.002  -0.004   0.002  0.00  0.00    +0.068 C 
ATOM     14  C   UNL     1       0.742  -0.511   1.242  0.00  0.00    +0.027 C 
ENDBRANCH   6  13
ENDBRANCH   2   9
ENDBRANCH   1   3
BRANCH   1  15
ATOM     15  S   UNL     1      -7.886  -1.933   0.498  0.00  0.00    -0.114 S 
BRANCH  15  16
ATOM     16  C   UNL     1      -9.069  -0.827   1.193  0.00  0.00    +0.039 A 
ATOM     17  C   UNL     1      -8.665   0.415   1.669  0.00  0.00    +0.017 A 
ATOM     18  C   UNL     1      -9.595   1.279   2.213  0.00  0.00    +0.013 A 
ATOM     19  C   UNL     1     -10.926   0.910   2.284  0.00  0.00    +0.057 A 
ATOM     20  C   UNL     1     -11.331  -0.325   1.812  0.00  0.00    +0.046 A 
ATOM     21  C   UNL     1     -10.408  -1.192   1.260  0.00  0.00    +0.140 A 
BRANCH  19  22
ATOM     22  C   UNL     1     -11.937   1.856   2.879  0.00  0.00    +0.417 C 
ATOM     23  F   UNL     1     -11.295   3.031   3.284  0.00  0.00    -0.166 F 
ATOM     24  F   UNL     1     -12.909   2.162   1.920  0.00  0.00    -0.166 F 
ATOM     25  F   UNL     1     -12.546   1.252   3.984  0.00  0.00    -0.166 F 
ENDBRANCH  19  22
BRANCH  21  26
ATOM     26  N   UNL     1     -10.844  -2.511   0.749  0.00  0.00    +0.058 N 
ATOM     27  O   UNL     1     -12.009  -2.827   0.808  0.00  0.00    -0.126 OA
ATOM     28  O   UNL     1     -10.034  -3.271   0.272  0.00  0.00    -0.126 OA
ENDBRANCH  21  26
ENDBRANCH  15  16
ENDBRANCH   1  15
TORSDOF 7
